MODEL 1
REMARK VINA RESULT: -7.233377431      0.000      0.000
REMARK  4 active torsions:
REMARK  status: ('A' for Active; 'I' for Inactive)
REMARK       I    between atoms: C1_2  and  N1_3 
REMARK    1  A    between atoms: C1_2  and  C13_20 
REMARK    2  A    between atoms: N1_3  and  C2_5 
REMARK    3  A    between atoms: C5_8  and  N2_9 
REMARK       I    between atoms: N2_9  and  C6_11 
REMARK    4  A    between atoms: C6_11  and  C7_13 
ROOT
HETATM    1  C2  UNL     1      -3.339   3.316  14.016  1.00  0.00     0.084 C 
HETATM    2  C3  UNL     1      -2.010   3.779  14.586  1.00  0.00     0.027 C 
HETATM    3  C4  UNL     1      -1.508   4.886  13.708  1.00  0.00     0.027 C 
HETATM    4  C5  UNL     1      -1.392   4.536  12.264  1.00  0.00     0.084 C 
HETATM    5  C11 UNL     1      -2.430   3.606  11.738  1.00  0.00     0.027 C 
HETATM    6  C12 UNL     1      -2.973   2.630  12.712  1.00  0.00     0.027 C 
ENDROOT
BRANCH   1   7
HETATM    7  N1  UNL     1      -4.017   2.414  14.921  1.00  0.00    -0.356 N 
HETATM    8  C1  UNL     1      -5.412   2.259  14.978  1.00  0.00     0.222 C 
HETATM    9  O1  UNL     1      -6.161   2.925  14.213  1.00  0.00    -0.273 OA
ATOM     10  H1  UNL     1      -3.447   1.856  15.556  1.00  0.00     0.162 HD
BRANCH   8  11
HETATM   11  C13 UNL     1      -6.028   1.327  15.920  1.00  0.00     0.089 C 
HETATM   12  C14 UNL     1      -5.166   0.930  17.101  1.00  0.00     0.093 C 
HETATM   13  C15 UNL     1      -6.449   0.943  17.943  1.00  0.00     0.245 C 
HETATM   14  F1  UNL     1      -6.297   1.418  19.209  1.00  0.00    -0.206 F 
HETATM   15  F2  UNL     1      -7.084  -0.268  17.807  1.00  0.00    -0.206 F 
HETATM   16  C16 UNL     1      -6.987   1.967  16.934  1.00  0.00     0.093 C 
ENDBRANCH   8  11
ENDBRANCH   1   7
BRANCH   4  17
HETATM   17  N2  UNL     1      -0.067   3.999  12.014  1.00  0.00    -0.354 N 
HETATM   18  C6  UNL     1       0.711   4.394  10.874  1.00  0.00     0.247 C 
HETATM   19  O2  UNL     1       0.188   5.240  10.084  1.00  0.00    -0.271 OA
ATOM     20  H2  UNL     1       0.324   3.321  12.669  1.00  0.00     0.162 HD
BRANCH  18  21
HETATM   21  C7  UNL     1       2.044   3.843  10.636  1.00  0.00     0.213 C 
HETATM   22  C8  UNL     1       2.945   4.815   9.892  1.00  0.00     0.043 C 
HETATM   23  C9  UNL     1       3.329   5.768  11.009  1.00  0.00     0.029 C 
HETATM   24  C10 UNL     1       3.216   4.890  12.223  1.00  0.00     0.168 C 
HETATM   25  O3  UNL     1       2.705   3.676  11.831  1.00  0.00    -0.376 OA
ENDBRANCH  18  21
ENDBRANCH   4  17
TORSDOF 4
ENDMDL
MODEL 2
REMARK VINA RESULT: -7.000568457      1.445      2.010
REMARK  4 active torsions:
REMARK  status: ('A' for Active; 'I' for Inactive)
REMARK       I    between atoms: C1_2  and  N1_3 
REMARK    1  A    between atoms: C1_2  and  C13_20 
REMARK    2  A    between atoms: N1_3  and  C2_5 
REMARK    3  A    between atoms: C5_8  and  N2_9 
REMARK       I    between atoms: N2_9  and  C6_11 
REMARK    4  A    between atoms: C6_11  and  C7_13 
ROOT
HETATM    1  C2  UNL     1      -3.507   1.897  12.814  1.00  0.00     0.084 C 
HETATM    2  C3  UNL     1      -2.685   3.168  12.690  1.00  0.00     0.027 C 
HETATM    3  C4  UNL     1      -2.544   3.466  11.227  1.00  0.00     0.027 C 
HETATM    4  C5  UNL     1      -1.967   2.360  10.414  1.00  0.00     0.084 C 
HETATM    5  C11 UNL     1      -2.340   0.981  10.841  1.00  0.00     0.027 C 
HETATM    6  C12 UNL     1      -2.595   0.802  12.290  1.00  0.00     0.027 C 
ENDROOT
BRANCH   1   7
HETATM    7  N1  UNL     1      -3.898   1.653  14.186  1.00  0.00    -0.356 N 
HETATM    8  C1  UNL     1      -5.132   2.041  14.733  1.00  0.00     0.222 C 
HETATM    9  O1  UNL     1      -5.985   2.641  14.024  1.00  0.00    -0.273 OA
ATOM     10  H1  UNL     1      -3.237   1.169  14.793  1.00  0.00     0.162 HD
BRANCH   8  11
HETATM   11  C13 UNL     1      -5.458   1.760  16.129  1.00  0.00     0.089 C 
HETATM   12  C14 UNL     1      -6.895   2.021  16.529  1.00  0.00     0.093 C 
HETATM   13  C15 UNL     1      -6.788   0.783  17.429  1.00  0.00     0.245 C 
HETATM   14  F1  UNL     1      -7.912   0.017  17.483  1.00  0.00    -0.206 F 
HETATM   15  F2  UNL     1      -6.230   1.151  18.630  1.00  0.00    -0.206 F 
HETATM   16  C16 UNL     1      -5.717   0.282  16.450  1.00  0.00     0.093 C 
ENDBRANCH   8  11
ENDBRANCH   1   7
BRANCH   4  17
HETATM   17  N2  UNL     1      -0.523   2.500  10.383  1.00  0.00    -0.354 N 
HETATM   18  C6  UNL     1       0.165   3.037   9.244  1.00  0.00     0.247 C 
HETATM   19  O2  UNL     1      -0.548   3.388   8.252  1.00  0.00    -0.271 OA
ATOM     20  H2  UNL     1       0.020   2.209  11.196  1.00  0.00     0.162 HD
BRANCH  18  21
HETATM   21  C7  UNL     1       1.621   3.171   9.228  1.00  0.00     0.213 C 
HETATM   22  C8  UNL     1       2.077   4.419   8.489  1.00  0.00     0.043 C 
HETATM   23  C9  UNL     1       1.796   5.490   9.526  1.00  0.00     0.029 C 
HETATM   24  C10 UNL     1       1.912   4.720  10.811  1.00  0.00     0.168 C 
HETATM   25  O3  UNL     1       2.087   3.392  10.503  1.00  0.00    -0.376 OA
ENDBRANCH  18  21
ENDBRANCH   4  17
TORSDOF 4
ENDMDL
MODEL 3
REMARK VINA RESULT: -6.951939814      1.937      2.430
REMARK  4 active torsions:
REMARK  status: ('A' for Active; 'I' for Inactive)
REMARK       I    between atoms: C1_2  and  N1_3 
REMARK    1  A    between atoms: C1_2  and  C13_20 
REMARK    2  A    between atoms: N1_3  and  C2_5 
REMARK    3  A    between atoms: C5_8  and  N2_9 
REMARK       I    between atoms: N2_9  and  C6_11 
REMARK    4  A    between atoms: C6_11  and  C7_13 
ROOT
HETATM    1  C2  UNL     1      -4.001   2.157  12.856  1.00  0.00     0.084 C 
HETATM    2  C3  UNL     1      -4.115   3.506  12.167  1.00  0.00     0.027 C 
HETATM    3  C4  UNL     1      -3.848   3.286  10.708  1.00  0.00     0.027 C 
HETATM    4  C5  UNL     1      -2.550   2.623  10.401  1.00  0.00     0.084 C 
HETATM    5  C11 UNL     1      -2.099   1.598  11.385  1.00  0.00     0.027 C 
HETATM    6  C12 UNL     1      -2.522   1.820  12.787  1.00  0.00     0.027 C 
ENDROOT
BRANCH   1   7
HETATM    7  N1  UNL     1      -4.470   2.220  14.223  1.00  0.00    -0.356 N 
HETATM    8  C1  UNL     1      -4.831   1.096  14.983  1.00  0.00     0.222 C 
HETATM    9  O1  UNL     1      -4.758  -0.062  14.488  1.00  0.00    -0.273 OA
ATOM     10  H1  UNL     1      -4.543   3.138  14.662  1.00  0.00     0.162 HD
BRANCH   8  11
HETATM   11  C13 UNL     1      -5.297   1.237  16.361  1.00  0.00     0.089 C 
HETATM   12  C14 UNL     1      -6.724   1.720  16.520  1.00  0.00     0.093 C 
HETATM   13  C15 UNL     1      -6.829   0.772  17.722  1.00  0.00     0.245 C 
HETATM   14  F1  UNL     1      -8.032   0.151  17.855  1.00  0.00    -0.206 F 
HETATM   15  F2  UNL     1      -6.331   1.405  18.835  1.00  0.00    -0.206 F 
HETATM   16  C16 UNL     1      -5.746  -0.069  17.031  1.00  0.00     0.093 C 
ENDBRANCH   8  11
ENDBRANCH   1   7
BRANCH   4  17
HETATM   17  N2  UNL     1      -1.528   3.641  10.236  1.00  0.00    -0.354 N 
HETATM   18  C6  UNL     1      -0.510   3.540   9.229  1.00  0.00     0.247 C 
HETATM   19  O2  UNL     1      -0.539   2.515   8.480  1.00  0.00    -0.271 OA
ATOM     20  H2  UNL     1      -1.533   4.452  10.855  1.00  0.00     0.162 HD
BRANCH  18  21
HETATM   21  C7  UNL     1       0.513   4.574   9.076  1.00  0.00     0.213 C 
HETATM   22  C8  UNL     1       0.985   5.120  10.414  1.00  0.00     0.043 C 
HETATM   23  C9  UNL     1       1.906   4.006  10.875  1.00  0.00     0.029 C 
HETATM   24  C10 UNL     1       2.355   3.412   9.571  1.00  0.00     0.168 C 
HETATM   25  O3  UNL     1       1.662   4.025   8.556  1.00  0.00    -0.376 OA
ENDBRANCH  18  21
ENDBRANCH   4  17
TORSDOF 4
ENDMDL
MODEL 4
REMARK VINA RESULT: -6.894882601      5.482      8.584
REMARK  4 active torsions:
REMARK  status: ('A' for Active; 'I' for Inactive)
REMARK       I    between atoms: C1_2  and  N1_3 
REMARK    1  A    between atoms: C1_2  and  C13_20 
REMARK    2  A    between atoms: N1_3  and  C2_5 
REMARK    3  A    between atoms: C5_8  and  N2_9 
REMARK       I    between atoms: N2_9  and  C6_11 
REMARK    4  A    between atoms: C6_11  and  C7_13 
ROOT
HETATM    1  C2  UNL     1      -4.518   4.415  12.516  1.00  0.00     0.084 C 
HETATM    2  C3  UNL     1      -5.140   4.499  13.899  1.00  0.00     0.027 C 
HETATM    3  C4  UNL     1      -4.221   3.786  14.846  1.00  0.00     0.027 C 
HETATM    4  C5  UNL     1      -3.905   2.379  14.473  1.00  0.00     0.084 C 
HETATM    5  C11 UNL     1      -3.796   2.107  13.011  1.00  0.00     0.027 C 
HETATM    6  C12 UNL     1      -4.640   2.951  12.134  1.00  0.00     0.027 C 
ENDROOT
BRANCH   1   7
HETATM    7  N1  UNL     1      -5.206   5.271  11.575  1.00  0.00    -0.356 N 
HETATM    8  C1  UNL     1      -4.950   6.645  11.428  1.00  0.00     0.222 C 
HETATM    9  O1  UNL     1      -4.075   7.211  12.137  1.00  0.00    -0.273 OA
ATOM     10  H1  UNL     1      -5.921   4.851  10.981  1.00  0.00     0.162 HD
BRANCH   8  11
HETATM   11  C13 UNL     1      -5.687   7.447  10.454  1.00  0.00     0.089 C 
HETATM   12  C14 UNL     1      -6.558   6.666   9.492  1.00  0.00     0.093 C 
HETATM   13  C15 UNL     1      -7.566   7.819   9.591  1.00  0.00     0.245 C 
HETATM   14  F1  UNL     1      -8.872   7.437   9.590  1.00  0.00    -0.206 F 
HETATM   15  F2  UNL     1      -7.207   8.804   8.702  1.00  0.00    -0.206 F 
HETATM   16  C16 UNL     1      -6.977   8.087  10.983  1.00  0.00     0.093 C 
ENDBRANCH   8  11
ENDBRANCH   1   7
BRANCH   4  17
HETATM   17  N2  UNL     1      -4.890   1.499  15.073  1.00  0.00    -0.354 N 
HETATM   18  C6  UNL     1      -4.600   0.717  16.241  1.00  0.00     0.247 C 
HETATM   19  O2  UNL     1      -3.434   0.827  16.734  1.00  0.00    -0.271 OA
ATOM     20  H2  UNL     1      -5.817   1.434  14.652  1.00  0.00     0.162 HD
BRANCH  18  21
HETATM   21  C7  UNL     1      -5.603  -0.166  16.834  1.00  0.00     0.213 C 
HETATM   22  C8  UNL     1      -5.728   0.030  18.336  1.00  0.00     0.043 C 
HETATM   23  C9  UNL     1      -6.541   1.310  18.396  1.00  0.00     0.029 C 
HETATM   24  C10 UNL     1      -7.303   1.258  17.102  1.00  0.00     0.168 C 
HETATM   25  O3  UNL     1      -6.857   0.176  16.382  1.00  0.00    -0.376 OA
ENDBRANCH  18  21
ENDBRANCH   4  17
TORSDOF 4
ENDMDL
MODEL 5
REMARK VINA RESULT: -6.861379102      5.240      7.147
REMARK  4 active torsions:
REMARK  status: ('A' for Active; 'I' for Inactive)
REMARK       I    between atoms: C1_2  and  N1_3 
REMARK    1  A    between atoms: C1_2  and  C13_20 
REMARK    2  A    between atoms: N1_3  and  C2_5 
REMARK    3  A    between atoms: C5_8  and  N2_9 
REMARK       I    between atoms: N2_9  and  C6_11 
REMARK    4  A    between atoms: C6_11  and  C7_13 
ROOT
HETATM    1  C2  UNL     1      -4.552   2.787  14.841  1.00  0.00     0.084 C 
HETATM    2  C3  UNL     1      -4.132   3.988  14.011  1.00  0.00     0.027 C 
HETATM    3  C4  UNL     1      -4.464   5.216  14.805  1.00  0.00     0.027 C 
HETATM    4  C5  UNL     1      -5.886   5.319  15.236  1.00  0.00     0.084 C 
HETATM    5  C11 UNL     1      -6.553   4.031  15.579  1.00  0.00     0.027 C 
HETATM    6  C12 UNL     1      -6.069   2.839  14.843  1.00  0.00     0.027 C 
ENDROOT
BRANCH   1   7
HETATM    7  N1  UNL     1      -4.062   1.552  14.268  1.00  0.00    -0.356 N 
HETATM    8  C1  UNL     1      -4.521   1.010  13.056  1.00  0.00     0.222 C 
HETATM    9  O1  UNL     1      -5.414   1.601  12.390  1.00  0.00    -0.273 OA
ATOM     10  H1  UNL     1      -3.338   1.044  14.776  1.00  0.00     0.162 HD
BRANCH   8  11
HETATM   11  C13 UNL     1      -3.979  -0.244  12.539  1.00  0.00     0.089 C 
HETATM   12  C14 UNL     1      -4.684  -0.807  11.323  1.00  0.00     0.093 C 
HETATM   13  C15 UNL     1      -3.303  -1.257  10.827  1.00  0.00     0.245 C 
HETATM   14  F1  UNL     1      -3.114  -1.145   9.484  1.00  0.00    -0.206 F 
HETATM   15  F2  UNL     1      -2.997  -2.469  11.397  1.00  0.00    -0.206 F 
HETATM   16  C16 UNL     1      -2.734  -0.096  11.654  1.00  0.00     0.093 C 
ENDBRANCH   8  11
ENDBRANCH   1   7
BRANCH   4  17
HETATM   17  N2  UNL     1      -6.641   6.015  14.209  1.00  0.00    -0.354 N 
HETATM   18  C6  UNL     1      -6.547   7.435  14.027  1.00  0.00     0.247 C 
HETATM   19  O2  UNL     1      -5.768   8.066  14.807  1.00  0.00    -0.271 OA
ATOM     20  H2  UNL     1      -7.257   5.478  13.599  1.00  0.00     0.162 HD
BRANCH  18  21
HETATM   21  C7  UNL     1      -7.315   8.121  12.989  1.00  0.00     0.213 C 
HETATM   22  C8  UNL     1      -6.470   9.115  12.208  1.00  0.00     0.043 C 
HETATM   23  C9  UNL     1      -5.697   8.184  11.292  1.00  0.00     0.029 C 
HETATM   24  C10 UNL     1      -6.635   7.016  11.171  1.00  0.00     0.168 C 
HETATM   25  O3  UNL     1      -7.697   7.225  12.017  1.00  0.00    -0.376 OA
ENDBRANCH  18  21
ENDBRANCH   4  17
TORSDOF 4
ENDMDL
