MODEL 1
REMARK VINA RESULT: -6.999323629      0.000      0.000
REMARK  5 active torsions:
REMARK  status: ('A' for Active; 'I' for Inactive)
REMARK       I    between atoms: C2_4  and  N2_5 
REMARK       I    between atoms: C2_4  and  N4_14 
REMARK    1  A    between atoms: N2_5  and  C3_7 
REMARK    2  A    between atoms: C13_19  and  C14_20 
REMARK    3  A    between atoms: C14_20  and  N5_21 
REMARK    4  A    between atoms: N5_21  and  C15_24 
REMARK    5  A    between atoms: C15_24  and  C16_25 
ROOT
HETATM    1  C1  UNL     1      -1.837   2.812  14.058  1.00  0.00     0.165 C 
HETATM    2  N1  UNL     1      -2.543   1.824  13.358  1.00  0.00    -0.230 N 
ATOM      3  H1  UNL     1      -2.184   0.889  13.554  1.00  0.00     0.177 HD
HETATM    4  C2  UNL     1      -3.481   1.798  12.572  1.00  0.00     0.676 C 
HETATM    5  N2  UNL     1      -4.230   2.868  12.065  1.00  0.00    -0.199 N 
ATOM      6  H2  UNL     1      -4.341   2.868  11.051  1.00  0.00     0.183 HD
HETATM    7  N4  UNL     1      -3.887   0.489  12.088  1.00  0.00    -0.212 N 
HETATM    8  C9  UNL     1      -3.398   0.080  10.800  1.00  0.00     0.141 C 
HETATM    9  C10 UNL     1      -2.567  -1.174  10.842  1.00  0.00     0.020 C 
HETATM   10  C11 UNL     1      -2.936  -1.956  12.068  1.00  0.00     0.004 C 
HETATM   11  C12 UNL     1      -4.426  -1.815  12.297  1.00  0.00     0.027 C 
HETATM   12  C13 UNL     1      -4.738  -0.405  12.817  1.00  0.00     0.127 C 
ENDROOT
BRANCH  12  13
HETATM   13  C14 UNL     1      -4.441  -0.434  14.299  1.00  0.00     0.258 C 
BRANCH  13  14
HETATM   14  N5  UNL     1      -5.552   0.179  15.003  1.00  0.00    -0.065 N 
ATOM     15  H52 UNL     1      -5.540   1.192  14.891  1.00  0.00     0.277 HD
ATOM     16  H51 UNL     1      -6.437  -0.029  14.541  1.00  0.00     0.277 HD
BRANCH  14  17
HETATM   17  C15 UNL     1      -5.598  -0.186  16.390  1.00  0.00     0.349 C 
BRANCH  17  18
HETATM   18  C16 UNL     1      -6.860   0.403  16.982  1.00  0.00     0.411 C 
HETATM   19  F1  UNL     1      -7.891  -0.480  16.725  1.00  0.00    -0.169 F 
HETATM   20  F2  UNL     1      -6.700   0.423  18.374  1.00  0.00    -0.169 F 
HETATM   21  F3  UNL     1      -7.111   1.662  16.504  1.00  0.00    -0.169 F 
ENDBRANCH  17  18
ENDBRANCH  14  17
ENDBRANCH  13  14
ENDBRANCH  12  13
BRANCH   5  22
HETATM   22  C3  UNL     1      -4.859   3.949  12.728  1.00  0.00     0.007 C 
HETATM   23  C4  UNL     1      -5.372   3.632  14.121  1.00  0.00     0.083 C 
HETATM   24  C5  UNL     1      -6.225   4.806  14.544  1.00  0.00     0.277 C 
HETATM   25  N3  UNL     1      -5.509   6.043  14.584  1.00  0.00     0.084 N 
HETATM   26  C6  UNL     1      -5.332   6.535  15.942  1.00  0.00     0.309 C 
HETATM   27  C7  UNL     1      -4.201   6.008  13.973  1.00  0.00     0.277 C 
HETATM   28  C8  UNL     1      -4.201   5.265  12.647  1.00  0.00     0.083 C 
ENDBRANCH   5  22
TORSDOF 5
ENDMDL
MODEL 2
REMARK VINA RESULT: -6.989886313      0.840      1.197
REMARK  5 active torsions:
REMARK  status: ('A' for Active; 'I' for Inactive)
REMARK       I    between atoms: C2_4  and  N2_5 
REMARK       I    between atoms: C2_4  and  N4_14 
REMARK    1  A    between atoms: N2_5  and  C3_7 
REMARK    2  A    between atoms: C13_19  and  C14_20 
REMARK    3  A    between atoms: C14_20  and  N5_21 
REMARK    4  A    between atoms: N5_21  and  C15_24 
REMARK    5  A    between atoms: C15_24  and  C16_25 
ROOT
HETATM    1  C1  UNL     1      -1.630   2.792  14.577  1.00  0.00     0.165 C 
HETATM    2  N1  UNL     1      -2.429   1.981  13.759  1.00  0.00    -0.230 N 
ATOM      3  H1  UNL     1      -2.154   1.000  13.811  1.00  0.00     0.177 HD
HETATM    4  C2  UNL     1      -3.372   2.152  12.999  1.00  0.00     0.676 C 
HETATM    5  N2  UNL     1      -4.027   3.346  12.666  1.00  0.00    -0.199 N 
ATOM      6  H2  UNL     1      -4.146   3.502  11.666  1.00  0.00     0.183 HD
HETATM    7  N4  UNL     1      -3.901   0.967  12.342  1.00  0.00    -0.212 N 
HETATM    8  C9  UNL     1      -3.462   0.706  10.998  1.00  0.00     0.141 C 
HETATM    9  C10 UNL     1      -2.748  -0.609  10.842  1.00  0.00     0.020 C 
HETATM   10  C11 UNL     1      -3.175  -1.524  11.951  1.00  0.00     0.004 C 
HETATM   11  C12 UNL     1      -4.644  -1.286  12.231  1.00  0.00     0.027 C 
HETATM   12  C13 UNL     1      -4.822   0.056  12.954  1.00  0.00     0.127 C 
ENDROOT
BRANCH  12  13
HETATM   13  C14 UNL     1      -4.515  -0.212  14.410  1.00  0.00     0.258 C 
BRANCH  13  14
HETATM   14  N5  UNL     1      -5.565   0.377  15.218  1.00  0.00    -0.065 N 
ATOM     15  H52 UNL     1      -5.452   1.388  15.284  1.00  0.00     0.277 HD
ATOM     16  H51 UNL     1      -6.463   0.341  14.735  1.00  0.00     0.277 HD
BRANCH  14  17
HETATM   17  C15 UNL     1      -5.660  -0.216  16.522  1.00  0.00     0.349 C 
BRANCH  17  18
HETATM   18  C16 UNL     1      -6.925   0.300  17.175  1.00  0.00     0.411 C 
HETATM   19  F1  UNL     1      -7.935  -0.598  16.891  1.00  0.00    -0.169 F 
HETATM   20  F2  UNL     1      -6.731   0.247  18.561  1.00  0.00    -0.169 F 
HETATM   21  F3  UNL     1      -7.224   1.576  16.774  1.00  0.00    -0.169 F 
ENDBRANCH  17  18
ENDBRANCH  14  17
ENDBRANCH  13  14
ENDBRANCH  12  13
BRANCH   5  22
HETATM   22  C3  UNL     1      -4.549   4.371  13.490  1.00  0.00     0.007 C 
HETATM   23  C4  UNL     1      -5.559   5.281  12.815  1.00  0.00     0.083 C 
HETATM   24  C5  UNL     1      -5.791   6.441  13.755  1.00  0.00     0.277 C 
HETATM   25  N3  UNL     1      -6.304   6.046  15.030  1.00  0.00     0.084 N 
HETATM   26  C6  UNL     1      -7.681   6.472  15.228  1.00  0.00     0.309 C 
HETATM   27  C7  UNL     1      -6.261   4.625  15.287  1.00  0.00     0.277 C 
HETATM   28  C8  UNL     1      -4.943   4.000  14.862  1.00  0.00     0.083 C 
ENDBRANCH   5  22
TORSDOF 5
ENDMDL
MODEL 3
REMARK VINA RESULT: -6.935967627      1.580      5.643
REMARK  5 active torsions:
REMARK  status: ('A' for Active; 'I' for Inactive)
REMARK       I    between atoms: C2_4  and  N2_5 
REMARK       I    between atoms: C2_4  and  N4_14 
REMARK    1  A    between atoms: N2_5  and  C3_7 
REMARK    2  A    between atoms: C13_19  and  C14_20 
REMARK    3  A    between atoms: C14_20  and  N5_21 
REMARK    4  A    between atoms: N5_21  and  C15_24 
REMARK    5  A    between atoms: C15_24  and  C16_25 
ROOT
HETATM    1  C1  UNL     1      -4.147   2.603  10.092  1.00  0.00     0.165 C 
HETATM    2  N1  UNL     1      -3.873   2.848  11.445  1.00  0.00    -0.230 N 
ATOM      3  H1  UNL     1      -4.220   3.759  11.745  1.00  0.00     0.177 HD
HETATM    4  C2  UNL     1      -3.323   2.245  12.357  1.00  0.00     0.676 C 
HETATM    5  N2  UNL     1      -2.725   0.978  12.337  1.00  0.00    -0.199 N 
ATOM      6  H2  UNL     1      -1.788   0.943  12.736  1.00  0.00     0.183 HD
HETATM    7  N4  UNL     1      -3.274   2.919  13.645  1.00  0.00    -0.212 N 
HETATM    8  C9  UNL     1      -2.058   3.607  13.984  1.00  0.00     0.141 C 
HETATM    9  C10 UNL     1      -2.244   5.082  14.216  1.00  0.00     0.020 C 
HETATM   10  C11 UNL     1      -3.675   5.334  14.590  1.00  0.00     0.004 C 
HETATM   11  C12 UNL     1      -4.156   4.185  15.451  1.00  0.00     0.027 C 
HETATM   12  C13 UNL     1      -4.358   2.936  14.581  1.00  0.00     0.127 C 
ENDROOT
BRANCH  12  13
HETATM   13  C14 UNL     1      -5.710   3.102  13.924  1.00  0.00     0.258 C 
BRANCH  13  14
HETATM   14  N5  UNL     1      -6.670   2.276  14.629  1.00  0.00    -0.065 N 
ATOM     15  H52 UNL     1      -7.097   2.790  15.400  1.00  0.00     0.277 HD
ATOM     16  H51 UNL     1      -7.500   2.112  14.060  1.00  0.00     0.277 HD
BRANCH  14  17
HETATM   17  C15 UNL     1      -6.107   1.038  15.086  1.00  0.00     0.349 C 
BRANCH  17  18
HETATM   18  C16 UNL     1      -6.695   0.734  16.447  1.00  0.00     0.411 C 
HETATM   19  F1  UNL     1      -5.652   0.386  17.282  1.00  0.00    -0.169 F 
HETATM   20  F2  UNL     1      -7.219   1.931  16.952  1.00  0.00    -0.169 F 
HETATM   21  F3  UNL     1      -7.665  -0.232  16.382  1.00  0.00    -0.169 F 
ENDBRANCH  17  18
ENDBRANCH  14  17
ENDBRANCH  13  14
ENDBRANCH  12  13
BRANCH   5  22
HETATM   22  C3  UNL     1      -3.209  -0.261  11.855  1.00  0.00     0.007 C 
HETATM   23  C4  UNL     1      -2.137  -1.221  11.372  1.00  0.00     0.083 C 
HETATM   24  C5  UNL     1      -2.853  -2.350  10.667  1.00  0.00     0.277 C 
HETATM   25  N3  UNL     1      -3.764  -3.059  11.511  1.00  0.00     0.084 N 
HETATM   26  C6  UNL     1      -3.312  -4.413  11.798  1.00  0.00     0.309 C 
HETATM   27  C7  UNL     1      -4.034  -2.426  12.781  1.00  0.00     0.277 C 
HETATM   28  C8  UNL     1      -4.259  -0.930  12.645  1.00  0.00     0.083 C 
ENDBRANCH   5  22
TORSDOF 5
ENDMDL
MODEL 4
REMARK VINA RESULT: -6.809915911      2.889      6.494
REMARK  5 active torsions:
REMARK  status: ('A' for Active; 'I' for Inactive)
REMARK       I    between atoms: C2_4  and  N2_5 
REMARK       I    between atoms: C2_4  and  N4_14 
REMARK    1  A    between atoms: N2_5  and  C3_7 
REMARK    2  A    between atoms: C13_19  and  C14_20 
REMARK    3  A    between atoms: C14_20  and  N5_21 
REMARK    4  A    between atoms: N5_21  and  C15_24 
REMARK    5  A    between atoms: C15_24  and  C16_25 
ROOT
HETATM    1  C1  UNL     1      -2.975   2.696   9.945  1.00  0.00     0.165 C 
HETATM    2  N1  UNL     1      -3.039   3.009  11.310  1.00  0.00    -0.230 N 
ATOM      3  H1  UNL     1      -3.264   3.992  11.465  1.00  0.00     0.177 HD
HETATM    4  C2  UNL     1      -2.894   2.402  12.363  1.00  0.00     0.676 C 
HETATM    5  N2  UNL     1      -2.582   1.050  12.561  1.00  0.00    -0.199 N 
ATOM      6  H2  UNL     1      -1.817   0.881  13.212  1.00  0.00     0.183 HD
HETATM    7  N4  UNL     1      -3.064   3.171  13.585  1.00  0.00    -0.212 N 
HETATM    8  C9  UNL     1      -1.875   3.652  14.234  1.00  0.00     0.141 C 
HETATM    9  C10 UNL     1      -1.816   5.151  14.350  1.00  0.00     0.020 C 
HETATM   10  C11 UNL     1      -3.213   5.694  14.288  1.00  0.00     0.004 C 
HETATM   11  C12 UNL     1      -4.133   4.737  15.016  1.00  0.00     0.027 C 
HETATM   12  C13 UNL     1      -4.337   3.473  14.171  1.00  0.00     0.127 C 
ENDROOT
BRANCH  12  13
HETATM   13  C14 UNL     1      -5.394   3.822  13.148  1.00  0.00     0.258 C 
BRANCH  13  14
HETATM   14  N5  UNL     1      -6.615   4.172  13.848  1.00  0.00    -0.065 N 
ATOM     15  H52 UNL     1      -7.202   3.350  13.991  1.00  0.00     0.277 HD
ATOM     16  H51 UNL     1      -6.423   4.410  14.821  1.00  0.00     0.277 HD
BRANCH  14  17
HETATM   17  C15 UNL     1      -7.347   5.221  13.197  1.00  0.00     0.349 C 
BRANCH  17  18
HETATM   18  C16 UNL     1      -7.206   6.473  14.035  1.00  0.00     0.411 C 
HETATM   19  F1  UNL     1      -6.104   7.163  13.570  1.00  0.00    -0.169 F 
HETATM   20  F2  UNL     1      -8.317   7.283  13.767  1.00  0.00    -0.169 F 
HETATM   21  F3  UNL     1      -7.125   6.188  15.373  1.00  0.00    -0.169 F 
ENDBRANCH  17  18
ENDBRANCH  14  17
ENDBRANCH  13  14
ENDBRANCH  12  13
BRANCH   5  22
HETATM   22  C3  UNL     1      -3.155  -0.118  12.005  1.00  0.00     0.007 C 
HETATM   23  C4  UNL     1      -2.157  -1.113  11.441  1.00  0.00     0.083 C 
HETATM   24  C5  UNL     1      -2.957  -2.140  10.675  1.00  0.00     0.277 C 
HETATM   25  N3  UNL     1      -3.904  -2.842  11.485  1.00  0.00     0.084 N 
HETATM   26  C6  UNL     1      -3.541  -4.239  11.673  1.00  0.00     0.309 C 
HETATM   27  C7  UNL     1      -4.114  -2.280  12.799  1.00  0.00     0.277 C 
HETATM   28  C8  UNL     1      -4.238  -0.767  12.767  1.00  0.00     0.083 C 
ENDBRANCH   5  22
TORSDOF 5
ENDMDL
MODEL 5
REMARK VINA RESULT: -6.665896628      3.826      5.942
REMARK  5 active torsions:
REMARK  status: ('A' for Active; 'I' for Inactive)
REMARK       I    between atoms: C2_4  and  N2_5 
REMARK       I    between atoms: C2_4  and  N4_14 
REMARK    1  A    between atoms: N2_5  and  C3_7 
REMARK    2  A    between atoms: C13_19  and  C14_20 
REMARK    3  A    between atoms: C14_20  and  N5_21 
REMARK    4  A    between atoms: N5_21  and  C15_24 
REMARK    5  A    between atoms: C15_24  and  C16_25 
ROOT
HETATM    1  C1  UNL     1      -4.310   3.303  10.128  1.00  0.00     0.165 C 
HETATM    2  N1  UNL     1      -4.368   2.910  11.473  1.00  0.00    -0.230 N 
ATOM      3  H1  UNL     1      -5.272   2.504  11.713  1.00  0.00     0.177 HD
HETATM    4  C2  UNL     1      -3.608   2.932  12.432  1.00  0.00     0.676 C 
HETATM    5  N2  UNL     1      -2.292   3.409  12.498  1.00  0.00    -0.199 N 
ATOM      6  H2  UNL     1      -2.107   4.041  13.276  1.00  0.00     0.183 HD
HETATM    7  N4  UNL     1      -4.122   2.392  13.681  1.00  0.00    -0.212 N 
HETATM    8  C9  UNL     1      -4.625   3.330  14.647  1.00  0.00     0.141 C 
HETATM    9  C10 UNL     1      -6.076   3.123  14.988  1.00  0.00     0.020 C 
HETATM   10  C11 UNL     1      -6.443   1.699  14.688  1.00  0.00     0.004 C 
HETATM   11  C12 UNL     1      -5.265   0.815  15.039  1.00  0.00     0.027 C 
HETATM   12  C13 UNL     1      -4.154   0.995  13.996  1.00  0.00     0.127 C 
ENDROOT
BRANCH  12  13
HETATM   13  C14 UNL     1      -4.544   0.129  12.820  1.00  0.00     0.258 C 
BRANCH  13  14
HETATM   14  N5  UNL     1      -3.621  -0.987  12.743  1.00  0.00    -0.065 N 
ATOM     15  H52 UNL     1      -2.758  -0.715  12.273  1.00  0.00     0.277 HD
ATOM     16  H51 UNL     1      -3.243  -1.213  13.664  1.00  0.00     0.277 HD
BRANCH  14  17
HETATM   17  C15 UNL     1      -4.201  -2.146  12.127  1.00  0.00     0.349 C 
BRANCH  17  18
HETATM   18  C16 UNL     1      -3.141  -2.789  11.259  1.00  0.00     0.411 C 
HETATM   19  F1  UNL     1      -3.451  -2.504   9.944  1.00  0.00    -0.169 F 
HETATM   20  F2  UNL     1      -1.930  -2.138  11.526  1.00  0.00    -0.169 F 
HETATM   21  F3  UNL     1      -3.032  -4.134  11.496  1.00  0.00    -0.169 F 
ENDBRANCH  17  18
ENDBRANCH  14  17
ENDBRANCH  13  14
ENDBRANCH  12  13
BRANCH   5  22
HETATM   22  C3  UNL     1      -1.177   3.157  11.664  1.00  0.00     0.007 C 
HETATM   23  C4  UNL     1      -1.142   1.772  11.045  1.00  0.00     0.083 C 
HETATM   24  C5  UNL     1       0.225   1.612  10.420  1.00  0.00     0.277 C 
HETATM   25  N3  UNL     1       0.501   2.580   9.405  1.00  0.00     0.084 N 
HETATM   26  C6  UNL     1       0.557   1.986   8.077  1.00  0.00     0.309 C 
HETATM   27  C7  UNL     1      -0.437   3.675   9.338  1.00  0.00     0.277 C 
HETATM   28  C8  UNL     1      -0.793   4.216  10.712  1.00  0.00     0.083 C 
ENDBRANCH   5  22
TORSDOF 5
ENDMDL
