MODEL 1
REMARK VINA RESULT: -7.697438611      0.000      0.000
REMARK  7 active torsions:
REMARK  status: ('A' for Active; 'I' for Inactive)
REMARK    1  A    between atoms: C1_2  and  C2_3 
REMARK       I    between atoms: C1_2  and  N1_16 
REMARK    2  A    between atoms: C2_3  and  O2_4 
REMARK    3  A    between atoms: O2_4  and  C3_5 
REMARK    4  A    between atoms: C3_5  and  C4_7 
REMARK    5  A    between atoms: C9_12  and  C10_13 
REMARK    6  A    between atoms: N1_16  and  C11_18 
REMARK    7  A    between atoms: C11_18  and  C12_19 
ROOT
HETATM    1  O1  UNL     1      -5.394   0.770  11.769  1.00  0.00    -0.271 OA
HETATM    2  C1  UNL     1      -4.473   0.459  12.552  1.00  0.00     0.241 C 
HETATM    3  N1  UNL     1      -3.302   1.244  12.606  1.00  0.00    -0.358 N 
ATOM      4  H1  UNL     1      -2.549   0.991  13.246  1.00  0.00     0.162 HD
ENDROOT
BRANCH   2   5
HETATM    5  C2  UNL     1      -4.633  -0.732  13.412  1.00  0.00     0.281 C 
BRANCH   5   6
HETATM    6  O2  UNL     1      -3.869  -0.599  14.595  1.00  0.00    -0.312 OA
BRANCH   6   7
HETATM    7  C3  UNL     1      -4.264   0.218  15.638  1.00  0.00     0.264 C 
HETATM    8  O3  UNL     1      -3.484   0.313  16.619  1.00  0.00    -0.265 OA
BRANCH   7   9
HETATM    9  C4  UNL     1      -5.555   0.951  15.596  1.00  0.00     0.100 C 
HETATM   10  C5  UNL     1      -5.291   2.430  15.747  1.00  0.00     0.015 C 
HETATM   11  C6  UNL     1      -6.636   3.118  15.821  1.00  0.00     0.001 C 
HETATM   12  C7  UNL     1      -7.230   2.791  17.167  1.00  0.00     0.001 C 
HETATM   13  C8  UNL     1      -6.872   1.437  17.674  1.00  0.00     0.016 C 
HETATM   14  C9  UNL     1      -6.527   0.439  16.629  1.00  0.00     0.100 C 
BRANCH  14  15
HETATM   15  C10 UNL     1      -5.901  -0.741  17.273  1.00  0.00     0.177 C 
HETATM   16  O4  UNL     1      -5.510  -0.665  18.463  1.00  0.00    -0.648 OA
HETATM   17  O5  UNL     1      -5.715  -1.957  16.631  1.00  0.00    -0.648 OA
ENDBRANCH  14  15
ENDBRANCH   7   9
ENDBRANCH   6   7
ENDBRANCH   5   6
ENDBRANCH   2   5
BRANCH   3  18
HETATM   18  C11 UNL     1      -3.170   2.390  11.768  1.00  0.00     0.132 C 
BRANCH  18  19
HETATM   19  C12 UNL     1      -3.069   3.682  12.532  1.00  0.00    -0.023 C 
HETATM   20  C13 UNL     1      -2.353   4.680  11.650  1.00  0.00     0.015 C 
HETATM   21  C14 UNL     1      -2.228   6.009  12.360  1.00  0.00    -0.013 C 
HETATM   22  C15 UNL     1      -3.625   6.531  12.586  1.00  0.00     0.009 C 
HETATM   23  C19 UNL     1      -1.480   5.772  13.641  1.00  0.00     0.009 C 
HETATM   24  C16 UNL     1      -4.391   5.559  13.432  1.00  0.00    -0.013 C 
HETATM   25  C17 UNL     1      -3.684   5.436  14.761  1.00  0.00     0.009 C 
HETATM   26  C21 UNL     1      -4.484   4.219  12.732  1.00  0.00     0.015 C 
HETATM   27  C18 UNL     1      -2.306   4.884  14.516  1.00  0.00    -0.013 C 
HETATM   28  C20 UNL     1      -2.437   3.529  13.875  1.00  0.00     0.015 C 
ENDBRANCH  18  19
ENDBRANCH   3  18
TORSDOF 7
ENDMDL
MODEL 2
REMARK VINA RESULT: -7.348856256      2.968      4.306
REMARK  7 active torsions:
REMARK  status: ('A' for Active; 'I' for Inactive)
REMARK    1  A    between atoms: C1_2  and  C2_3 
REMARK       I    between atoms: C1_2  and  N1_16 
REMARK    2  A    between atoms: C2_3  and  O2_4 
REMARK    3  A    between atoms: O2_4  and  C3_5 
REMARK    4  A    between atoms: C3_5  and  C4_7 
REMARK    5  A    between atoms: C9_12  and  C10_13 
REMARK    6  A    between atoms: N1_16  and  C11_18 
REMARK    7  A    between atoms: C11_18  and  C12_19 
ROOT
HETATM    1  O1  UNL     1      -2.357   3.006   9.433  1.00  0.00    -0.271 OA
HETATM    2  C1  UNL     1      -2.464   3.593  10.529  1.00  0.00     0.241 C 
HETATM    3  N1  UNL     1      -3.362   4.671  10.664  1.00  0.00    -0.358 N 
ATOM      4  H1  UNL     1      -3.451   5.152  11.560  1.00  0.00     0.162 HD
ENDROOT
BRANCH   2   5
HETATM    5  C2  UNL     1      -1.641   3.138  11.669  1.00  0.00     0.281 C 
BRANCH   5   6
HETATM    6  O2  UNL     1      -2.369   2.237  12.482  1.00  0.00    -0.312 OA
BRANCH   6   7
HETATM    7  C3  UNL     1      -2.998   2.639  13.645  1.00  0.00     0.264 C 
HETATM    8  O3  UNL     1      -2.301   2.679  14.690  1.00  0.00    -0.265 OA
BRANCH   7   9
HETATM    9  C4  UNL     1      -4.437   3.005  13.654  1.00  0.00     0.100 C 
HETATM   10  C5  UNL     1      -4.622   4.268  14.463  1.00  0.00     0.015 C 
HETATM   11  C6  UNL     1      -6.110   4.530  14.545  1.00  0.00     0.001 C 
HETATM   12  C7  UNL     1      -6.692   3.501  15.479  1.00  0.00     0.001 C 
HETATM   13  C8  UNL     1      -6.004   2.182  15.431  1.00  0.00     0.016 C 
HETATM   14  C9  UNL     1      -5.303   1.877  14.157  1.00  0.00     0.100 C 
BRANCH  14  15
HETATM   15  C10 UNL     1      -4.420   0.703  14.358  1.00  0.00     0.177 C 
HETATM   16  O4  UNL     1      -4.027   0.411  15.514  1.00  0.00    -0.648 OA
HETATM   17  O5  UNL     1      -3.988  -0.117  13.325  1.00  0.00    -0.648 OA
ENDBRANCH  14  15
ENDBRANCH   7   9
ENDBRANCH   6   7
ENDBRANCH   5   6
ENDBRANCH   2   5
BRANCH   3  18
HETATM   18  C11 UNL     1      -4.148   5.092   9.551  1.00  0.00     0.132 C 
BRANCH  18  19
HETATM   19  C12 UNL     1      -5.182   6.125   9.904  1.00  0.00    -0.023 C 
HETATM   20  C13 UNL     1      -6.540   5.541   9.585  1.00  0.00     0.015 C 
HETATM   21  C14 UNL     1      -7.629   6.532   9.929  1.00  0.00    -0.013 C 
HETATM   22  C15 UNL     1      -7.576   6.760  11.420  1.00  0.00     0.009 C 
HETATM   23  C19 UNL     1      -7.371   7.783   9.139  1.00  0.00     0.009 C 
HETATM   24  C16 UNL     1      -6.233   7.311  11.793  1.00  0.00    -0.013 C 
HETATM   25  C17 UNL     1      -6.054   8.631  11.081  1.00  0.00     0.009 C 
HETATM   26  C21 UNL     1      -5.143   6.330  11.416  1.00  0.00     0.015 C 
HETATM   27  C18 UNL     1      -6.078   8.377   9.598  1.00  0.00    -0.013 C 
HETATM   28  C20 UNL     1      -4.947   7.447   9.251  1.00  0.00     0.015 C 
ENDBRANCH  18  19
ENDBRANCH   3  18
TORSDOF 7
ENDMDL
MODEL 3
REMARK VINA RESULT: -7.344652867      2.952      4.336
REMARK  7 active torsions:
REMARK  status: ('A' for Active; 'I' for Inactive)
REMARK    1  A    between atoms: C1_2  and  C2_3 
REMARK       I    between atoms: C1_2  and  N1_16 
REMARK    2  A    between atoms: C2_3  and  O2_4 
REMARK    3  A    between atoms: O2_4  and  C3_5 
REMARK    4  A    between atoms: C3_5  and  C4_7 
REMARK    5  A    between atoms: C9_12  and  C10_13 
REMARK    6  A    between atoms: N1_16  and  C11_18 
REMARK    7  A    between atoms: C11_18  and  C12_19 
ROOT
HETATM    1  O1  UNL     1      -2.683   2.693   9.562  1.00  0.00    -0.271 OA
HETATM    2  C1  UNL     1      -2.606   3.453  10.549  1.00  0.00     0.241 C 
HETATM    3  N1  UNL     1      -3.396   4.620  10.599  1.00  0.00    -0.358 N 
ATOM      4  H1  UNL     1      -3.335   5.242  11.405  1.00  0.00     0.162 HD
ENDROOT
BRANCH   2   5
HETATM    5  C2  UNL     1      -1.682   3.109  11.649  1.00  0.00     0.281 C 
BRANCH   5   6
HETATM    6  O2  UNL     1      -2.312   2.247  12.578  1.00  0.00    -0.312 OA
BRANCH   6   7
HETATM    7  C3  UNL     1      -2.945   2.723  13.712  1.00  0.00     0.264 C 
HETATM    8  O3  UNL     1      -2.249   2.836  14.752  1.00  0.00    -0.265 OA
BRANCH   7   9
HETATM    9  C4  UNL     1      -4.386   3.081  13.696  1.00  0.00     0.100 C 
HETATM   10  C5  UNL     1      -4.594   4.334  14.513  1.00  0.00     0.015 C 
HETATM   11  C6  UNL     1      -6.084   4.588  14.569  1.00  0.00     0.001 C 
HETATM   12  C7  UNL     1      -6.679   3.547  15.481  1.00  0.00     0.001 C 
HETATM   13  C8  UNL     1      -5.982   2.231  15.434  1.00  0.00     0.016 C 
HETATM   14  C9  UNL     1      -5.254   1.943  14.171  1.00  0.00     0.100 C 
BRANCH  14  15
HETATM   15  C10 UNL     1      -4.369   0.772  14.378  1.00  0.00     0.177 C 
HETATM   16  O4  UNL     1      -4.057   0.048  13.402  1.00  0.00    -0.648 OA
HETATM   17  O5  UNL     1      -3.848   0.414  15.614  1.00  0.00    -0.648 OA
ENDBRANCH  14  15
ENDBRANCH   7   9
ENDBRANCH   6   7
ENDBRANCH   5   6
ENDBRANCH   2   5
BRANCH   3  18
HETATM   18  C11 UNL     1      -4.282   4.932   9.526  1.00  0.00     0.132 C 
BRANCH  18  19
HETATM   19  C12 UNL     1      -5.304   5.978   9.877  1.00  0.00    -0.023 C 
HETATM   20  C13 UNL     1      -5.188   6.252  11.359  1.00  0.00     0.015 C 
HETATM   21  C14 UNL     1      -6.187   7.309  11.775  1.00  0.00    -0.013 C 
HETATM   22  C15 UNL     1      -5.822   8.582  11.052  1.00  0.00     0.009 C 
HETATM   23  C19 UNL     1      -7.556   6.807  11.415  1.00  0.00     0.009 C 
HETATM   24  C16 UNL     1      -5.891   8.354   9.573  1.00  0.00    -0.013 C 
HETATM   25  C17 UNL     1      -7.309   7.972   9.223  1.00  0.00     0.009 C 
HETATM   26  C21 UNL     1      -4.913   7.271   9.166  1.00  0.00     0.015 C 
HETATM   27  C18 UNL     1      -7.642   6.684   9.927  1.00  0.00    -0.013 C 
HETATM   28  C20 UNL     1      -6.689   5.619   9.455  1.00  0.00     0.015 C 
ENDBRANCH  18  19
ENDBRANCH   3  18
TORSDOF 7
ENDMDL
MODEL 4
REMARK VINA RESULT: -7.333644092      2.960      4.122
REMARK  7 active torsions:
REMARK  status: ('A' for Active; 'I' for Inactive)
REMARK    1  A    between atoms: C1_2  and  C2_3 
REMARK       I    between atoms: C1_2  and  N1_16 
REMARK    2  A    between atoms: C2_3  and  O2_4 
REMARK    3  A    between atoms: O2_4  and  C3_5 
REMARK    4  A    between atoms: C3_5  and  C4_7 
REMARK    5  A    between atoms: C9_12  and  C10_13 
REMARK    6  A    between atoms: N1_16  and  C11_18 
REMARK    7  A    between atoms: C11_18  and  C12_19 
ROOT
HETATM    1  O1  UNL     1      -2.318   2.990   9.446  1.00  0.00    -0.271 OA
HETATM    2  C1  UNL     1      -2.371   3.586  10.542  1.00  0.00     0.241 C 
HETATM    3  N1  UNL     1      -3.191   4.723  10.685  1.00  0.00    -0.358 N 
ATOM      4  H1  UNL     1      -3.235   5.211  11.580  1.00  0.00     0.162 HD
ENDROOT
BRANCH   2   5
HETATM    5  C2  UNL     1      -1.564   3.080  11.672  1.00  0.00     0.281 C 
BRANCH   5   6
HETATM    6  O2  UNL     1      -2.340   2.230  12.496  1.00  0.00    -0.312 OA
BRANCH   6   7
HETATM    7  C3  UNL     1      -2.955   2.683  13.648  1.00  0.00     0.264 C 
HETATM    8  O3  UNL     1      -2.246   2.765  14.683  1.00  0.00    -0.265 OA
BRANCH   7   9
HETATM    9  C4  UNL     1      -4.393   3.055  13.658  1.00  0.00     0.100 C 
HETATM   10  C5  UNL     1      -4.574   4.313  14.473  1.00  0.00     0.015 C 
HETATM   11  C6  UNL     1      -6.060   4.581  14.555  1.00  0.00     0.001 C 
HETATM   12  C7  UNL     1      -6.648   3.549  15.483  1.00  0.00     0.001 C 
HETATM   13  C8  UNL     1      -5.964   2.227  15.428  1.00  0.00     0.016 C 
HETATM   14  C9  UNL     1      -5.263   1.927  14.153  1.00  0.00     0.100 C 
BRANCH  14  15
HETATM   15  C10 UNL     1      -4.385   0.749  14.349  1.00  0.00     0.177 C 
HETATM   16  O4  UNL     1      -3.970   0.466  15.499  1.00  0.00    -0.648 OA
HETATM   17  O5  UNL     1      -3.980  -0.086  13.316  1.00  0.00    -0.648 OA
ENDBRANCH  14  15
ENDBRANCH   7   9
ENDBRANCH   6   7
ENDBRANCH   5   6
ENDBRANCH   2   5
BRANCH   3  18
HETATM   18  C11 UNL     1      -3.961   5.193   9.580  1.00  0.00     0.132 C 
BRANCH  18  19
HETATM   19  C12 UNL     1      -5.065   6.136   9.977  1.00  0.00    -0.023 C 
HETATM   20  C13 UNL     1      -4.901   7.400   9.165  1.00  0.00     0.015 C 
HETATM   21  C14 UNL     1      -5.991   8.389   9.511  1.00  0.00    -0.013 C 
HETATM   22  C15 UNL     1      -7.306   7.766   9.112  1.00  0.00     0.009 C 
HETATM   23  C19 UNL     1      -5.902   8.667  10.984  1.00  0.00     0.009 C 
HETATM   24  C16 UNL     1      -7.503   6.487   9.870  1.00  0.00    -0.013 C 
HETATM   25  C17 UNL     1      -7.534   6.815  11.343  1.00  0.00     0.009 C 
HETATM   26  C21 UNL     1      -6.390   5.513   9.546  1.00  0.00     0.015 C 
HETATM   27  C18 UNL     1      -6.203   7.405  11.726  1.00  0.00    -0.013 C 
HETATM   28  C20 UNL     1      -5.129   6.389  11.446  1.00  0.00     0.015 C 
ENDBRANCH  18  19
ENDBRANCH   3  18
TORSDOF 7
ENDMDL
MODEL 5
REMARK VINA RESULT: -7.293470833      2.541      3.638
REMARK  7 active torsions:
REMARK  status: ('A' for Active; 'I' for Inactive)
REMARK    1  A    between atoms: C1_2  and  C2_3 
REMARK       I    between atoms: C1_2  and  N1_16 
REMARK    2  A    between atoms: C2_3  and  O2_4 
REMARK    3  A    between atoms: O2_4  and  C3_5 
REMARK    4  A    between atoms: C3_5  and  C4_7 
REMARK    5  A    between atoms: C9_12  and  C10_13 
REMARK    6  A    between atoms: N1_16  and  C11_18 
REMARK    7  A    between atoms: C11_18  and  C12_19 
ROOT
HETATM    1  O1  UNL     1      -4.541   1.577  10.426  1.00  0.00    -0.271 OA
HETATM    2  C1  UNL     1      -4.197   2.287  11.394  1.00  0.00     0.241 C 
HETATM    3  N1  UNL     1      -4.129   3.688  11.249  1.00  0.00    -0.358 N 
ATOM      4  H1  UNL     1      -3.848   4.269  12.039  1.00  0.00     0.162 HD
ENDROOT
BRANCH   2   5
HETATM    5  C2  UNL     1      -3.867   1.636  12.679  1.00  0.00     0.281 C 
BRANCH   5   6
HETATM    6  O2  UNL     1      -5.027   1.490  13.476  1.00  0.00    -0.312 OA
BRANCH   6   7
HETATM    7  C3  UNL     1      -5.007   1.672  14.846  1.00  0.00     0.264 C 
HETATM    8  O3  UNL     1      -3.980   2.203  15.339  1.00  0.00    -0.265 OA
BRANCH   7   9
HETATM    9  C4  UNL     1      -6.152   1.256  15.696  1.00  0.00     0.100 C 
HETATM   10  C5  UNL     1      -6.462   2.356  16.683  1.00  0.00     0.015 C 
HETATM   11  C6  UNL     1      -7.548   1.838  17.601  1.00  0.00     0.001 C 
HETATM   12  C7  UNL     1      -6.915   0.810  18.502  1.00  0.00     0.001 C 
HETATM   13  C8  UNL     1      -5.822   0.031  17.858  1.00  0.00     0.016 C 
HETATM   14  C9  UNL     1      -5.897  -0.064  16.378  1.00  0.00     0.100 C 
BRANCH  14  15
HETATM   15  C10 UNL     1      -4.608  -0.584  15.860  1.00  0.00     0.177 C 
HETATM   16  O4  UNL     1      -3.563  -0.447  16.540  1.00  0.00    -0.648 OA
HETATM   17  O5  UNL     1      -4.478  -1.230  14.638  1.00  0.00    -0.648 OA
ENDBRANCH  14  15
ENDBRANCH   7   9
ENDBRANCH   6   7
ENDBRANCH   5   6
ENDBRANCH   2   5
BRANCH   3  18
HETATM   18  C11 UNL     1      -4.453   4.294  10.000  1.00  0.00     0.132 C 
BRANCH  18  19
HETATM   19  C12 UNL     1      -5.321   5.515  10.134  1.00  0.00    -0.023 C 
HETATM   20  C13 UNL     1      -5.456   5.822  11.608  1.00  0.00     0.015 C 
HETATM   21  C14 UNL     1      -6.313   7.051  11.810  1.00  0.00    -0.013 C 
HETATM   22  C15 UNL     1      -5.590   8.212  11.174  1.00  0.00     0.009 C 
HETATM   23  C19 UNL     1      -7.650   6.782  11.180  1.00  0.00     0.009 C 
HETATM   24  C16 UNL     1      -5.402   7.943   9.712  1.00  0.00    -0.013 C 
HETATM   25  C17 UNL     1      -6.766   7.802   9.082  1.00  0.00     0.009 C 
HETATM   26  C21 UNL     1      -4.572   6.692   9.514  1.00  0.00     0.015 C 
HETATM   27  C18 UNL     1      -7.457   6.620   9.706  1.00  0.00    -0.013 C 
HETATM   28  C20 UNL     1      -6.636   5.387   9.440  1.00  0.00     0.015 C 
ENDBRANCH  18  19
ENDBRANCH   3  18
TORSDOF 7
ENDMDL
