MODEL 1
REMARK VINA RESULT: -6.895766445      0.000      0.000
REMARK  9 active torsions:
REMARK  status: ('A' for Active; 'I' for Inactive)
REMARK    1  A    between atoms: C3_3  and  C4_4 
REMARK    2  A    between atoms: C3_3  and  C10_10 
REMARK    3  A    between atoms: C4_4  and  C5_5 
REMARK    4  A    between atoms: C10_10  and  N1_11 
REMARK    5  A    between atoms: C10_10  and  C16_20 
REMARK       I    between atoms: N1_11  and  C11_13 
REMARK    6  A    between atoms: C11_13  and  O2_15 
REMARK    7  A    between atoms: O2_15  and  C12_16 
REMARK       I    between atoms: C16_20  and  N2_22 
REMARK    8  A    between atoms: C20_26  and  C21_27 
REMARK    9  A    between atoms: C21_27  and  O4_28 
ROOT
HETATM    1  C1  UNL     1      -0.189   6.351  12.738  1.00  0.00     0.097 C 
HETATM    2  C2  UNL     1      -1.149   5.831  13.308  1.00  0.00    -0.180 C 
HETATM    3  C3  UNL     1      -2.261   5.176  13.974  1.00  0.00     0.084 C 
ENDROOT
BRANCH   3   4
HETATM    4  C4  UNL     1      -3.490   5.981  13.902  1.00  0.00     0.023 C 
BRANCH   4   5
HETATM    5  C5  UNL     1      -4.337   5.875  12.687  1.00  0.00    -0.013 C 
HETATM    6  C6  UNL     1      -4.309   7.287  12.046  1.00  0.00     0.005 C 
HETATM    7  C7  UNL     1      -5.463   7.278  11.074  1.00  0.00     0.000 C 
HETATM    8  C8  UNL     1      -6.485   6.398  11.716  1.00  0.00     0.000 C 
HETATM    9  C9  UNL     1      -5.808   5.710  12.901  1.00  0.00     0.005 C 
ENDBRANCH   4   5
ENDBRANCH   3   4
BRANCH   3  10
HETATM   10  C10 UNL     1      -2.417   3.783  13.388  1.00  0.00     0.193 C 
BRANCH  10  11
HETATM   11  N1  UNL     1      -1.123   3.299  12.921  1.00  0.00    -0.322 N 
HETATM   12  C11 UNL     1      -0.910   2.776  11.637  1.00  0.00     0.362 C 
HETATM   13  O1  UNL     1      -1.897   2.726  10.848  1.00  0.00    -0.238 OA
ATOM     14  H1  UNL     1      -0.331   3.342  13.562  1.00  0.00     0.165 HD
BRANCH  12  15
HETATM   15  O2  UNL     1       0.301   2.313  11.172  1.00  0.00    -0.294 OA
BRANCH  15  16
HETATM   16  C12 UNL     1       1.259   3.084  10.509  1.00  0.00     0.061 C 
HETATM   17  C13 UNL     1       0.695   4.314   9.859  1.00  0.00     0.046 C 
HETATM   18  C14 UNL     1       2.272   3.539  11.558  1.00  0.00     0.046 C 
HETATM   19  C15 UNL     1       2.031   2.310   9.465  1.00  0.00     0.046 C 
ENDBRANCH  15  16
ENDBRANCH  12  15
ENDBRANCH  10  11
BRANCH  10  20
HETATM   20  C16 UNL     1      -2.924   2.780  14.327  1.00  0.00     0.244 C 
HETATM   21  O3  UNL     1      -2.358   2.796  15.481  1.00  0.00    -0.271 OA
HETATM   22  N2  UNL     1      -3.951   1.845  14.040  1.00  0.00    -0.344 N 
HETATM   23  C17 UNL     1      -4.613   1.735  12.749  1.00  0.00     0.126 C 
HETATM   24  C20 UNL     1      -4.602   0.825  14.793  1.00  0.00     0.111 C 
HETATM   25  C18 UNL     1      -4.620   0.215  12.539  1.00  0.00     0.022 C 
HETATM   26  C19 UNL     1      -4.342  -0.387  13.925  1.00  0.00     0.029 C 
BRANCH  24  27
HETATM   27  C21 UNL     1      -4.302   0.680  16.216  1.00  0.00     0.189 C 
BRANCH  27  28
HETATM   28  O4  UNL     1      -3.826  -0.592  16.485  1.00  0.00    -0.399 OA
ATOM     29  H4  UNL     1      -3.988  -0.824  17.392  1.00  0.00     0.209 HD
ENDBRANCH  27  28
ENDBRANCH  24  27
ENDBRANCH  10  20
ENDBRANCH   3  10
TORSDOF 9
ENDMDL
MODEL 2
REMARK VINA RESULT: -6.888121677      1.474      2.739
REMARK  9 active torsions:
REMARK  status: ('A' for Active; 'I' for Inactive)
REMARK    1  A    between atoms: C3_3  and  C4_4 
REMARK    2  A    between atoms: C3_3  and  C10_10 
REMARK    3  A    between atoms: C4_4  and  C5_5 
REMARK    4  A    between atoms: C10_10  and  N1_11 
REMARK    5  A    between atoms: C10_10  and  C16_20 
REMARK       I    between atoms: N1_11  and  C11_13 
REMARK    6  A    between atoms: C11_13  and  O2_15 
REMARK    7  A    between atoms: O2_15  and  C12_16 
REMARK       I    between atoms: C16_20  and  N2_22 
REMARK    8  A    between atoms: C20_26  and  C21_27 
REMARK    9  A    between atoms: C21_27  and  O4_28 
ROOT
HETATM    1  C1  UNL     1      -5.693   5.019  13.696  1.00  0.00     0.097 C 
HETATM    2  C2  UNL     1      -4.472   4.998  13.540  1.00  0.00    -0.180 C 
HETATM    3  C3  UNL     1      -3.037   4.936  13.327  1.00  0.00     0.084 C 
ENDROOT
BRANCH   3   4
HETATM    4  C4  UNL     1      -2.293   5.530  14.449  1.00  0.00     0.023 C 
BRANCH   4   5
HETATM    5  C5  UNL     1      -2.516   6.962  14.769  1.00  0.00    -0.013 C 
HETATM    6  C6  UNL     1      -1.906   7.746  13.578  1.00  0.00     0.005 C 
HETATM    7  C7  UNL     1      -1.775   9.159  14.089  1.00  0.00     0.000 C 
HETATM    8  C8  UNL     1      -1.488   9.003  15.547  1.00  0.00     0.000 C 
HETATM    9  C9  UNL     1      -1.720   7.534  15.899  1.00  0.00     0.005 C 
ENDBRANCH   4   5
ENDBRANCH   3   4
BRANCH   3  10
HETATM   10  C10 UNL     1      -2.656   3.492  13.046  1.00  0.00     0.193 C 
BRANCH  10  11
HETATM   11  N1  UNL     1      -1.204   3.371  12.980  1.00  0.00    -0.322 N 
HETATM   12  C11 UNL     1      -0.501   3.139  11.789  1.00  0.00     0.362 C 
HETATM   13  O1  UNL     1      -1.168   3.031  10.720  1.00  0.00    -0.238 OA
ATOM     14  H1  UNL     1      -0.672   3.460  13.845  1.00  0.00     0.165 HD
BRANCH  12  15
HETATM   15  O2  UNL     1       0.869   3.020  11.700  1.00  0.00    -0.294 OA
BRANCH  15  16
HETATM   16  C12 UNL     1       1.757   4.075  11.478  1.00  0.00     0.061 C 
HETATM   17  C13 UNL     1       3.062   3.926  12.206  1.00  0.00     0.046 C 
HETATM   18  C14 UNL     1       2.064   4.095   9.981  1.00  0.00     0.046 C 
HETATM   19  C15 UNL     1       1.178   5.428  11.822  1.00  0.00     0.046 C 
ENDBRANCH  15  16
ENDBRANCH  12  15
ENDBRANCH  10  11
BRANCH  10  20
HETATM   20  C16 UNL     1      -3.110   2.535  14.057  1.00  0.00     0.244 C 
HETATM   21  O3  UNL     1      -2.558   2.675  15.210  1.00  0.00    -0.271 OA
HETATM   22  N2  UNL     1      -4.073   1.517  13.836  1.00  0.00    -0.344 N 
HETATM   23  C17 UNL     1      -4.714   1.268  12.554  1.00  0.00     0.126 C 
HETATM   24  C20 UNL     1      -4.667   0.520  14.662  1.00  0.00     0.111 C 
HETATM   25  C18 UNL     1      -4.623  -0.261  12.462  1.00  0.00     0.022 C 
HETATM   26  C19 UNL     1      -4.324  -0.737  13.892  1.00  0.00     0.029 C 
BRANCH  24  27
HETATM   27  C21 UNL     1      -4.374   0.503  16.094  1.00  0.00     0.189 C 
BRANCH  27  28
HETATM   28  O4  UNL     1      -3.761  -0.687  16.450  1.00  0.00    -0.399 OA
ATOM     29  H4  UNL     1      -2.824  -0.561  16.553  1.00  0.00     0.209 HD
ENDBRANCH  27  28
ENDBRANCH  24  27
ENDBRANCH  10  20
ENDBRANCH   3  10
TORSDOF 9
ENDMDL
MODEL 3
REMARK VINA RESULT: -6.715176200      1.041      1.363
REMARK  9 active torsions:
REMARK  status: ('A' for Active; 'I' for Inactive)
REMARK    1  A    between atoms: C3_3  and  C4_4 
REMARK    2  A    between atoms: C3_3  and  C10_10 
REMARK    3  A    between atoms: C4_4  and  C5_5 
REMARK    4  A    between atoms: C10_10  and  N1_11 
REMARK    5  A    between atoms: C10_10  and  C16_20 
REMARK       I    between atoms: N1_11  and  C11_13 
REMARK    6  A    between atoms: C11_13  and  O2_15 
REMARK    7  A    between atoms: O2_15  and  C12_16 
REMARK       I    between atoms: C16_20  and  N2_22 
REMARK    8  A    between atoms: C20_26  and  C21_27 
REMARK    9  A    between atoms: C21_27  and  O4_28 
ROOT
HETATM    1  C1  UNL     1      -2.152   6.397  14.864  1.00  0.00     0.097 C 
HETATM    2  C2  UNL     1      -2.822   5.786  14.031  1.00  0.00    -0.180 C 
HETATM    3  C3  UNL     1      -3.601   5.025  13.070  1.00  0.00     0.084 C 
ENDROOT
BRANCH   3   4
HETATM    4  C4  UNL     1      -3.758   5.749  11.800  1.00  0.00     0.023 C 
BRANCH   4   5
HETATM    5  C5  UNL     1      -5.128   6.103  11.350  1.00  0.00    -0.013 C 
HETATM    6  C6  UNL     1      -5.155   7.654  11.306  1.00  0.00     0.005 C 
HETATM    7  C7  UNL     1      -6.622   8.000  11.246  1.00  0.00     0.000 C 
HETATM    8  C8  UNL     1      -7.291   6.925  12.040  1.00  0.00     0.000 C 
HETATM    9  C9  UNL     1      -6.244   5.846  12.313  1.00  0.00     0.005 C 
ENDBRANCH   4   5
ENDBRANCH   3   4
BRANCH   3  10
HETATM   10  C10 UNL     1      -2.959   3.657  12.909  1.00  0.00     0.193 C 
BRANCH  10  11
HETATM   11  N1  UNL     1      -1.508   3.788  12.940  1.00  0.00    -0.322 N 
HETATM   12  C11 UNL     1      -0.679   3.480  11.851  1.00  0.00     0.362 C 
HETATM   13  O1  UNL     1      -1.229   3.069  10.789  1.00  0.00    -0.238 OA
ATOM     14  H1  UNL     1      -1.071   4.121  13.799  1.00  0.00     0.165 HD
BRANCH  12  15
HETATM   15  O2  UNL     1       0.693   3.595  11.855  1.00  0.00    -0.294 OA
BRANCH  15  16
HETATM   16  C12 UNL     1       1.409   4.727  11.456  1.00  0.00     0.061 C 
HETATM   17  C13 UNL     1       0.670   6.015  11.681  1.00  0.00     0.046 C 
HETATM   18  C14 UNL     1       2.682   4.772  12.300  1.00  0.00     0.046 C 
HETATM   19  C15 UNL     1       1.846   4.679  10.010  1.00  0.00     0.046 C 
ENDBRANCH  15  16
ENDBRANCH  12  15
ENDBRANCH  10  11
BRANCH  10  20
HETATM   20  C16 UNL     1      -3.314   2.691  13.951  1.00  0.00     0.244 C 
HETATM   21  O3  UNL     1      -2.752   2.903  15.088  1.00  0.00    -0.271 OA
HETATM   22  N2  UNL     1      -4.197   1.595  13.776  1.00  0.00    -0.344 N 
HETATM   23  C17 UNL     1      -4.843   1.265  12.514  1.00  0.00     0.126 C 
HETATM   24  C20 UNL     1      -4.693   0.574  14.637  1.00  0.00     0.111 C 
HETATM   25  C18 UNL     1      -4.632  -0.254  12.454  1.00  0.00     0.022 C 
HETATM   26  C19 UNL     1      -4.266  -0.669  13.888  1.00  0.00     0.029 C 
BRANCH  24  27
HETATM   27  C21 UNL     1      -4.370   0.616  16.061  1.00  0.00     0.189 C 
BRANCH  27  28
HETATM   28  O4  UNL     1      -3.762  -0.564  16.456  1.00  0.00    -0.399 OA
ATOM     29  H4  UNL     1      -4.346  -1.072  17.008  1.00  0.00     0.209 HD
ENDBRANCH  27  28
ENDBRANCH  24  27
ENDBRANCH  10  20
ENDBRANCH   3  10
TORSDOF 9
ENDMDL
MODEL 4
REMARK VINA RESULT: -6.523600378      1.603      2.671
REMARK  9 active torsions:
REMARK  status: ('A' for Active; 'I' for Inactive)
REMARK    1  A    between atoms: C3_3  and  C4_4 
REMARK    2  A    between atoms: C3_3  and  C10_10 
REMARK    3  A    between atoms: C4_4  and  C5_5 
REMARK    4  A    between atoms: C10_10  and  N1_11 
REMARK    5  A    between atoms: C10_10  and  C16_20 
REMARK       I    between atoms: N1_11  and  C11_13 
REMARK    6  A    between atoms: C11_13  and  O2_15 
REMARK    7  A    between atoms: O2_15  and  C12_16 
REMARK       I    between atoms: C16_20  and  N2_22 
REMARK    8  A    between atoms: C20_26  and  C21_27 
REMARK    9  A    between atoms: C21_27  and  O4_28 
ROOT
HETATM    1  C1  UNL     1      -3.456   4.681   9.501  1.00  0.00     0.097 C 
HETATM    2  C2  UNL     1      -2.989   4.671  10.641  1.00  0.00    -0.180 C 
HETATM    3  C3  UNL     1      -2.411   4.623  11.972  1.00  0.00     0.084 C 
ENDROOT
BRANCH   3   4
HETATM    4  C4  UNL     1      -3.317   5.193  12.981  1.00  0.00     0.023 C 
BRANCH   4   5
HETATM    5  C5  UNL     1      -2.912   6.443  13.672  1.00  0.00    -0.013 C 
HETATM    6  C6  UNL     1      -1.385   6.567  13.430  1.00  0.00     0.005 C 
HETATM    7  C7  UNL     1      -0.928   7.584  14.446  1.00  0.00     0.000 C 
HETATM    8  C8  UNL     1      -1.827   7.369  15.620  1.00  0.00     0.000 C 
HETATM    9  C9  UNL     1      -2.944   6.429  15.168  1.00  0.00     0.005 C 
ENDBRANCH   4   5
ENDBRANCH   3   4
BRANCH   3  10
HETATM   10  C10 UNL     1      -2.006   3.189  12.267  1.00  0.00     0.193 C 
BRANCH  10  11
HETATM   11  N1  UNL     1      -0.571   3.125  12.517  1.00  0.00    -0.322 N 
HETATM   12  C11 UNL     1       0.380   2.881  11.515  1.00  0.00     0.362 C 
HETATM   13  O1  UNL     1      -0.038   2.710  10.334  1.00  0.00    -0.238 OA
ATOM     14  H1  UNL     1      -0.241   3.264  13.472  1.00  0.00     0.165 HD
BRANCH  12  15
HETATM   15  O2  UNL     1       1.739   2.816  11.726  1.00  0.00    -0.294 OA
BRANCH  15  16
HETATM   16  C12 UNL     1       2.622   3.895  11.637  1.00  0.00     0.061 C 
HETATM   17  C13 UNL     1       3.712   3.865  12.669  1.00  0.00     0.046 C 
HETATM   18  C14 UNL     1       3.285   3.820  10.263  1.00  0.00     0.046 C 
HETATM   19  C15 UNL     1       1.934   5.238  11.717  1.00  0.00     0.046 C 
ENDBRANCH  15  16
ENDBRANCH  12  15
ENDBRANCH  10  11
BRANCH  10  20
HETATM   20  C16 UNL     1      -2.661   2.598  13.436  1.00  0.00     0.244 C 
HETATM   21  O3  UNL     1      -2.143   2.935  14.564  1.00  0.00    -0.271 OA
HETATM   22  N2  UNL     1      -3.774   1.721  13.386  1.00  0.00    -0.344 N 
HETATM   23  C17 UNL     1      -4.393   1.261  12.152  1.00  0.00     0.126 C 
HETATM   24  C20 UNL     1      -4.566   1.068  14.375  1.00  0.00     0.111 C 
HETATM   25  C18 UNL     1      -4.563  -0.237  12.438  1.00  0.00     0.022 C 
HETATM   26  C19 UNL     1      -4.411  -0.379  13.960  1.00  0.00     0.029 C 
BRANCH  24  27
HETATM   27  C21 UNL     1      -4.343   1.365  15.787  1.00  0.00     0.189 C 
BRANCH  27  28
HETATM   28  O4  UNL     1      -3.474   0.442  16.347  1.00  0.00    -0.399 OA
ATOM     29  H4  UNL     1      -3.958  -0.277  16.735  1.00  0.00     0.209 HD
ENDBRANCH  27  28
ENDBRANCH  24  27
ENDBRANCH  10  20
ENDBRANCH   3  10
TORSDOF 9
ENDMDL
MODEL 5
REMARK VINA RESULT: -6.453547534      3.346      6.091
REMARK  9 active torsions:
REMARK  status: ('A' for Active; 'I' for Inactive)
REMARK    1  A    between atoms: C3_3  and  C4_4 
REMARK    2  A    between atoms: C3_3  and  C10_10 
REMARK    3  A    between atoms: C4_4  and  C5_5 
REMARK    4  A    between atoms: C10_10  and  N1_11 
REMARK    5  A    between atoms: C10_10  and  C16_20 
REMARK       I    between atoms: N1_11  and  C11_13 
REMARK    6  A    between atoms: C11_13  and  O2_15 
REMARK    7  A    between atoms: O2_15  and  C12_16 
REMARK       I    between atoms: C16_20  and  N2_22 
REMARK    8  A    between atoms: C20_26  and  C21_27 
REMARK    9  A    between atoms: C21_27  and  O4_28 
ROOT
HETATM    1  C1  UNL     1      -4.009   9.228  11.321  1.00  0.00     0.097 C 
HETATM    2  C2  UNL     1      -3.771   8.035  11.512  1.00  0.00    -0.180 C 
HETATM    3  C3  UNL     1      -3.533   6.617  11.720  1.00  0.00     0.084 C 
ENDROOT
BRANCH   3   4
HETATM    4  C4  UNL     1      -2.533   6.381  12.772  1.00  0.00     0.023 C 
BRANCH   4   5
HETATM    5  C5  UNL     1      -2.381   7.394  13.846  1.00  0.00    -0.013 C 
HETATM    6  C6  UNL     1      -0.878   7.778  13.836  1.00  0.00     0.005 C 
HETATM    7  C7  UNL     1      -0.662   8.478  15.155  1.00  0.00     0.000 C 
HETATM    8  C8  UNL     1      -1.602   7.797  16.096  1.00  0.00     0.000 C 
HETATM    9  C9  UNL     1      -2.521   6.912  15.256  1.00  0.00     0.005 C 
ENDBRANCH   4   5
ENDBRANCH   3   4
BRANCH   3  10
HETATM   10  C10 UNL     1      -4.867   5.943  11.992  1.00  0.00     0.193 C 
BRANCH  10  11
HETATM   11  N1  UNL     1      -5.754   6.130  10.851  1.00  0.00    -0.322 N 
HETATM   12  C11 UNL     1      -7.058   6.635  10.958  1.00  0.00     0.362 C 
HETATM   13  O1  UNL     1      -7.478   6.944  12.110  1.00  0.00    -0.238 OA
ATOM     14  H1  UNL     1      -5.409   5.879   9.925  1.00  0.00     0.165 HD
BRANCH  12  15
HETATM   15  O2  UNL     1      -7.915   6.821   9.896  1.00  0.00    -0.294 OA
BRANCH  15  16
HETATM   16  C12 UNL     1      -7.675   7.656   8.802  1.00  0.00     0.061 C 
HETATM   17  C13 UNL     1      -6.743   7.062   7.787  1.00  0.00     0.046 C 
HETATM   18  C14 UNL     1      -9.019   7.890   8.114  1.00  0.00     0.046 C 
HETATM   19  C15 UNL     1      -7.143   9.015   9.193  1.00  0.00     0.046 C 
ENDBRANCH  15  16
ENDBRANCH  12  15
ENDBRANCH  10  11
BRANCH  10  20
HETATM   20  C16 UNL     1      -4.783   4.499  12.225  1.00  0.00     0.244 C 
HETATM   21  O3  UNL     1      -4.590   3.799  11.165  1.00  0.00    -0.271 OA
HETATM   22  N2  UNL     1      -4.900   3.874  13.493  1.00  0.00    -0.344 N 
HETATM   23  C17 UNL     1      -5.157   4.589  14.733  1.00  0.00     0.126 C 
HETATM   24  C20 UNL     1      -4.824   2.523  13.942  1.00  0.00     0.111 C 
HETATM   25  C18 UNL     1      -6.239   3.709  15.373  1.00  0.00     0.022 C 
HETATM   26  C19 UNL     1      -6.167   2.370  14.624  1.00  0.00     0.029 C 
BRANCH  24  27
HETATM   27  C21 UNL     1      -4.453   1.471  12.998  1.00  0.00     0.189 C 
BRANCH  27  28
HETATM   28  O4  UNL     1      -5.530   1.135  12.196  1.00  0.00    -0.399 OA
ATOM     29  H4  UNL     1      -5.231   0.742  11.384  1.00  0.00     0.209 HD
ENDBRANCH  27  28
ENDBRANCH  24  27
ENDBRANCH  10  20
ENDBRANCH   3  10
TORSDOF 9
ENDMDL
