MODEL 1
REMARK VINA RESULT: -8.404571321      0.000      0.000
REMARK  7 active torsions:
REMARK  status: ('A' for Active; 'I' for Inactive)
REMARK    1  A    between atoms: N1_2  and  C2_4 
REMARK    2  A    between atoms: C3_7  and  C4_8 
REMARK    3  A    between atoms: C7_13  and  C8_14 
REMARK    4  A    between atoms: C15_26  and  N7_27 
REMARK    5  A    between atoms: N7_27  and  C16_29 
REMARK    6  A    between atoms: C16_29  and  N8_31 
REMARK    7  A    between atoms: C18_36  and  C19_37 
ROOT
HETATM    1  C4  UNL     1     -11.182  24.533  27.736  1.00  0.00     0.105 A 
HETATM    2  N3  UNL     1     -12.359  24.094  28.273  1.00  0.00    -0.349 N 
ATOM      3  H3  UNL     1     -12.735  23.207  27.937  1.00  0.00     0.166 HD
HETATM    4  C5  UNL     1     -13.046  24.745  29.204  1.00  0.00     0.060 A 
HETATM    5  C6  UNL     1     -14.237  24.253  29.715  1.00  0.00     0.044 A 
HETATM    6  C7  UNL     1     -14.942  24.932  30.676  1.00  0.00    -0.021 A 
HETATM    7  C12 UNL     1     -14.445  26.125  31.136  1.00  0.00     0.014 A 
HETATM    8  C13 UNL     1     -13.261  26.611  30.626  1.00  0.00     0.033 A 
HETATM    9  C14 UNL     1     -12.544  25.935  29.658  1.00  0.00     0.060 A 
HETATM   10  N6  UNL     1     -11.393  26.390  29.151  1.00  0.00    -0.339 N 
ATOM     11  H6  UNL     1     -11.025  27.277  29.495  1.00  0.00     0.167 HD
HETATM   12  C15 UNL     1     -10.683  25.716  28.187  1.00  0.00     0.137 A 
ENDROOT
BRANCH  12  13
HETATM   13  N7  UNL     1      -9.620  26.217  27.774  1.00  0.00    -0.317 N 
ATOM     14  H7  UNL     1      -8.898  25.529  27.559  1.00  0.00     0.170 HD
BRANCH  13  15
HETATM   15  C16 UNL     1      -9.223  27.533  27.549  1.00  0.00     0.179 C 
HETATM   16  S1  UNL     1      -9.795  28.239  26.168  1.00  0.00    -0.040 SA
BRANCH  15  17
HETATM   17  N8  UNL     1      -8.380  28.294  28.366  1.00  0.00    -0.313 N 
HETATM   18  C17 UNL     1      -8.798  29.022  29.352  1.00  0.00     0.151 A 
HETATM   19  N9  UNL     1     -10.029  29.224  29.809  1.00  0.00    -0.331 N 
HETATM   20  S2  UNL     1      -7.842  29.995  30.418  1.00  0.00    -0.063 SA
HETATM   21  C18 UNL     1     -10.207  30.018  30.836  1.00  0.00     0.118 A 
ATOM     22  H9  UNL     1     -10.826  28.767  29.366  1.00  0.00     0.168 HD
HETATM   23  C20 UNL     1      -9.099  30.603  31.389  1.00  0.00     0.090 A 
ATOM     24  H8  UNL     1      -7.378  28.275  28.174  1.00  0.00     0.170 HD
BRANCH  21  25
HETATM   25  C19 UNL     1     -11.551  30.306  31.424  1.00  0.00     0.227 C 
HETATM   26  O1  UNL     1     -12.572  30.447  30.709  1.00  0.00    -0.643 OA
HETATM   27  O2  UNL     1     -11.747  30.432  32.785  1.00  0.00    -0.643 OA
ENDBRANCH  21  25
ENDBRANCH  15  17
ENDBRANCH  13  15
ENDBRANCH  12  13
BRANCH   1  28
HETATM   28  C3  UNL     1     -10.526  23.687  26.695  1.00  0.00     0.071 A 
HETATM   29  N2  UNL     1      -9.654  22.750  27.041  1.00  0.00    -0.334 N 
HETATM   30  C2  UNL     1      -9.097  22.023  26.088  1.00  0.00     0.144 A 
ATOM     31  H2  UNL     1      -9.418  22.593  28.021  1.00  0.00     0.168 HD
HETATM   32  S3  UNL     1      -9.771  22.617  24.659  1.00  0.00    -0.064 SA
HETATM   33  C21 UNL     1     -10.787  23.831  25.369  1.00  0.00     0.085 A 
BRANCH  30  34
HETATM   34  N1  UNL     1      -8.216  21.059  26.276  1.00  0.00    -0.375 N 
HETATM   35  C1  UNL     1      -7.096  21.027  25.333  1.00  0.00     0.148 C 
ATOM     36  H1  UNL     1      -8.309  20.380  27.031  1.00  0.00     0.161 HD
ENDBRANCH  30  34
ENDBRANCH   1  28
BRANCH   6  37
HETATM   37  C8  UNL     1     -16.180  24.340  31.154  1.00  0.00     0.008 A 
HETATM   38  C9  UNL     1     -16.649  23.092  30.802  1.00  0.00     0.120 A 
HETATM   39  N4  UNL     1     -17.804  22.916  31.441  1.00  0.00    -0.310 N 
HETATM   40  N5  UNL     1     -18.130  23.947  32.185  1.00  0.00    -0.307 N 
ATOM     41  H4  UNL     1     -18.372  22.073  31.361  1.00  0.00     0.186 HD
HETATM   42  C10 UNL     1     -19.317  24.098  33.014  1.00  0.00     0.177 C 
HETATM   43  C11 UNL     1     -17.130  24.848  32.019  1.00  0.00     0.123 A 
ENDBRANCH   6  37
TORSDOF 7
ENDMDL
MODEL 2
REMARK VINA RESULT: -8.197595687      4.493      8.281
REMARK  7 active torsions:
REMARK  status: ('A' for Active; 'I' for Inactive)
REMARK    1  A    between atoms: N1_2  and  C2_4 
REMARK    2  A    between atoms: C3_7  and  C4_8 
REMARK    3  A    between atoms: C7_13  and  C8_14 
REMARK    4  A    between atoms: C15_26  and  N7_27 
REMARK    5  A    between atoms: N7_27  and  C16_29 
REMARK    6  A    between atoms: C16_29  and  N8_31 
REMARK    7  A    between atoms: C18_36  and  C19_37 
ROOT
HETATM    1  C4  UNL     1     -14.776  26.611  31.514  1.00  0.00     0.105 A 
HETATM    2  N3  UNL     1     -14.234  25.723  30.628  1.00  0.00    -0.349 N 
ATOM      3  H3  UNL     1     -14.740  24.854  30.455  1.00  0.00     0.166 HD
HETATM    4  C5  UNL     1     -13.093  25.917  29.978  1.00  0.00     0.060 A 
HETATM    5  C6  UNL     1     -12.588  24.981  29.089  1.00  0.00     0.044 A 
HETATM    6  C7  UNL     1     -11.408  25.187  28.420  1.00  0.00    -0.021 A 
HETATM    7  C12 UNL     1     -10.721  26.354  28.646  1.00  0.00     0.014 A 
HETATM    8  C13 UNL     1     -11.226  27.282  29.530  1.00  0.00     0.033 A 
HETATM    9  C14 UNL     1     -12.413  27.083  30.207  1.00  0.00     0.060 A 
HETATM   10  N6  UNL     1     -12.919  27.972  31.069  1.00  0.00    -0.339 N 
ATOM     11  H6  UNL     1     -12.407  28.838  31.234  1.00  0.00     0.167 HD
HETATM   12  C15 UNL     1     -14.099  27.770  31.743  1.00  0.00     0.137 A 
ENDROOT
BRANCH  12  13
HETATM   13  N7  UNL     1     -14.494  28.655  32.526  1.00  0.00    -0.317 N 
ATOM     14  H7  UNL     1     -15.049  29.383  32.077  1.00  0.00     0.170 HD
BRANCH  13  15
HETATM   15  C16 UNL     1     -14.325  28.843  33.896  1.00  0.00     0.179 C 
HETATM   16  S1  UNL     1     -13.044  29.785  34.350  1.00  0.00    -0.040 SA
BRANCH  15  17
HETATM   17  N8  UNL     1     -15.121  28.297  34.910  1.00  0.00    -0.313 N 
HETATM   18  C17 UNL     1     -14.725  27.357  35.707  1.00  0.00     0.151 A 
HETATM   19  N9  UNL     1     -13.563  26.716  35.769  1.00  0.00    -0.331 N 
HETATM   20  S2  UNL     1     -15.626  26.617  36.987  1.00  0.00    -0.063 SA
HETATM   21  C18 UNL     1     -13.394  25.786  36.677  1.00  0.00     0.118 A 
ATOM     22  H9  UNL     1     -12.811  26.945  35.119  1.00  0.00     0.168 HD
HETATM   23  C20 UNL     1     -14.440  25.523  37.522  1.00  0.00     0.090 A 
ATOM     24  H8  UNL     1     -16.067  28.661  35.028  1.00  0.00     0.170 HD
BRANCH  21  25
HETATM   25  C19 UNL     1     -12.125  25.011  36.828  1.00  0.00     0.227 C 
HETATM   26  O1  UNL     1     -11.827  24.067  36.057  1.00  0.00    -0.643 OA
HETATM   27  O2  UNL     1     -11.207  25.289  37.821  1.00  0.00    -0.643 OA
ENDBRANCH  21  25
ENDBRANCH  15  17
ENDBRANCH  13  15
ENDBRANCH  12  13
BRANCH   1  28
HETATM   28  C3  UNL     1     -16.069  26.251  32.168  1.00  0.00     0.071 A 
HETATM   29  N2  UNL     1     -16.111  25.317  33.108  1.00  0.00    -0.334 N 
HETATM   30  C2  UNL     1     -17.276  25.031  33.662  1.00  0.00     0.144 A 
ATOM     31  H2  UNL     1     -15.263  24.830  33.398  1.00  0.00     0.168 HD
HETATM   32  S3  UNL     1     -18.371  26.059  32.894  1.00  0.00    -0.064 SA
HETATM   33  C21 UNL     1     -17.243  26.854  31.842  1.00  0.00     0.085 A 
BRANCH  30  34
HETATM   34  N1  UNL     1     -17.474  24.129  34.606  1.00  0.00    -0.375 N 
HETATM   35  C1  UNL     1     -16.294  23.361  35.010  1.00  0.00     0.148 C 
ATOM     36  H1  UNL     1     -18.390  23.978  35.027  1.00  0.00     0.161 HD
ENDBRANCH  30  34
ENDBRANCH   1  28
BRANCH   6  37
HETATM   37  C8  UNL     1     -10.956  24.152  27.507  1.00  0.00     0.008 A 
HETATM   38  C9  UNL     1     -11.487  22.883  27.424  1.00  0.00     0.120 A 
HETATM   39  N4  UNL     1     -10.808  22.238  26.477  1.00  0.00    -0.310 N 
HETATM   40  N5  UNL     1      -9.874  22.983  25.931  1.00  0.00    -0.307 N 
ATOM     41  H4  UNL     1     -10.992  21.273  26.206  1.00  0.00     0.186 HD
HETATM   42  C10 UNL     1      -8.948  22.605  24.874  1.00  0.00     0.177 C 
HETATM   43  C11 UNL     1      -9.949  24.181  26.561  1.00  0.00     0.123 A 
ENDBRANCH   6  37
TORSDOF 7
ENDMDL
MODEL 3
REMARK VINA RESULT: -8.161274290      4.465      8.455
REMARK  7 active torsions:
REMARK  status: ('A' for Active; 'I' for Inactive)
REMARK    1  A    between atoms: N1_2  and  C2_4 
REMARK    2  A    between atoms: C3_7  and  C4_8 
REMARK    3  A    between atoms: C7_13  and  C8_14 
REMARK    4  A    between atoms: C15_26  and  N7_27 
REMARK    5  A    between atoms: N7_27  and  C16_29 
REMARK    6  A    between atoms: C16_29  and  N8_31 
REMARK    7  A    between atoms: C18_36  and  C19_37 
ROOT
HETATM    1  C4  UNL     1     -14.794  26.709  31.246  1.00  0.00     0.105 A 
HETATM    2  N3  UNL     1     -14.247  25.805  30.379  1.00  0.00    -0.349 N 
ATOM      3  H3  UNL     1     -14.793  24.974  30.150  1.00  0.00     0.166 HD
HETATM    4  C5  UNL     1     -13.052  25.937  29.815  1.00  0.00     0.060 A 
HETATM    5  C6  UNL     1     -12.545  24.987  28.943  1.00  0.00     0.044 A 
HETATM    6  C7  UNL     1     -11.309  25.129  28.364  1.00  0.00    -0.021 A 
HETATM    7  C12 UNL     1     -10.568  26.244  28.665  1.00  0.00     0.014 A 
HETATM    8  C13 UNL     1     -11.075  27.186  29.533  1.00  0.00     0.033 A 
HETATM    9  C14 UNL     1     -12.318  27.051  30.120  1.00  0.00     0.060 A 
HETATM   10  N6  UNL     1     -12.828  27.955  30.965  1.00  0.00    -0.339 N 
ATOM     11  H6  UNL     1     -12.275  28.782  31.186  1.00  0.00     0.167 HD
HETATM   12  C15 UNL     1     -14.063  27.817  31.548  1.00  0.00     0.137 A 
ENDROOT
BRANCH  12  13
HETATM   13  N7  UNL     1     -14.457  28.710  32.323  1.00  0.00    -0.317 N 
ATOM     14  H7  UNL     1     -14.934  29.480  31.854  1.00  0.00     0.170 HD
BRANCH  13  15
HETATM   15  C16 UNL     1     -14.373  28.863  33.705  1.00  0.00     0.179 C 
HETATM   16  S1  UNL     1     -13.150  29.828  34.258  1.00  0.00    -0.040 SA
BRANCH  15  17
HETATM   17  N8  UNL     1     -15.207  28.264  34.655  1.00  0.00    -0.313 N 
HETATM   18  C17 UNL     1     -14.818  27.337  35.472  1.00  0.00     0.151 A 
HETATM   19  N9  UNL     1     -13.630  26.759  35.612  1.00  0.00    -0.331 N 
HETATM   20  S2  UNL     1     -15.766  26.536  36.678  1.00  0.00    -0.063 SA
HETATM   21  C18 UNL     1     -13.476  25.829  36.522  1.00  0.00     0.118 A 
ATOM     22  H9  UNL     1     -12.848  27.035  35.018  1.00  0.00     0.168 HD
HETATM   23  C20 UNL     1     -14.562  25.501  37.288  1.00  0.00     0.090 A 
ATOM     24  H8  UNL     1     -16.178  28.575  34.708  1.00  0.00     0.170 HD
BRANCH  21  25
HETATM   25  C19 UNL     1     -12.180  25.122  36.757  1.00  0.00     0.227 C 
HETATM   26  O1  UNL     1     -11.814  24.153  36.049  1.00  0.00    -0.643 OA
HETATM   27  O2  UNL     1     -11.312  25.493  37.764  1.00  0.00    -0.643 OA
ENDBRANCH  21  25
ENDBRANCH  15  17
ENDBRANCH  13  15
ENDBRANCH  12  13
BRANCH   1  28
HETATM   28  C3  UNL     1     -16.151  26.421  31.798  1.00  0.00     0.071 A 
HETATM   29  N2  UNL     1     -17.191  27.166  31.450  1.00  0.00    -0.334 N 
HETATM   30  C2  UNL     1     -18.375  26.876  31.961  1.00  0.00     0.144 A 
ATOM     31  H2  UNL     1     -17.081  27.946  30.802  1.00  0.00     0.168 HD
HETATM   32  S3  UNL     1     -18.088  25.542  32.955  1.00  0.00    -0.064 SA
HETATM   33  C21 UNL     1     -16.383  25.400  32.665  1.00  0.00     0.085 A 
BRANCH  30  34
HETATM   34  N1  UNL     1     -19.497  27.523  31.710  1.00  0.00    -0.375 N 
HETATM   35  C1  UNL     1     -20.693  26.691  31.561  1.00  0.00     0.148 C 
ATOM     36  H1  UNL     1     -19.529  28.539  31.625  1.00  0.00     0.161 HD
ENDBRANCH  30  34
ENDBRANCH   1  28
BRANCH   6  37
HETATM   37  C8  UNL     1     -10.859  24.085  27.461  1.00  0.00     0.008 A 
HETATM   38  C9  UNL     1     -11.361  22.801  27.421  1.00  0.00     0.120 A 
HETATM   39  N4  UNL     1     -10.694  22.152  26.469  1.00  0.00    -0.310 N 
HETATM   40  N5  UNL     1      -9.796  22.906  25.880  1.00  0.00    -0.307 N 
ATOM     41  H4  UNL     1     -10.863  21.176  26.225  1.00  0.00     0.186 HD
HETATM   42  C10 UNL     1      -8.892  22.526  24.803  1.00  0.00     0.177 C 
HETATM   43  C11 UNL     1      -9.882  24.116  26.485  1.00  0.00     0.123 A 
ENDBRANCH   6  37
TORSDOF 7
ENDMDL
MODEL 4
REMARK VINA RESULT: -7.970050566      1.087      1.114
REMARK  7 active torsions:
REMARK  status: ('A' for Active; 'I' for Inactive)
REMARK    1  A    between atoms: N1_2  and  C2_4 
REMARK    2  A    between atoms: C3_7  and  C4_8 
REMARK    3  A    between atoms: C7_13  and  C8_14 
REMARK    4  A    between atoms: C15_26  and  N7_27 
REMARK    5  A    between atoms: N7_27  and  C16_29 
REMARK    6  A    between atoms: C16_29  and  N8_31 
REMARK    7  A    between atoms: C18_36  and  C19_37 
ROOT
HETATM    1  C4  UNL     1     -11.298  25.436  28.289  1.00  0.00     0.105 A 
HETATM    2  N3  UNL     1     -12.507  24.962  28.714  1.00  0.00    -0.349 N 
ATOM      3  H3  UNL     1     -12.871  24.119  28.269  1.00  0.00     0.166 HD
HETATM    4  C5  UNL     1     -13.239  25.526  29.668  1.00  0.00     0.060 A 
HETATM    5  C6  UNL     1     -14.461  25.003  30.059  1.00  0.00     0.044 A 
HETATM    6  C7  UNL     1     -15.213  25.590  31.045  1.00  0.00    -0.021 A 
HETATM    7  C12 UNL     1     -14.731  26.724  31.650  1.00  0.00     0.014 A 
HETATM    8  C13 UNL     1     -13.516  27.241  31.258  1.00  0.00     0.033 A 
HETATM    9  C14 UNL     1     -12.752  26.656  30.267  1.00  0.00     0.060 A 
HETATM   10  N6  UNL     1     -11.570  27.144  29.873  1.00  0.00    -0.339 N 
ATOM     11  H6  UNL     1     -11.215  27.985  30.325  1.00  0.00     0.167 HD
HETATM   12  C15 UNL     1     -10.814  26.560  28.886  1.00  0.00     0.137 A 
ENDROOT
BRANCH  12  13
HETATM   13  N7  UNL     1      -9.725  27.085  28.585  1.00  0.00    -0.317 N 
ATOM     14  H7  UNL     1      -8.951  26.422  28.532  1.00  0.00     0.170 HD
BRANCH  13  15
HETATM   15  C16 UNL     1      -9.357  28.398  28.306  1.00  0.00     0.179 C 
HETATM   16  S1  UNL     1     -10.010  29.064  26.941  1.00  0.00    -0.040 SA
BRANCH  15  17
HETATM   17  N8  UNL     1      -8.479  29.189  29.057  1.00  0.00    -0.313 N 
HETATM   18  C17 UNL     1      -8.848  29.914  30.065  1.00  0.00     0.151 A 
HETATM   19  N9  UNL     1     -10.049  30.086  30.605  1.00  0.00    -0.331 N 
HETATM   20  S2  UNL     1      -7.846  30.921  31.054  1.00  0.00    -0.063 SA
HETATM   21  C18 UNL     1     -10.176  30.884  31.637  1.00  0.00     0.118 A 
ATOM     22  H9  UNL     1     -10.862  29.605  30.222  1.00  0.00     0.168 HD
HETATM   23  C20 UNL     1      -9.048  31.503  32.107  1.00  0.00     0.090 A 
ATOM     24  H8  UNL     1      -7.493  29.194  28.796  1.00  0.00     0.170 HD
BRANCH  21  25
HETATM   25  C19 UNL     1     -11.483  31.141  32.315  1.00  0.00     0.227 C 
HETATM   26  O1  UNL     1     -12.071  32.246  32.227  1.00  0.00    -0.643 OA
HETATM   27  O2  UNL     1     -12.118  30.180  33.076  1.00  0.00    -0.643 OA
ENDBRANCH  21  25
ENDBRANCH  15  17
ENDBRANCH  13  15
ENDBRANCH  12  13
BRANCH   1  28
HETATM   28  C3  UNL     1     -10.592  24.691  27.206  1.00  0.00     0.071 A 
HETATM   29  N2  UNL     1     -10.339  23.395  27.333  1.00  0.00    -0.334 N 
HETATM   30  C2  UNL     1      -9.714  22.774  26.349  1.00  0.00     0.144 A 
ATOM     31  H2  UNL     1     -10.622  22.889  28.173  1.00  0.00     0.168 HD
HETATM   32  S3  UNL     1      -9.449  23.975  25.194  1.00  0.00    -0.064 SA
HETATM   33  C21 UNL     1     -10.184  25.290  26.055  1.00  0.00     0.085 A 
BRANCH  30  34
HETATM   34  N1  UNL     1      -9.395  21.493  26.333  1.00  0.00    -0.375 N 
HETATM   35  C1  UNL     1      -8.130  21.160  25.674  1.00  0.00     0.148 C 
ATOM     36  H1  UNL     1      -9.991  20.780  26.753  1.00  0.00     0.161 HD
ENDBRANCH  30  34
ENDBRANCH   1  28
BRANCH   6  37
HETATM   37  C8  UNL     1     -16.481  24.972  31.391  1.00  0.00     0.008 A 
HETATM   38  C9  UNL     1     -16.817  23.659  31.137  1.00  0.00     0.120 A 
HETATM   39  N4  UNL     1     -18.052  23.478  31.600  1.00  0.00    -0.310 N 
HETATM   40  N5  UNL     1     -18.554  24.565  32.138  1.00  0.00    -0.307 N 
ATOM     41  H4  UNL     1     -18.554  22.592  31.542  1.00  0.00     0.186 HD
HETATM   42  C10 UNL     1     -19.870  24.728  32.738  1.00  0.00     0.177 C 
HETATM   43  C11 UNL     1     -17.589  25.510  32.017  1.00  0.00     0.123 A 
ENDBRANCH   6  37
TORSDOF 7
ENDMDL
MODEL 5
REMARK VINA RESULT: -7.867982993      3.637      8.722
REMARK  7 active torsions:
REMARK  status: ('A' for Active; 'I' for Inactive)
REMARK    1  A    between atoms: N1_2  and  C2_4 
REMARK    2  A    between atoms: C3_7  and  C4_8 
REMARK    3  A    between atoms: C7_13  and  C8_14 
REMARK    4  A    between atoms: C15_26  and  N7_27 
REMARK    5  A    between atoms: N7_27  and  C16_29 
REMARK    6  A    between atoms: C16_29  and  N8_31 
REMARK    7  A    between atoms: C18_36  and  C19_37 
ROOT
HETATM    1  C4  UNL     1     -10.000  28.519  29.249  1.00  0.00     0.105 A 
HETATM    2  N3  UNL     1      -8.852  29.216  29.499  1.00  0.00    -0.349 N 
ATOM      3  H3  UNL     1      -8.012  28.951  28.985  1.00  0.00     0.166 HD
HETATM    4  C5  UNL     1      -8.757  30.216  30.368  1.00  0.00     0.060 A 
HETATM    5  C6  UNL     1      -7.565  30.889  30.584  1.00  0.00     0.044 A 
HETATM    6  C7  UNL     1      -7.474  31.921  31.484  1.00  0.00    -0.021 A 
HETATM    7  C12 UNL     1      -8.599  32.286  32.180  1.00  0.00     0.014 A 
HETATM    8  C13 UNL     1      -9.782  31.615  31.963  1.00  0.00     0.033 A 
HETATM    9  C14 UNL     1      -9.883  30.575  31.060  1.00  0.00     0.060 A 
HETATM   10  N6  UNL     1     -11.023  29.911  30.835  1.00  0.00    -0.339 N 
ATOM     11  H6  UNL     1     -11.857  30.185  31.353  1.00  0.00     0.167 HD
HETATM   12  C15 UNL     1     -11.120  28.876  29.937  1.00  0.00     0.137 A 
ENDROOT
BRANCH  12  13
HETATM   13  N7  UNL     1     -12.224  28.316  29.793  1.00  0.00    -0.317 N 
ATOM     14  H7  UNL     1     -12.457  27.669  30.547  1.00  0.00     0.170 HD
BRANCH  13  15
HETATM   15  C16 UNL     1     -13.201  28.401  28.806  1.00  0.00     0.179 C 
HETATM   16  S1  UNL     1     -14.391  29.523  29.053  1.00  0.00    -0.040 SA
BRANCH  15  17
HETATM   17  N8  UNL     1     -13.278  27.619  27.648  1.00  0.00    -0.313 N 
HETATM   18  C17 UNL     1     -13.457  26.336  27.657  1.00  0.00     0.151 A 
HETATM   19  N9  UNL     1     -13.603  25.496  28.676  1.00  0.00    -0.331 N 
HETATM   20  S2  UNL     1     -13.566  25.282  26.288  1.00  0.00    -0.063 SA
HETATM   21  C18 UNL     1     -13.774  24.220  28.433  1.00  0.00     0.118 A 
ATOM     22  H9  UNL     1     -13.582  25.840  29.637  1.00  0.00     0.168 HD
HETATM   23  C20 UNL     1     -13.793  23.818  27.124  1.00  0.00     0.090 A 
ATOM     24  H8  UNL     1     -13.187  28.085  26.745  1.00  0.00     0.170 HD
BRANCH  21  25
HETATM   25  C19 UNL     1     -13.948  23.199  29.510  1.00  0.00     0.227 C 
HETATM   26  O1  UNL     1     -13.206  22.191  29.597  1.00  0.00    -0.643 OA
HETATM   27  O2  UNL     1     -14.933  23.305  30.472  1.00  0.00    -0.643 OA
ENDBRANCH  21  25
ENDBRANCH  15  17
ENDBRANCH  13  15
ENDBRANCH  12  13
BRANCH   1  28
HETATM   28  C3  UNL     1      -9.949  27.419  28.241  1.00  0.00     0.071 A 
HETATM   29  N2  UNL     1     -10.023  26.152  28.624  1.00  0.00    -0.334 N 
HETATM   30  C2  UNL     1      -9.975  25.209  27.699  1.00  0.00     0.144 A 
ATOM     31  H2  UNL     1     -10.114  25.909  29.610  1.00  0.00     0.168 HD
HETATM   32  S3  UNL     1      -9.827  26.054  26.245  1.00  0.00    -0.064 SA
HETATM   33  C21 UNL     1      -9.831  27.657  26.908  1.00  0.00     0.085 A 
BRANCH  30  34
HETATM   34  N1  UNL     1     -10.037  23.911  27.926  1.00  0.00    -0.375 N 
HETATM   35  C1  UNL     1     -10.137  23.061  26.737  1.00  0.00     0.148 C 
ATOM     36  H1  UNL     1     -10.016  23.523  28.869  1.00  0.00     0.161 HD
ENDBRANCH  30  34
ENDBRANCH   1  28
BRANCH   6  37
HETATM   37  C8  UNL     1      -6.185  32.570  31.644  1.00  0.00     0.008 A 
HETATM   38  C9  UNL     1      -5.431  33.097  30.617  1.00  0.00     0.120 A 
HETATM   39  N4  UNL     1      -4.325  33.598  31.164  1.00  0.00    -0.310 N 
HETATM   40  N5  UNL     1      -4.293  33.443  32.468  1.00  0.00    -0.307 N 
ATOM     41  H4  UNL     1      -3.584  34.052  30.630  1.00  0.00     0.186 HD
HETATM   42  C10 UNL     1      -3.242  33.866  33.382  1.00  0.00     0.177 C 
HETATM   43  C11 UNL     1      -5.444  32.802  32.787  1.00  0.00     0.123 A 
ENDBRANCH   6  37
TORSDOF 7
ENDMDL
