MODEL 1
REMARK VINA RESULT: -7.346656516      0.000      0.000
REMARK  12 active torsions:
REMARK  status: ('A' for Active; 'I' for Inactive)
REMARK    1  A    between atoms: N1_2  and  C2_3 
REMARK    2  A    between atoms: C2_3  and  C3_4 
REMARK    3  A    between atoms: C3_4  and  C4_5 
REMARK    4  A    between atoms: C4_5  and  S1_6 
REMARK    5  A    between atoms: S1_6  and  C5_7 
REMARK    6  A    between atoms: C5_7  and  C7_10 
REMARK    7  A    between atoms: C7_10  and  C8_11 
REMARK    8  A    between atoms: C8_11  and  C9_12 
REMARK    9  A    between atoms: C9_12  and  C10_13 
REMARK   10  A    between atoms: C10_13  and  C11_14 
REMARK   11  A    between atoms: C11_14  and  C12_15 
REMARK   12  A    between atoms: C12_15  and  C13_16 
ROOT
HETATM    1  C5  UNL     1      32.261  33.681  14.033  1.00  0.00     0.154 C 
HETATM    2  C6  UNL     1      32.917  32.562  13.407  1.00  0.00     0.074 C 
HETATM    3  N2  UNL     1      33.427  31.658  12.898  1.00  0.00    -0.196 NA
ENDROOT
BRANCH   1   4
HETATM    4  S1  UNL     1      31.055  33.120  15.262  1.00  0.00    -0.149 SA
BRANCH   4   5
HETATM    5  C4  UNL     1      29.408  32.899  14.479  1.00  0.00     0.077 C 
BRANCH   5   6
HETATM    6  C3  UNL     1      28.957  31.523  14.819  1.00  0.00     0.038 C 
BRANCH   6   7
HETATM    7  C2  UNL     1      30.012  30.480  14.889  1.00  0.00     0.240 C 
BRANCH   7   8
HETATM    8  N1  UNL     1      29.741  29.338  15.690  1.00  0.00    -0.038 N 
HETATM    9  C1  UNL     1      29.150  28.300  14.894  1.00  0.00     0.275 C 
HETATM   10  C15 UNL     1      28.744  29.676  16.716  1.00  0.00     0.508 C 
HETATM   11  N4  UNL     1      29.192  29.090  17.962  1.00  0.00     0.116 N 
HETATM   12  C16 UNL     1      30.237  29.999  18.462  1.00  0.00     0.277 C 
HETATM   13  C19 UNL     1      30.065  28.006  17.473  1.00  0.00     0.308 C 
HETATM   14  C17 UNL     1      31.329  29.953  17.401  1.00  0.00     0.065 C 
HETATM   15  C18 UNL     1      30.860  28.882  16.484  1.00  0.00     0.222 C 
ENDBRANCH   7   8
ENDBRANCH   6   7
ENDBRANCH   5   6
ENDBRANCH   4   5
ENDBRANCH   1   4
BRANCH   1  16
HETATM   16  C7  UNL     1      31.471  34.533  13.028  1.00  0.00     0.030 C 
BRANCH  16  17
HETATM   17  C8  UNL     1      32.183  35.868  13.003  1.00  0.00     0.002 C 
BRANCH  17  18
HETATM   18  C9  UNL     1      32.306  36.497  14.349  1.00  0.00     0.000 C 
BRANCH  18  19
HETATM   19  C10 UNL     1      33.423  37.488  14.357  1.00  0.00     0.000 C 
BRANCH  19  20
HETATM   20  C11 UNL     1      33.145  38.687  13.473  1.00  0.00     0.001 C 
BRANCH  20  21
HETATM   21  C12 UNL     1      33.005  39.972  14.262  1.00  0.00     0.014 C 
BRANCH  21  22
HETATM   22  C13 UNL     1      33.911  39.964  15.473  1.00  0.00     0.124 C 
HETATM   23  C14 UNL     1      33.661  41.214  16.217  1.00  0.00     0.059 C 
HETATM   24  N3  UNL     1      33.449  42.195  16.797  1.00  0.00    -0.197 NA
ENDBRANCH  21  22
ENDBRANCH  20  21
ENDBRANCH  19  20
ENDBRANCH  18  19
ENDBRANCH  17  18
ENDBRANCH  16  17
ENDBRANCH   1  16
TORSDOF 12
ENDMDL
MODEL 2
REMARK VINA RESULT: -7.298847970      1.005      1.967
REMARK  12 active torsions:
REMARK  status: ('A' for Active; 'I' for Inactive)
REMARK    1  A    between atoms: N1_2  and  C2_3 
REMARK    2  A    between atoms: C2_3  and  C3_4 
REMARK    3  A    between atoms: C3_4  and  C4_5 
REMARK    4  A    between atoms: C4_5  and  S1_6 
REMARK    5  A    between atoms: S1_6  and  C5_7 
REMARK    6  A    between atoms: C5_7  and  C7_10 
REMARK    7  A    between atoms: C7_10  and  C8_11 
REMARK    8  A    between atoms: C8_11  and  C9_12 
REMARK    9  A    between atoms: C9_12  and  C10_13 
REMARK   10  A    between atoms: C10_13  and  C11_14 
REMARK   11  A    between atoms: C11_14  and  C12_15 
REMARK   12  A    between atoms: C12_15  and  C13_16 
ROOT
HETATM    1  C5  UNL     1      32.310  33.768  13.946  1.00  0.00     0.154 C 
HETATM    2  C6  UNL     1      32.988  32.649  13.345  1.00  0.00     0.074 C 
HETATM    3  N2  UNL     1      33.517  31.745  12.855  1.00  0.00    -0.196 NA
ENDROOT
BRANCH   1   4
HETATM    4  S1  UNL     1      31.101  33.208  15.173  1.00  0.00    -0.149 SA
BRANCH   4   5
HETATM    5  C4  UNL     1      29.424  33.138  14.426  1.00  0.00     0.077 C 
BRANCH   5   6
HETATM    6  C3  UNL     1      28.867  31.800  14.758  1.00  0.00     0.038 C 
BRANCH   6   7
HETATM    7  C2  UNL     1      29.806  30.653  14.675  1.00  0.00     0.240 C 
BRANCH   7   8
HETATM    8  N1  UNL     1      29.425  29.455  15.337  1.00  0.00    -0.038 N 
HETATM    9  C1  UNL     1      28.869  29.753  16.627  1.00  0.00     0.275 C 
HETATM   10  C15 UNL     1      30.614  28.629  15.593  1.00  0.00     0.508 C 
HETATM   11  N4  UNL     1      30.269  27.263  15.258  1.00  0.00     0.116 N 
HETATM   12  C16 UNL     1      30.351  27.194  13.789  1.00  0.00     0.277 C 
HETATM   13  C19 UNL     1      28.801  27.295  15.391  1.00  0.00     0.308 C 
HETATM   14  C17 UNL     1      29.292  28.172  13.297  1.00  0.00     0.065 C 
HETATM   15  C18 UNL     1      28.597  28.570  14.548  1.00  0.00     0.222 C 
ENDBRANCH   7   8
ENDBRANCH   6   7
ENDBRANCH   5   6
ENDBRANCH   4   5
ENDBRANCH   1   4
BRANCH   1  16
HETATM   16  C7  UNL     1      31.515  34.591  12.921  1.00  0.00     0.030 C 
BRANCH  16  17
HETATM   17  C8  UNL     1      32.165  35.958  12.930  1.00  0.00     0.002 C 
BRANCH  17  18
HETATM   18  C9  UNL     1      32.330  36.523  14.300  1.00  0.00     0.000 C 
BRANCH  18  19
HETATM   19  C10 UNL     1      33.446  37.515  14.319  1.00  0.00     0.000 C 
BRANCH  19  20
HETATM   20  C11 UNL     1      33.159  38.731  13.460  1.00  0.00     0.001 C 
BRANCH  20  21
HETATM   21  C12 UNL     1      33.011  39.998  14.275  1.00  0.00     0.014 C 
BRANCH  21  22
HETATM   22  C13 UNL     1      33.925  39.976  15.480  1.00  0.00     0.124 C 
HETATM   23  C14 UNL     1      33.772  41.271  16.171  1.00  0.00     0.059 C 
HETATM   24  N3  UNL     1      33.635  42.288  16.711  1.00  0.00    -0.197 NA
ENDBRANCH  21  22
ENDBRANCH  20  21
ENDBRANCH  19  20
ENDBRANCH  18  19
ENDBRANCH  17  18
ENDBRANCH  16  17
ENDBRANCH   1  16
TORSDOF 12
ENDMDL
MODEL 3
REMARK VINA RESULT: -7.170852209      3.071      4.889
REMARK  12 active torsions:
REMARK  status: ('A' for Active; 'I' for Inactive)
REMARK    1  A    between atoms: N1_2  and  C2_3 
REMARK    2  A    between atoms: C2_3  and  C3_4 
REMARK    3  A    between atoms: C3_4  and  C4_5 
REMARK    4  A    between atoms: C4_5  and  S1_6 
REMARK    5  A    between atoms: S1_6  and  C5_7 
REMARK    6  A    between atoms: C5_7  and  C7_10 
REMARK    7  A    between atoms: C7_10  and  C8_11 
REMARK    8  A    between atoms: C8_11  and  C9_12 
REMARK    9  A    between atoms: C9_12  and  C10_13 
REMARK   10  A    between atoms: C10_13  and  C11_14 
REMARK   11  A    between atoms: C11_14  and  C12_15 
REMARK   12  A    between atoms: C12_15  and  C13_16 
ROOT
HETATM    1  C5  UNL     1      30.129  28.815  13.993  1.00  0.00     0.154 C 
HETATM    2  C6  UNL     1      29.465  28.502  12.754  1.00  0.00     0.074 C 
HETATM    3  N2  UNL     1      28.941  28.264  11.751  1.00  0.00    -0.196 NA
ENDROOT
BRANCH   1   4
HETATM    4  S1  UNL     1      29.664  30.465  14.577  1.00  0.00    -0.149 SA
BRANCH   4   5
HETATM    5  C4  UNL     1      29.130  30.389  16.333  1.00  0.00     0.077 C 
BRANCH   5   6
HETATM    6  C3  UNL     1      30.359  30.165  17.141  1.00  0.00     0.038 C 
BRANCH   6   7
HETATM    7  C2  UNL     1      30.158  29.682  18.531  1.00  0.00     0.240 C 
BRANCH   7   8
HETATM    8  N1  UNL     1      30.718  28.420  18.864  1.00  0.00    -0.038 N 
HETATM    9  C1  UNL     1      32.003  28.592  19.481  1.00  0.00     0.275 C 
HETATM   10  C15 UNL     1      30.961  27.645  17.639  1.00  0.00     0.508 C 
HETATM   11  N4  UNL     1      30.517  26.290  17.892  1.00  0.00     0.116 N 
HETATM   12  C16 UNL     1      29.050  26.333  17.755  1.00  0.00     0.277 C 
HETATM   13  C19 UNL     1      30.594  26.231  19.363  1.00  0.00     0.308 C 
HETATM   14  C17 UNL     1      28.589  27.283  18.852  1.00  0.00     0.065 C 
HETATM   15  C18 UNL     1      29.837  27.550  19.612  1.00  0.00     0.222 C 
ENDBRANCH   7   8
ENDBRANCH   6   7
ENDBRANCH   5   6
ENDBRANCH   4   5
ENDBRANCH   1   4
BRANCH   1  16
HETATM   16  C7  UNL     1      31.658  28.836  13.849  1.00  0.00     0.030 C 
BRANCH  16  17
HETATM   17  C8  UNL     1      32.008  30.290  13.616  1.00  0.00     0.002 C 
BRANCH  17  18
HETATM   18  C9  UNL     1      33.283  30.477  12.865  1.00  0.00     0.000 C 
BRANCH  18  19
HETATM   19  C10 UNL     1      33.631  31.927  12.790  1.00  0.00     0.000 C 
BRANCH  19  20
HETATM   20  C11 UNL     1      32.761  32.783  13.689  1.00  0.00     0.001 C 
BRANCH  20  21
HETATM   21  C12 UNL     1      32.150  33.959  12.958  1.00  0.00     0.014 C 
BRANCH  21  22
HETATM   22  C13 UNL     1      30.967  34.514  13.721  1.00  0.00     0.124 C 
HETATM   23  C14 UNL     1      31.464  35.620  14.561  1.00  0.00     0.059 C 
HETATM   24  N3  UNL     1      31.866  36.494  15.209  1.00  0.00    -0.197 NA
ENDBRANCH  21  22
ENDBRANCH  20  21
ENDBRANCH  19  20
ENDBRANCH  18  19
ENDBRANCH  17  18
ENDBRANCH  16  17
ENDBRANCH   1  16
TORSDOF 12
ENDMDL
MODEL 4
REMARK VINA RESULT: -7.156462782      2.452      3.765
REMARK  12 active torsions:
REMARK  status: ('A' for Active; 'I' for Inactive)
REMARK    1  A    between atoms: N1_2  and  C2_3 
REMARK    2  A    between atoms: C2_3  and  C3_4 
REMARK    3  A    between atoms: C3_4  and  C4_5 
REMARK    4  A    between atoms: C4_5  and  S1_6 
REMARK    5  A    between atoms: S1_6  and  C5_7 
REMARK    6  A    between atoms: C5_7  and  C7_10 
REMARK    7  A    between atoms: C7_10  and  C8_11 
REMARK    8  A    between atoms: C8_11  and  C9_12 
REMARK    9  A    between atoms: C9_12  and  C10_13 
REMARK   10  A    between atoms: C10_13  and  C11_14 
REMARK   11  A    between atoms: C11_14  and  C12_15 
REMARK   12  A    between atoms: C12_15  and  C13_16 
ROOT
HETATM    1  C5  UNL     1      30.683  30.792  14.566  1.00  0.00     0.154 C 
HETATM    2  C6  UNL     1      29.311  30.872  14.995  1.00  0.00     0.074 C 
HETATM    3  N2  UNL     1      28.213  30.928  15.355  1.00  0.00    -0.196 NA
ENDROOT
BRANCH   1   4
HETATM    4  S1  UNL     1      31.232  29.069  14.471  1.00  0.00    -0.149 SA
BRANCH   4   5
HETATM    5  C4  UNL     1      29.863  28.000  13.872  1.00  0.00     0.077 C 
BRANCH   5   6
HETATM    6  C3  UNL     1      29.457  27.148  15.022  1.00  0.00     0.038 C 
BRANCH   6   7
HETATM    7  C2  UNL     1      30.393  27.101  16.174  1.00  0.00     0.240 C 
BRANCH   7   8
HETATM    8  N1  UNL     1      29.820  27.087  17.473  1.00  0.00    -0.038 N 
HETATM    9  C1  UNL     1      29.221  25.810  17.741  1.00  0.00     0.275 C 
HETATM   10  C15 UNL     1      28.726  28.067  17.544  1.00  0.00     0.508 C 
HETATM   11  N4  UNL     1      28.862  28.774  18.800  1.00  0.00     0.116 N 
HETATM   12  C16 UNL     1      29.934  29.760  18.574  1.00  0.00     0.277 C 
HETATM   13  C19 UNL     1      29.630  27.801  19.598  1.00  0.00     0.308 C 
HETATM   14  C17 UNL     1      31.169  28.924  18.270  1.00  0.00     0.065 C 
HETATM   15  C18 UNL     1      30.705  27.535  18.525  1.00  0.00     0.222 C 
ENDBRANCH   7   8
ENDBRANCH   6   7
ENDBRANCH   5   6
ENDBRANCH   4   5
ENDBRANCH   1   4
BRANCH   1  16
HETATM   16  C7  UNL     1      31.643  31.485  15.545  1.00  0.00     0.030 C 
BRANCH  16  17
HETATM   17  C8  UNL     1      32.047  32.769  14.853  1.00  0.00     0.002 C 
BRANCH  17  18
HETATM   18  C9  UNL     1      32.978  32.554  13.708  1.00  0.00     0.000 C 
BRANCH  18  19
HETATM   19  C10 UNL     1      32.644  33.485  12.589  1.00  0.00     0.000 C 
BRANCH  19  20
HETATM   20  C11 UNL     1      31.588  34.502  12.971  1.00  0.00     0.001 C 
BRANCH  20  21
HETATM   21  C12 UNL     1      32.078  35.928  12.841  1.00  0.00     0.014 C 
BRANCH  21  22
HETATM   22  C13 UNL     1      32.807  36.366  14.092  1.00  0.00     0.124 C 
HETATM   23  C14 UNL     1      31.970  37.385  14.755  1.00  0.00     0.059 C 
HETATM   24  N3  UNL     1      31.299  38.176  15.272  1.00  0.00    -0.197 NA
ENDBRANCH  21  22
ENDBRANCH  20  21
ENDBRANCH  19  20
ENDBRANCH  18  19
ENDBRANCH  17  18
ENDBRANCH  16  17
ENDBRANCH   1  16
TORSDOF 12
ENDMDL
MODEL 5
REMARK VINA RESULT: -7.074657364      3.645      5.885
REMARK  12 active torsions:
REMARK  status: ('A' for Active; 'I' for Inactive)
REMARK    1  A    between atoms: N1_2  and  C2_3 
REMARK    2  A    between atoms: C2_3  and  C3_4 
REMARK    3  A    between atoms: C3_4  and  C4_5 
REMARK    4  A    between atoms: C4_5  and  S1_6 
REMARK    5  A    between atoms: S1_6  and  C5_7 
REMARK    6  A    between atoms: C5_7  and  C7_10 
REMARK    7  A    between atoms: C7_10  and  C8_11 
REMARK    8  A    between atoms: C8_11  and  C9_12 
REMARK    9  A    between atoms: C9_12  and  C10_13 
REMARK   10  A    between atoms: C10_13  and  C11_14 
REMARK   11  A    between atoms: C11_14  and  C12_15 
REMARK   12  A    between atoms: C12_15  and  C13_16 
ROOT
HETATM    1  C5  UNL     1      28.971  29.657  16.474  1.00  0.00     0.154 C 
HETATM    2  C6  UNL     1      29.715  29.985  17.663  1.00  0.00     0.074 C 
HETATM    3  N2  UNL     1      30.322  30.260  18.608  1.00  0.00    -0.196 NA
ENDROOT
BRANCH   1   4
HETATM    4  S1  UNL     1      30.032  28.843  15.252  1.00  0.00    -0.149 SA
BRANCH   4   5
HETATM    5  C4  UNL     1      29.493  27.104  15.003  1.00  0.00     0.077 C 
BRANCH   5   6
HETATM    6  C3  UNL     1      28.882  26.661  16.285  1.00  0.00     0.038 C 
BRANCH   6   7
HETATM    7  C2  UNL     1      27.537  26.039  16.196  1.00  0.00     0.240 C 
BRANCH   7   8
HETATM    8  N1  UNL     1      27.133  25.214  17.280  1.00  0.00    -0.038 N 
HETATM    9  C1  UNL     1      28.005  25.405  18.404  1.00  0.00     0.275 C 
HETATM   10  C15 UNL     1      27.268  23.799  16.903  1.00  0.00     0.508 C 
HETATM   11  N4  UNL     1      26.078  23.115  17.366  1.00  0.00     0.116 N 
HETATM   12  C16 UNL     1      25.038  23.437  16.373  1.00  0.00     0.277 C 
HETATM   13  C19 UNL     1      25.631  24.013  18.446  1.00  0.00     0.308 C 
HETATM   14  C17 UNL     1      24.879  24.949  16.458  1.00  0.00     0.065 C 
HETATM   15  C18 UNL     1      25.731  25.311  17.620  1.00  0.00     0.222 C 
ENDBRANCH   7   8
ENDBRANCH   6   7
ENDBRANCH   5   6
ENDBRANCH   4   5
ENDBRANCH   1   4
BRANCH   1  16
HETATM   16  C7  UNL     1      28.404  30.901  15.776  1.00  0.00     0.030 C 
BRANCH  16  17
HETATM   17  C8  UNL     1      29.443  31.275  14.741  1.00  0.00     0.002 C 
BRANCH  17  18
HETATM   18  C9  UNL     1      29.816  32.719  14.774  1.00  0.00     0.000 C 
BRANCH  18  19
HETATM   19  C10 UNL     1      31.203  32.883  15.304  1.00  0.00     0.000 C 
BRANCH  19  20
HETATM   20  C11 UNL     1      32.171  33.393  14.255  1.00  0.00     0.001 C 
BRANCH  20  21
HETATM   21  C12 UNL     1      31.518  34.341  13.272  1.00  0.00     0.014 C 
BRANCH  21  22
HETATM   22  C13 UNL     1      32.232  35.674  13.252  1.00  0.00     0.124 C 
HETATM   23  C14 UNL     1      31.719  36.466  14.386  1.00  0.00     0.059 C 
HETATM   24  N3  UNL     1      31.314  37.074  15.287  1.00  0.00    -0.197 NA
ENDBRANCH  21  22
ENDBRANCH  20  21
ENDBRANCH  19  20
ENDBRANCH  18  19
ENDBRANCH  17  18
ENDBRANCH  16  17
ENDBRANCH   1  16
TORSDOF 12
ENDMDL
