MODEL 1
REMARK VINA RESULT: -6.956497617      0.000      0.000
REMARK  15 active torsions:
REMARK  status: ('A' for Active; 'I' for Inactive)
REMARK    1  A    between atoms: O1_2  and  C2_3 
REMARK    2  A    between atoms: C2_3  and  O2_4 
REMARK    3  A    between atoms: N1_9  and  C5_10 
REMARK    4  A    between atoms: C6_16  and  C7_17 
REMARK    5  A    between atoms: C7_17  and  O4_18 
REMARK    6  A    between atoms: C7_17  and  N4_20 
REMARK    7  A    between atoms: N4_20  and  C8_22 
REMARK    8  A    between atoms: C9_23  and  N5_24 
REMARK       I    between atoms: N5_24  and  C10_26 
REMARK    9  A    between atoms: C10_26  and  C11_28 
REMARK   10  A    between atoms: C14_34  and  C15_35 
REMARK   11  A    between atoms: N7_41  and  C18_42 
REMARK   12  A    between atoms: C18_42  and  O10_43 
REMARK   13  A    between atoms: C18_42  and  C19_45 
REMARK   14  A    between atoms: C19_45  and  O11_46 
REMARK   15  A    between atoms: C20_48  and  C21_49 
ROOT
HETATM    1  C5  UNL     1      17.384  15.203   0.059  1.00  0.00     0.179 A 
HETATM    2  N2  UNL     1      17.988  14.129   0.606  1.00  0.00    -0.222 N 
ATOM      3  H2  UNL     1      18.663  13.516   0.150  1.00  0.00     0.198 HD
HETATM    4  O3  UNL     1      17.551  14.026   1.813  1.00  0.00    -0.155 OA
HETATM    5  N3  UNL     1      16.700  14.956   2.101  1.00  0.00    -0.238 N 
ATOM      6  H3  UNL     1      16.219  15.082   2.992  1.00  0.00     0.196 HD
HETATM    7  C6  UNL     1      16.569  15.725   1.007  1.00  0.00     0.129 A 
ENDROOT
BRANCH   7   8
HETATM    8  C7  UNL     1      15.664  16.944   0.930  1.00  0.00     0.271 C 
BRANCH   8   9
HETATM    9  O4  UNL     1      14.469  16.441   0.459  1.00  0.00    -0.371 OA
ATOM     10  H4  UNL     1      13.842  16.667   1.137  1.00  0.00     0.212 HD
ENDBRANCH   8   9
BRANCH   8  11
HETATM   11  N4  UNL     1      15.586  17.449   2.228  1.00  0.00    -0.382 N 
ATOM     12  H4  UNL     1      15.238  16.814   2.946  1.00  0.00     0.156 HD
BRANCH  11  13
HETATM   13  C8  UNL     1      15.927  18.707   2.637  1.00  0.00     0.144 C 
HETATM   14  C9  UNL     1      17.182  19.306   2.012  1.00  0.00     0.202 C 
HETATM   15  C13 UNL     1      16.591  20.269   1.006  1.00  0.00     0.246 C 
HETATM   16  O7  UNL     1      17.189  20.613  -0.041  1.00  0.00    -0.271 OA
HETATM   17  N6  UNL     1      15.311  20.676   1.456  1.00  0.00    -0.319 N 
HETATM   18  C14 UNL     1      14.243  21.574   1.159  1.00  0.00     0.199 C 
HETATM   19  C17 UNL     1      15.038  19.874   2.658  1.00  0.00     0.175 C 
HETATM   20  C16 UNL     1      12.932  20.867   1.227  1.00  0.00     0.112 C 
HETATM   21  S3  UNL     1      13.272  19.564   2.475  1.00  0.00    -0.139 SA
BRANCH  14  22
HETATM   22  N5  UNL     1      17.905  20.123   2.953  1.00  0.00    -0.339 N 
HETATM   23  C10 UNL     1      19.320  20.119   2.946  1.00  0.00     0.287 C 
HETATM   24  O5  UNL     1      19.921  19.396   2.113  1.00  0.00    -0.264 OA
ATOM     25  H5  UNL     1      17.398  20.703   3.621  1.00  0.00     0.163 HD
BRANCH  23  26
HETATM   26  C11 UNL     1      20.119  20.911   3.861  1.00  0.00     0.212 C 
HETATM   27  C12 UNL     1      21.258  21.716   3.382  1.00  0.00     0.102 C 
HETATM   28  O6  UNL     1      19.838  20.913   5.078  1.00  0.00    -0.288 OA
ENDBRANCH  23  26
ENDBRANCH  14  22
BRANCH  18  29
HETATM   29  C15 UNL     1      14.283  22.808   1.977  1.00  0.00     0.197 C 
HETATM   30  O8  UNL     1      13.297  23.583   1.966  1.00  0.00    -0.646 OA
HETATM   31  O9  UNL     1      15.362  23.165   2.768  1.00  0.00    -0.646 OA
ENDBRANCH  18  29
ENDBRANCH  11  13
ENDBRANCH   8  11
ENDBRANCH   7   8
BRANCH   1  32
HETATM   32  N1  UNL     1      17.578  15.652  -1.287  1.00  0.00    -0.217 N 
HETATM   33  C4  UNL     1      16.689  15.089  -2.240  1.00  0.00     0.167 C 
HETATM   34  S1  UNL     1      17.048  15.372  -3.969  1.00  0.00    -0.028 SA
HETATM   35  S2  UNL     1      15.379  14.206  -1.883  1.00  0.00    -0.050 SA
HETATM   36  C2  UNL     1      18.848  15.842  -3.894  1.00  0.00     0.256 C 
HETATM   37  C20 UNL     1      18.860  16.927  -2.844  1.00  0.00     0.280 C 
HETATM   38  N7  UNL     1      18.573  16.535  -1.535  1.00  0.00    -0.266 N 
BRANCH  36  39
HETATM   39  O1  UNL     1      19.480  14.674  -3.537  1.00  0.00    -0.349 OA
HETATM   40  C1  UNL     1      20.832  14.743  -3.350  1.00  0.00     0.206 C 
ENDBRANCH  36  39
BRANCH  36  41
HETATM   41  O2  UNL     1      19.226  16.319  -5.145  1.00  0.00    -0.349 OA
HETATM   42  C3  UNL     1      18.682  15.523  -6.123  1.00  0.00     0.206 C 
ENDBRANCH  36  41
BRANCH  37  43
HETATM   43  C21 UNL     1      17.958  18.005  -3.371  1.00  0.00     0.205 C 
HETATM   44  O12 UNL     1      18.114  18.588  -4.463  1.00  0.00    -0.646 OA
HETATM   45  O13 UNL     1      16.867  18.394  -2.601  1.00  0.00    -0.646 OA
ENDBRANCH  37  43
BRANCH  38  46
HETATM   46  C18 UNL     1      19.067  17.328  -0.490  1.00  0.00     0.261 C 
BRANCH  46  47
HETATM   47  O10 UNL     1      19.277  18.679  -0.792  1.00  0.00    -0.373 OA
ATOM     48  H10 UNL     1      18.985  19.302  -0.138  1.00  0.00     0.212 HD
ENDBRANCH  46  47
BRANCH  46  49
HETATM   49  C19 UNL     1      20.388  16.833   0.057  1.00  0.00     0.219 C 
BRANCH  49  50
HETATM   50  O11 UNL     1      20.150  16.501   1.400  1.00  0.00    -0.397 OA
ATOM     51  H11 UNL     1      19.900  15.585   1.403  1.00  0.00     0.209 HD
ENDBRANCH  49  50
ENDBRANCH  46  49
ENDBRANCH  38  46
ENDBRANCH   1  32
TORSDOF 15
ENDMDL
MODEL 2
REMARK VINA RESULT: -6.684691393      1.017      1.295
REMARK  15 active torsions:
REMARK  status: ('A' for Active; 'I' for Inactive)
REMARK    1  A    between atoms: O1_2  and  C2_3 
REMARK    2  A    between atoms: C2_3  and  O2_4 
REMARK    3  A    between atoms: N1_9  and  C5_10 
REMARK    4  A    between atoms: C6_16  and  C7_17 
REMARK    5  A    between atoms: C7_17  and  O4_18 
REMARK    6  A    between atoms: C7_17  and  N4_20 
REMARK    7  A    between atoms: N4_20  and  C8_22 
REMARK    8  A    between atoms: C9_23  and  N5_24 
REMARK       I    between atoms: N5_24  and  C10_26 
REMARK    9  A    between atoms: C10_26  and  C11_28 
REMARK   10  A    between atoms: C14_34  and  C15_35 
REMARK   11  A    between atoms: N7_41  and  C18_42 
REMARK   12  A    between atoms: C18_42  and  O10_43 
REMARK   13  A    between atoms: C18_42  and  C19_45 
REMARK   14  A    between atoms: C19_45  and  O11_46 
REMARK   15  A    between atoms: C20_48  and  C21_49 
ROOT
HETATM    1  C5  UNL     1      17.333  15.411  -0.193  1.00  0.00     0.179 A 
HETATM    2  N2  UNL     1      18.297  14.602   0.288  1.00  0.00    -0.222 N 
ATOM      3  H2  UNL     1      18.926  14.015  -0.259  1.00  0.00     0.198 HD
HETATM    4  O3  UNL     1      18.273  14.710   1.571  1.00  0.00    -0.155 OA
HETATM    5  N3  UNL     1      17.360  15.535   1.971  1.00  0.00    -0.238 N 
ATOM      6  H3  UNL     1      17.150  15.784   2.937  1.00  0.00     0.196 HD
HETATM    7  C6  UNL     1      16.741  16.002   0.873  1.00  0.00     0.129 A 
ENDROOT
BRANCH   7   8
HETATM    8  C7  UNL     1      15.604  17.010   0.904  1.00  0.00     0.271 C 
BRANCH   8   9
HETATM    9  O4  UNL     1      14.494  16.271   0.553  1.00  0.00    -0.371 OA
ATOM     10  H4  UNL     1      14.790  15.370   0.616  1.00  0.00     0.212 HD
ENDBRANCH   8   9
BRANCH   8  11
HETATM   11  N4  UNL     1      15.560  17.502   2.208  1.00  0.00    -0.382 N 
ATOM     12  H4  UNL     1      15.234  16.858   2.929  1.00  0.00     0.156 HD
BRANCH  11  13
HETATM   13  C8  UNL     1      15.908  18.756   2.621  1.00  0.00     0.144 C 
HETATM   14  C9  UNL     1      17.149  19.363   1.977  1.00  0.00     0.202 C 
HETATM   15  C13 UNL     1      16.536  20.333   0.991  1.00  0.00     0.246 C 
HETATM   16  O7  UNL     1      17.114  20.688  -0.065  1.00  0.00    -0.271 OA
HETATM   17  N6  UNL     1      15.265  20.734   1.469  1.00  0.00    -0.319 N 
HETATM   18  C14 UNL     1      14.190  21.633   1.201  1.00  0.00     0.199 C 
HETATM   19  C17 UNL     1      15.017  19.922   2.669  1.00  0.00     0.175 C 
HETATM   20  C16 UNL     1      12.882  20.923   1.288  1.00  0.00     0.112 C 
HETATM   21  S3  UNL     1      13.248  19.610   2.518  1.00  0.00    -0.139 SA
BRANCH  14  22
HETATM   22  N5  UNL     1      17.889  20.174   2.910  1.00  0.00    -0.339 N 
HETATM   23  C10 UNL     1      19.296  20.051   2.986  1.00  0.00     0.287 C 
HETATM   24  O5  UNL     1      19.876  19.230   2.231  1.00  0.00    -0.264 OA
ATOM     25  H5  UNL     1      17.399  20.834   3.514  1.00  0.00     0.163 HD
BRANCH  23  26
HETATM   26  C11 UNL     1      20.111  20.828   3.899  1.00  0.00     0.212 C 
HETATM   27  C12 UNL     1      21.256  21.624   3.416  1.00  0.00     0.102 C 
HETATM   28  O6  UNL     1      19.840  20.827   5.119  1.00  0.00    -0.288 OA
ENDBRANCH  23  26
ENDBRANCH  14  22
BRANCH  18  29
HETATM   29  C15 UNL     1      14.244  22.860   2.028  1.00  0.00     0.197 C 
HETATM   30  O8  UNL     1      13.297  23.680   1.971  1.00  0.00    -0.646 OA
HETATM   31  O9  UNL     1      15.296  23.164   2.876  1.00  0.00    -0.646 OA
ENDBRANCH  18  29
ENDBRANCH  11  13
ENDBRANCH   8  11
ENDBRANCH   7   8
BRANCH   1  32
HETATM   32  N1  UNL     1      17.013  15.564  -1.581  1.00  0.00    -0.217 N 
HETATM   33  C4  UNL     1      16.194  14.539  -2.123  1.00  0.00     0.167 C 
HETATM   34  S1  UNL     1      15.990  14.499  -3.899  1.00  0.00    -0.028 SA
HETATM   35  S2  UNL     1      15.435  13.400  -1.257  1.00  0.00    -0.050 SA
HETATM   36  C2  UNL     1      17.447  15.518  -4.454  1.00  0.00     0.256 C 
HETATM   37  C20 UNL     1      17.310  16.769  -3.620  1.00  0.00     0.280 C 
HETATM   38  N7  UNL     1      17.516  16.630  -2.245  1.00  0.00    -0.266 N 
BRANCH  36  39
HETATM   39  O1  UNL     1      18.534  14.730  -4.155  1.00  0.00    -0.349 OA
HETATM   40  C1  UNL     1      19.763  15.242  -4.463  1.00  0.00     0.206 C 
ENDBRANCH  36  39
BRANCH  36  41
HETATM   41  O2  UNL     1      17.305  15.777  -5.814  1.00  0.00    -0.349 OA
HETATM   42  C3  UNL     1      16.763  14.678  -6.435  1.00  0.00     0.206 C 
ENDBRANCH  36  41
BRANCH  37  43
HETATM   43  C21 UNL     1      15.973  17.348  -3.981  1.00  0.00     0.205 C 
HETATM   44  O12 UNL     1      14.998  17.415  -3.205  1.00  0.00    -0.646 OA
HETATM   45  O13 UNL     1      15.791  17.849  -5.265  1.00  0.00    -0.646 OA
ENDBRANCH  37  43
BRANCH  38  46
HETATM   46  C18 UNL     1      17.919  17.764  -1.525  1.00  0.00     0.261 C 
BRANCH  46  47
HETATM   47  O10 UNL     1      17.626  19.000  -2.115  1.00  0.00    -0.373 OA
ATOM     48  H10 UNL     1      17.924  19.115  -3.009  1.00  0.00     0.212 HD
ENDBRANCH  46  47
BRANCH  46  49
HETATM   49  C19 UNL     1      19.407  17.796  -1.252  1.00  0.00     0.219 C 
BRANCH  49  50
HETATM   50  O11 UNL     1      19.653  19.011  -0.595  1.00  0.00    -0.397 OA
ATOM     51  H11 UNL     1      19.462  19.693  -1.228  1.00  0.00     0.209 HD
ENDBRANCH  49  50
ENDBRANCH  46  49
ENDBRANCH  38  46
ENDBRANCH   1  32
TORSDOF 15
ENDMDL
MODEL 3
REMARK VINA RESULT: -6.669264430      2.605      4.978
REMARK  15 active torsions:
REMARK  status: ('A' for Active; 'I' for Inactive)
REMARK    1  A    between atoms: O1_2  and  C2_3 
REMARK    2  A    between atoms: C2_3  and  O2_4 
REMARK    3  A    between atoms: N1_9  and  C5_10 
REMARK    4  A    between atoms: C6_16  and  C7_17 
REMARK    5  A    between atoms: C7_17  and  O4_18 
REMARK    6  A    between atoms: C7_17  and  N4_20 
REMARK    7  A    between atoms: N4_20  and  C8_22 
REMARK    8  A    between atoms: C9_23  and  N5_24 
REMARK       I    between atoms: N5_24  and  C10_26 
REMARK    9  A    between atoms: C10_26  and  C11_28 
REMARK   10  A    between atoms: C14_34  and  C15_35 
REMARK   11  A    between atoms: N7_41  and  C18_42 
REMARK   12  A    between atoms: C18_42  and  O10_43 
REMARK   13  A    between atoms: C18_42  and  C19_45 
REMARK   14  A    between atoms: C19_45  and  O11_46 
REMARK   15  A    between atoms: C20_48  and  C21_49 
ROOT
HETATM    1  C5  UNL     1      16.680  15.305   0.546  1.00  0.00     0.179 A 
HETATM    2  N2  UNL     1      17.354  14.995  -0.579  1.00  0.00    -0.222 N 
ATOM      3  H2  UNL     1      18.059  14.267  -0.683  1.00  0.00     0.198 HD
HETATM    4  O3  UNL     1      16.937  15.795  -1.498  1.00  0.00    -0.155 OA
HETATM    5  N3  UNL     1      16.035  16.611  -1.058  1.00  0.00    -0.238 N 
ATOM      6  H3  UNL     1      15.558  17.334  -1.596  1.00  0.00     0.196 HD
HETATM    7  C6  UNL     1      15.845  16.327   0.242  1.00  0.00     0.129 A 
ENDROOT
BRANCH   7   8
HETATM    8  C7  UNL     1      14.852  17.055   1.133  1.00  0.00     0.271 C 
BRANCH   8   9
HETATM    9  O4  UNL     1      13.869  16.117   1.371  1.00  0.00    -0.371 OA
ATOM     10  H4  UNL     1      13.219  16.591   1.877  1.00  0.00     0.212 HD
ENDBRANCH   8   9
BRANCH   8  11
HETATM   11  N4  UNL     1      15.561  17.426   2.276  1.00  0.00    -0.382 N 
ATOM     12  H4  UNL     1      15.844  16.673   2.903  1.00  0.00     0.156 HD
BRANCH  11  13
HETATM   13  C8  UNL     1      15.914  18.693   2.644  1.00  0.00     0.144 C 
HETATM   14  C9  UNL     1      17.141  19.282   1.956  1.00  0.00     0.202 C 
HETATM   15  C13 UNL     1      16.507  20.220   0.954  1.00  0.00     0.246 C 
HETATM   16  O7  UNL     1      17.062  20.543  -0.124  1.00  0.00    -0.271 OA
HETATM   17  N6  UNL     1      15.245  20.634   1.446  1.00  0.00    -0.319 N 
HETATM   18  C14 UNL     1      14.163  21.523   1.172  1.00  0.00     0.199 C 
HETATM   19  C17 UNL     1      15.023  19.858   2.674  1.00  0.00     0.175 C 
HETATM   20  C16 UNL     1      12.858  20.814   1.307  1.00  0.00     0.112 C 
HETATM   21  S3  UNL     1      13.252  19.540   2.569  1.00  0.00    -0.139 SA
BRANCH  14  22
HETATM   22  N5  UNL     1      17.898  20.121   2.849  1.00  0.00    -0.339 N 
HETATM   23  C10 UNL     1      19.289  20.286   2.649  1.00  0.00     0.287 C 
HETATM   24  O5  UNL     1      19.839  19.692   1.688  1.00  0.00    -0.264 OA
ATOM     25  H5  UNL     1      17.432  20.595   3.623  1.00  0.00     0.163 HD
BRANCH  23  26
HETATM   26  C11 UNL     1      20.119  21.112   3.504  1.00  0.00     0.212 C 
HETATM   27  C12 UNL     1      21.190  21.959   2.944  1.00  0.00     0.102 C 
HETATM   28  O6  UNL     1      19.926  21.108   4.738  1.00  0.00    -0.288 OA
ENDBRANCH  23  26
ENDBRANCH  14  22
BRANCH  18  29
HETATM   29  C15 UNL     1      14.231  22.774   1.960  1.00  0.00     0.197 C 
HETATM   30  O8  UNL     1      13.260  23.567   1.937  1.00  0.00    -0.646 OA
HETATM   31  O9  UNL     1      15.321  23.130   2.735  1.00  0.00    -0.646 OA
ENDBRANCH  18  29
ENDBRANCH  11  13
ENDBRANCH   8  11
ENDBRANCH   7   8
BRANCH   1  32
HETATM   32  N1  UNL     1      16.866  14.661   1.813  1.00  0.00    -0.217 N 
HETATM   33  C4  UNL     1      15.970  13.593   2.079  1.00  0.00     0.167 C 
HETATM   34  S1  UNL     1      15.944  12.933   3.740  1.00  0.00    -0.028 SA
HETATM   35  S2  UNL     1      14.965  12.930   0.995  1.00  0.00    -0.050 SA
HETATM   36  C2  UNL     1      16.727  14.326   4.696  1.00  0.00     0.256 C 
HETATM   37  C20 UNL     1      17.993  14.588   3.915  1.00  0.00     0.280 C 
HETATM   38  N7  UNL     1      17.838  15.122   2.633  1.00  0.00    -0.266 N 
BRANCH  36  39
HETATM   39  O1  UNL     1      15.789  15.330   4.646  1.00  0.00    -0.349 OA
HETATM   40  C1  UNL     1      14.479  14.946   4.717  1.00  0.00     0.206 C 
ENDBRANCH  36  39
BRANCH  36  41
HETATM   41  O2  UNL     1      16.993  13.875   5.986  1.00  0.00    -0.349 OA
HETATM   42  C3  UNL     1      16.151  12.831   6.287  1.00  0.00     0.206 C 
ENDBRANCH  36  41
BRANCH  37  43
HETATM   43  C21 UNL     1      18.762  13.300   3.951  1.00  0.00     0.205 C 
HETATM   44  O12 UNL     1      18.912  12.537   2.975  1.00  0.00    -0.646 OA
HETATM   45  O13 UNL     1      19.356  12.914   5.148  1.00  0.00    -0.646 OA
ENDBRANCH  37  43
BRANCH  38  46
HETATM   46  C18 UNL     1      18.906  15.854   2.095  1.00  0.00     0.261 C 
BRANCH  46  47
HETATM   47  O10 UNL     1      19.870  15.111   1.403  1.00  0.00    -0.373 OA
ATOM     48  H10 UNL     1      20.510  14.659   1.940  1.00  0.00     0.212 HD
ENDBRANCH  46  47
BRANCH  46  49
HETATM   49  C19 UNL     1      19.676  16.634   3.137  1.00  0.00     0.219 C 
BRANCH  49  50
HETATM   50  O11 UNL     1      20.856  17.059   2.509  1.00  0.00    -0.397 OA
ATOM     51  H11 UNL     1      21.544  16.492   2.835  1.00  0.00     0.209 HD
ENDBRANCH  49  50
ENDBRANCH  46  49
ENDBRANCH  38  46
ENDBRANCH   1  32
TORSDOF 15
ENDMDL
MODEL 4
REMARK VINA RESULT: -6.621091816      1.753      3.008
REMARK  15 active torsions:
REMARK  status: ('A' for Active; 'I' for Inactive)
REMARK    1  A    between atoms: O1_2  and  C2_3 
REMARK    2  A    between atoms: C2_3  and  O2_4 
REMARK    3  A    between atoms: N1_9  and  C5_10 
REMARK    4  A    between atoms: C6_16  and  C7_17 
REMARK    5  A    between atoms: C7_17  and  O4_18 
REMARK    6  A    between atoms: C7_17  and  N4_20 
REMARK    7  A    between atoms: N4_20  and  C8_22 
REMARK    8  A    between atoms: C9_23  and  N5_24 
REMARK       I    between atoms: N5_24  and  C10_26 
REMARK    9  A    between atoms: C10_26  and  C11_28 
REMARK   10  A    between atoms: C14_34  and  C15_35 
REMARK   11  A    between atoms: N7_41  and  C18_42 
REMARK   12  A    between atoms: C18_42  and  O10_43 
REMARK   13  A    between atoms: C18_42  and  C19_45 
REMARK   14  A    between atoms: C19_45  and  O11_46 
REMARK   15  A    between atoms: C20_48  and  C21_49 
ROOT
HETATM    1  C5  UNL     1      15.478  14.619  -0.058  1.00  0.00     0.179 A 
HETATM    2  N2  UNL     1      14.751  13.545   0.309  1.00  0.00    -0.222 N 
ATOM      3  H2  UNL     1      14.840  12.598  -0.057  1.00  0.00     0.198 HD
HETATM    4  O3  UNL     1      13.920  13.944   1.208  1.00  0.00    -0.155 OA
HETATM    5  N3  UNL     1      14.049  15.206   1.461  1.00  0.00    -0.238 N 
ATOM      6  H3  UNL     1      13.505  15.747   2.133  1.00  0.00     0.196 HD
HETATM    7  C6  UNL     1      15.033  15.669   0.673  1.00  0.00     0.129 A 
ENDROOT
BRANCH   7   8
HETATM    8  C7  UNL     1      15.509  17.113   0.668  1.00  0.00     0.271 C 
BRANCH   8   9
HETATM    9  O4  UNL     1      14.626  17.751  -0.179  1.00  0.00    -0.371 OA
ATOM     10  H4  UNL     1      14.027  17.063  -0.445  1.00  0.00     0.212 HD
ENDBRANCH   8   9
BRANCH   8  11
HETATM   11  N4  UNL     1      15.430  17.549   1.991  1.00  0.00    -0.382 N 
ATOM     12  H4  UNL     1      15.063  16.883   2.671  1.00  0.00     0.156 HD
BRANCH  11  13
HETATM   13  C8  UNL     1      15.793  18.775   2.470  1.00  0.00     0.144 C 
HETATM   14  C9  UNL     1      17.043  19.400   1.859  1.00  0.00     0.202 C 
HETATM   15  C13 UNL     1      16.444  20.429   0.925  1.00  0.00     0.246 C 
HETATM   16  O7  UNL     1      17.027  20.831  -0.110  1.00  0.00    -0.271 OA
HETATM   17  N6  UNL     1      15.177  20.819   1.424  1.00  0.00    -0.319 N 
HETATM   18  C14 UNL     1      14.114  21.745   1.202  1.00  0.00     0.199 C 
HETATM   19  C17 UNL     1      14.917  19.948   2.578  1.00  0.00     0.175 C 
HETATM   20  C16 UNL     1      12.797  21.048   1.251  1.00  0.00     0.112 C 
HETATM   21  S3  UNL     1      13.145  19.667   2.410  1.00  0.00    -0.139 SA
BRANCH  14  22
HETATM   22  N5  UNL     1      17.791  20.150   2.835  1.00  0.00    -0.339 N 
HETATM   23  C10 UNL     1      19.205  20.112   2.817  1.00  0.00     0.287 C 
HETATM   24  O5  UNL     1      19.784  19.417   1.943  1.00  0.00    -0.264 OA
ATOM     25  H5  UNL     1      17.303  20.708   3.535  1.00  0.00     0.163 HD
BRANCH  23  26
HETATM   26  C11 UNL     1      20.030  20.836   3.764  1.00  0.00     0.212 C 
HETATM   27  C12 UNL     1      21.190  21.631   3.319  1.00  0.00     0.102 C 
HETATM   28  O6  UNL     1      19.753  20.790   4.982  1.00  0.00    -0.288 OA
ENDBRANCH  23  26
ENDBRANCH  14  22
BRANCH  18  29
HETATM   29  C15 UNL     1      14.182  22.925   2.093  1.00  0.00     0.197 C 
HETATM   30  O8  UNL     1      13.228  23.739   2.108  1.00  0.00    -0.646 OA
HETATM   31  O9  UNL     1      15.255  23.192   2.927  1.00  0.00    -0.646 OA
ENDBRANCH  18  29
ENDBRANCH  11  13
ENDBRANCH   8  11
ENDBRANCH   7   8
BRANCH   1  32
HETATM   32  N1  UNL     1      16.503  14.608  -1.060  1.00  0.00    -0.217 N 
HETATM   33  C4  UNL     1      17.780  14.188  -0.604  1.00  0.00     0.167 C 
HETATM   34  S1  UNL     1      19.167  14.421  -1.709  1.00  0.00    -0.028 SA
HETATM   35  S2  UNL     1      18.079  13.519   0.840  1.00  0.00    -0.050 SA
HETATM   36  C2  UNL     1      18.488  15.704  -2.876  1.00  0.00     0.256 C 
HETATM   37  C20 UNL     1      17.170  15.100  -3.297  1.00  0.00     0.280 C 
HETATM   38  N7  UNL     1      16.184  15.004  -2.313  1.00  0.00    -0.266 N 
BRANCH  36  39
HETATM   39  O1  UNL     1      18.394  16.837  -2.103  1.00  0.00    -0.349 OA
HETATM   40  C1  UNL     1      17.990  17.978  -2.737  1.00  0.00     0.206 C 
ENDBRANCH  36  39
BRANCH  36  41
HETATM   41  O2  UNL     1      19.371  15.831  -3.945  1.00  0.00    -0.349 OA
HETATM   42  C3  UNL     1      20.655  15.616  -3.506  1.00  0.00     0.206 C 
ENDBRANCH  36  41
BRANCH  37  43
HETATM   43  C21 UNL     1      17.516  13.792  -3.946  1.00  0.00     0.205 C 
HETATM   44  O12 UNL     1      17.296  12.671  -3.441  1.00  0.00    -0.646 OA
HETATM   45  O13 UNL     1      18.126  13.810  -5.196  1.00  0.00    -0.646 OA
ENDBRANCH  37  43
BRANCH  38  46
HETATM   46  C18 UNL     1      14.845  14.964  -2.729  1.00  0.00     0.261 C 
BRANCH  46  47
HETATM   47  O10 UNL     1      14.426  13.771  -3.332  1.00  0.00    -0.373 OA
ATOM     48  H10 UNL     1      15.114  13.160  -3.567  1.00  0.00     0.212 HD
ENDBRANCH  46  47
BRANCH  46  49
HETATM   49  C19 UNL     1      14.498  16.054  -3.719  1.00  0.00     0.219 C 
BRANCH  49  50
HETATM   50  O11 UNL     1      14.479  17.250  -2.986  1.00  0.00    -0.397 OA
ATOM     51  H11 UNL     1      14.035  17.049  -2.170  1.00  0.00     0.209 HD
ENDBRANCH  49  50
ENDBRANCH  46  49
ENDBRANCH  38  46
ENDBRANCH   1  32
TORSDOF 15
ENDMDL
MODEL 5
REMARK VINA RESULT: -6.491323972      1.603      2.205
REMARK  15 active torsions:
REMARK  status: ('A' for Active; 'I' for Inactive)
REMARK    1  A    between atoms: O1_2  and  C2_3 
REMARK    2  A    between atoms: C2_3  and  O2_4 
REMARK    3  A    between atoms: N1_9  and  C5_10 
REMARK    4  A    between atoms: C6_16  and  C7_17 
REMARK    5  A    between atoms: C7_17  and  O4_18 
REMARK    6  A    between atoms: C7_17  and  N4_20 
REMARK    7  A    between atoms: N4_20  and  C8_22 
REMARK    8  A    between atoms: C9_23  and  N5_24 
REMARK       I    between atoms: N5_24  and  C10_26 
REMARK    9  A    between atoms: C10_26  and  C11_28 
REMARK   10  A    between atoms: C14_34  and  C15_35 
REMARK   11  A    between atoms: N7_41  and  C18_42 
REMARK   12  A    between atoms: C18_42  and  O10_43 
REMARK   13  A    between atoms: C18_42  and  C19_45 
REMARK   14  A    between atoms: C19_45  and  O11_46 
REMARK   15  A    between atoms: C20_48  and  C21_49 
ROOT
HETATM    1  C5  UNL     1      18.203  16.273  -0.318  1.00  0.00     0.179 A 
HETATM    2  N2  UNL     1      19.548  16.248  -0.248  1.00  0.00    -0.222 N 
ATOM      3  H2  UNL     1      20.193  16.070  -1.017  1.00  0.00     0.198 HD
HETATM    4  O3  UNL     1      19.865  16.491   0.976  1.00  0.00    -0.155 OA
HETATM    5  N3  UNL     1      18.822  16.675   1.719  1.00  0.00    -0.238 N 
ATOM      6  H3  UNL     1      18.819  16.881   2.718  1.00  0.00     0.196 HD
HETATM    7  C6  UNL     1      17.744  16.544   0.928  1.00  0.00     0.129 A 
ENDROOT
BRANCH   7   8
HETATM    8  C7  UNL     1      16.312  16.697   1.412  1.00  0.00     0.271 C 
BRANCH   8   9
HETATM    9  O4  UNL     1      16.390  16.447   2.766  1.00  0.00    -0.371 OA
ATOM     10  H4  UNL     1      16.956  17.136   3.094  1.00  0.00     0.212 HD
ENDBRANCH   8   9
BRANCH   8  11
HETATM   11  N4  UNL     1      15.939  18.006   1.105  1.00  0.00    -0.382 N 
ATOM     12  H4  UNL     1      15.448  18.147   0.222  1.00  0.00     0.156 HD
BRANCH  11  13
HETATM   13  C8  UNL     1      16.163  19.119   1.864  1.00  0.00     0.144 C 
HETATM   14  C9  UNL     1      17.222  20.088   1.352  1.00  0.00     0.202 C 
HETATM   15  C13 UNL     1      16.368  21.193   0.771  1.00  0.00     0.246 C 
HETATM   16  O7  UNL     1      16.758  21.937  -0.161  1.00  0.00    -0.271 OA
HETATM   17  N6  UNL     1      15.124  21.215   1.445  1.00  0.00    -0.319 N 
HETATM   18  C14 UNL     1      13.913  21.962   1.555  1.00  0.00     0.199 C 
HETATM   19  C17 UNL     1      15.137  20.052   2.344  1.00  0.00     0.175 C 
HETATM   20  C16 UNL     1      12.733  21.052   1.513  1.00  0.00     0.112 C 
HETATM   21  S3  UNL     1      13.420  19.511   2.236  1.00  0.00    -0.139 SA
BRANCH  14  22
HETATM   22  N5  UNL     1      17.956  20.693   2.434  1.00  0.00    -0.339 N 
HETATM   23  C10 UNL     1      19.327  20.392   2.609  1.00  0.00     0.287 C 
HETATM   24  O5  UNL     1      19.881  19.596   1.809  1.00  0.00    -0.264 OA
ATOM     25  H5  UNL     1      17.488  21.336   3.073  1.00  0.00     0.163 HD
BRANCH  23  26
HETATM   26  C11 UNL     1      20.133  20.957   3.673  1.00  0.00     0.212 C 
HETATM   27  C12 UNL     1      21.409  21.641   3.387  1.00  0.00     0.102 C 
HETATM   28  O6  UNL     1      19.741  20.866   4.856  1.00  0.00    -0.288 OA
ENDBRANCH  23  26
ENDBRANCH  14  22
BRANCH  18  29
HETATM   29  C15 UNL     1      13.903  22.876   2.720  1.00  0.00     0.197 C 
HETATM   30  O8  UNL     1      12.816  23.371   3.102  1.00  0.00    -0.646 OA
HETATM   31  O9  UNL     1      15.041  23.225   3.427  1.00  0.00    -0.646 OA
ENDBRANCH  18  29
ENDBRANCH  11  13
ENDBRANCH   8  11
ENDBRANCH   7   8
BRANCH   1  32
HETATM   32  N1  UNL     1      17.442  16.026  -1.507  1.00  0.00    -0.217 N 
HETATM   33  C4  UNL     1      16.904  14.717  -1.611  1.00  0.00     0.167 C 
HETATM   34  S1  UNL     1      16.194  14.240  -3.182  1.00  0.00    -0.028 SA
HETATM   35  S2  UNL     1      16.887  13.620  -0.420  1.00  0.00    -0.050 SA
HETATM   36  C2  UNL     1      16.967  15.493  -4.323  1.00  0.00     0.256 C 
HETATM   37  C20 UNL     1      16.668  16.799  -3.628  1.00  0.00     0.280 C 
HETATM   38  N7  UNL     1      17.318  17.023  -2.412  1.00  0.00    -0.266 N 
BRANCH  36  39
HETATM   39  O1  UNL     1      18.294  15.136  -4.356  1.00  0.00    -0.349 OA
HETATM   40  C1  UNL     1      19.116  15.908  -5.128  1.00  0.00     0.206 C 
ENDBRANCH  36  39
BRANCH  36  41
HETATM   41  O2  UNL     1      16.336  15.402  -5.561  1.00  0.00    -0.349 OA
HETATM   42  C3  UNL     1      16.078  14.084  -5.848  1.00  0.00     0.206 C 
ENDBRANCH  36  41
BRANCH  37  43
HETATM   43  C21 UNL     1      15.171  16.875  -3.543  1.00  0.00     0.205 C 
HETATM   44  O12 UNL     1      14.524  16.910  -2.476  1.00  0.00    -0.646 OA
HETATM   45  O13 UNL     1      14.439  16.910  -4.725  1.00  0.00    -0.646 OA
ENDBRANCH  37  43
BRANCH  38  46
HETATM   46  C18 UNL     1      17.504  18.352  -2.004  1.00  0.00     0.261 C 
BRANCH  46  47
HETATM   47  O10 UNL     1      16.374  18.997  -1.486  1.00  0.00    -0.373 OA
ATOM     48  H10 UNL     1      16.072  19.758  -1.968  1.00  0.00     0.212 HD
ENDBRANCH  46  47
BRANCH  46  49
HETATM   49  C19 UNL     1      18.001  19.250  -3.116  1.00  0.00     0.219 C 
BRANCH  49  50
HETATM   50  O11 UNL     1      18.179  20.516  -2.539  1.00  0.00    -0.397 OA
ATOM     51  H11 UNL     1      17.966  20.417  -1.618  1.00  0.00     0.209 HD
ENDBRANCH  49  50
ENDBRANCH  46  49
ENDBRANCH  38  46
ENDBRANCH   1  32
TORSDOF 15
ENDMDL
