MODEL 1
REMARK VINA RESULT: -7.433046787      0.000      0.000
REMARK  3 active torsions:
REMARK  status: ('A' for Active; 'I' for Inactive)
REMARK    1  A    between atoms: N3_12  and  N4_14 
REMARK       I    between atoms: N4_14  and  C8_16 
REMARK       I    between atoms: C8_16  and  N5_18 
REMARK    2  A    between atoms: N5_18  and  N6_20 
REMARK    3  A    between atoms: N6_20  and  N7_21 
ROOT
HETATM    1  C1  UNL     1      15.700  69.046  33.162  1.00  0.00     0.050 C 
HETATM    2  C2  UNL     1      16.797  68.434  32.363  1.00  0.00    -0.026 A 
HETATM    3  C3  UNL     1      16.752  68.358  30.988  1.00  0.00     0.083 A 
HETATM    4  C4  UNL     1      17.795  67.778  30.272  1.00  0.00     0.249 A 
HETATM    5  O1  UNL     1      17.777  67.697  29.021  1.00  0.00    -0.268 OA
HETATM    6  N1  UNL     1      18.881  67.274  30.895  1.00  0.00    -0.302 N 
HETATM    7  C5  UNL     1      19.965  66.672  30.148  1.00  0.00     0.161 C 
HETATM    8  C6  UNL     1      18.945  67.338  32.233  1.00  0.00     0.153 A 
HETATM    9  N2  UNL     1      19.896  66.916  33.066  1.00  0.00    -0.173 N 
ATOM     10  H2  UNL     1      20.768  66.456  32.803  1.00  0.00     0.186 HD
HETATM   11  C7  UNL     1      19.498  67.208  34.315  1.00  0.00     0.699 A 
HETATM   12  N3  UNL     1      20.209  66.922  35.352  1.00  0.00    -0.128 N 
ATOM     13  H3  UNL     1      21.109  66.459  35.228  1.00  0.00     0.205 HD
HETATM   14  N8  UNL     1      18.288  67.816  34.270  1.00  0.00    -0.186 N 
ATOM     15  H8  UNL     1      17.753  68.144  35.075  1.00  0.00     0.184 HD
HETATM   16  C9  UNL     1      17.913  67.914  32.985  1.00  0.00     0.100 A 
ENDROOT
BRANCH  12  17
HETATM   17  N4  UNL     1      19.773  67.235  36.637  1.00  0.00    -0.236 N 
HETATM   18  C8  UNL     1      19.106  66.230  37.386  1.00  0.00     0.352 C 
HETATM   19  O2  UNL     1      18.931  65.109  36.878  1.00  0.00    -0.244 OA
HETATM   20  N5  UNL     1      18.638  66.495  38.708  1.00  0.00    -0.234 N 
ATOM     21  H5  UNL     1      18.776  67.411  39.136  1.00  0.00     0.189 HD
ATOM     22  H4  UNL     1      19.930  68.162  37.030  1.00  0.00     0.192 HD
BRANCH  20  23
HETATM   23  N6  UNL     1      17.990  65.477  39.401  1.00  0.00    -0.026 NA
BRANCH  23  24
HETATM   24  N7  UNL     1      16.839  65.038  38.746  1.00  0.00    -0.329 N 
ATOM     25  H72 UNL     1      16.516  65.436  37.864  1.00  0.00     0.174 HD
ATOM     26  H71 UNL     1      16.370  64.284  39.248  1.00  0.00     0.174 HD
ENDBRANCH  23  24
ENDBRANCH  20  23
ENDBRANCH  12  17
TORSDOF 3
ENDMDL
MODEL 2
REMARK VINA RESULT: -7.128781781      3.216      7.537
REMARK  3 active torsions:
REMARK  status: ('A' for Active; 'I' for Inactive)
REMARK    1  A    between atoms: N3_12  and  N4_14 
REMARK       I    between atoms: N4_14  and  C8_16 
REMARK       I    between atoms: C8_16  and  N5_18 
REMARK    2  A    between atoms: N5_18  and  N6_20 
REMARK    3  A    between atoms: N6_20  and  N7_21 
ROOT
HETATM    1  C1  UNL     1      19.458  65.921  36.887  1.00  0.00     0.050 C 
HETATM    2  C2  UNL     1      18.007  65.882  37.219  1.00  0.00    -0.026 A 
HETATM    3  C3  UNL     1      17.515  65.166  38.289  1.00  0.00     0.083 A 
HETATM    4  C4  UNL     1      16.153  65.150  38.570  1.00  0.00     0.249 A 
HETATM    5  O1  UNL     1      15.681  64.506  39.537  1.00  0.00    -0.268 OA
HETATM    6  N1  UNL     1      15.270  65.833  37.810  1.00  0.00    -0.302 N 
HETATM    7  C5  UNL     1      13.852  65.817  38.105  1.00  0.00     0.161 C 
HETATM    8  C6  UNL     1      15.727  66.537  36.765  1.00  0.00     0.153 A 
HETATM    9  N2  UNL     1      15.066  67.281  35.878  1.00  0.00    -0.173 N 
ATOM     10  H2  UNL     1      14.059  67.440  35.855  1.00  0.00     0.186 HD
HETATM   11  C7  UNL     1      15.969  67.785  35.020  1.00  0.00     0.699 A 
HETATM   12  N3  UNL     1      15.637  68.552  34.039  1.00  0.00    -0.128 N 
ATOM     13  H3  UNL     1      14.655  68.792  33.902  1.00  0.00     0.205 HD
HETATM   14  N8  UNL     1      17.206  67.355  35.366  1.00  0.00    -0.186 N 
ATOM     15  H8  UNL     1      18.076  67.585  34.885  1.00  0.00     0.184 HD
HETATM   16  C9  UNL     1      17.092  66.574  36.452  1.00  0.00     0.100 A 
ENDROOT
BRANCH  12  17
HETATM   17  N4  UNL     1      16.592  69.061  33.162  1.00  0.00    -0.236 N 
HETATM   18  C8  UNL     1      16.149  69.821  32.048  1.00  0.00     0.352 C 
HETATM   19  O2  UNL     1      14.930  70.010  31.887  1.00  0.00    -0.244 OA
HETATM   20  N5  UNL     1      17.084  70.366  31.119  1.00  0.00    -0.234 N 
ATOM     21  H5  UNL     1      18.086  70.219  31.240  1.00  0.00     0.189 HD
ATOM     22  H4  UNL     1      17.585  68.891  33.317  1.00  0.00     0.192 HD
BRANCH  20  23
HETATM   23  N6  UNL     1      16.599  71.105  30.043  1.00  0.00    -0.026 NA
BRANCH  23  24
HETATM   24  N7  UNL     1      16.105  70.292  29.021  1.00  0.00    -0.329 N 
ATOM     25  H72 UNL     1      15.535  70.649  28.254  1.00  0.00     0.174 HD
ATOM     26  H71 UNL     1      16.380  69.317  29.133  1.00  0.00     0.174 HD
ENDBRANCH  23  24
ENDBRANCH  20  23
ENDBRANCH  12  17
TORSDOF 3
ENDMDL
MODEL 3
REMARK VINA RESULT: -6.934118059      3.519      6.596
REMARK  3 active torsions:
REMARK  status: ('A' for Active; 'I' for Inactive)
REMARK    1  A    between atoms: N3_12  and  N4_14 
REMARK       I    between atoms: N4_14  and  C8_16 
REMARK       I    between atoms: C8_16  and  N5_18 
REMARK    2  A    between atoms: N5_18  and  N6_20 
REMARK    3  A    between atoms: N6_20  and  N7_21 
ROOT
HETATM    1  C1  UNL     1      14.082  66.449  36.076  1.00  0.00     0.050 C 
HETATM    2  C2  UNL     1      15.545  66.561  36.325  1.00  0.00    -0.026 A 
HETATM    3  C3  UNL     1      16.141  66.040  37.453  1.00  0.00     0.083 A 
HETATM    4  C4  UNL     1      17.513  66.163  37.655  1.00  0.00     0.249 A 
HETATM    5  O1  UNL     1      18.079  65.699  38.673  1.00  0.00    -0.268 OA
HETATM    6  N1  UNL     1      18.302  66.792  36.759  1.00  0.00    -0.302 N 
HETATM    7  C5  UNL     1      19.729  66.918  36.971  1.00  0.00     0.161 C 
HETATM    8  C6  UNL     1      17.742  67.305  35.654  1.00  0.00     0.153 A 
HETATM    9  N2  UNL     1      18.300  67.962  34.637  1.00  0.00    -0.173 N 
ATOM     10  H2  UNL     1      19.290  68.187  34.534  1.00  0.00     0.186 HD
HETATM   11  C7  UNL     1      17.321  68.272  33.771  1.00  0.00     0.699 A 
HETATM   12  N3  UNL     1      17.545  68.915  32.675  1.00  0.00    -0.128 N 
ATOM     13  H3  UNL     1      18.498  69.201  32.450  1.00  0.00     0.205 HD
HETATM   14  N8  UNL     1      16.139  67.810  34.244  1.00  0.00    -0.186 N 
ATOM     15  H8  UNL     1      15.232  67.908  33.787  1.00  0.00     0.184 HD
HETATM   16  C9  UNL     1      16.365  67.201  35.418  1.00  0.00     0.100 A 
ENDROOT
BRANCH  12  17
HETATM   17  N4  UNL     1      16.513  69.225  31.794  1.00  0.00    -0.236 N 
HETATM   18  C8  UNL     1      15.627  70.279  32.138  1.00  0.00     0.352 C 
HETATM   19  O2  UNL     1      15.795  70.891  33.207  1.00  0.00    -0.244 OA
HETATM   20  N5  UNL     1      14.551  70.640  31.272  1.00  0.00    -0.234 N 
ATOM     21  H5  UNL     1      14.403  70.146  30.392  1.00  0.00     0.189 HD
ATOM     22  H4  UNL     1      16.397  68.708  30.923  1.00  0.00     0.192 HD
BRANCH  20  23
HETATM   23  N6  UNL     1      13.710  71.681  31.654  1.00  0.00    -0.026 NA
BRANCH  23  24
HETATM   24  N7  UNL     1      12.967  71.372  32.795  1.00  0.00    -0.329 N 
ATOM     25  H72 UNL     1      13.312  70.757  33.532  1.00  0.00     0.174 HD
ATOM     26  H71 UNL     1      12.056  71.829  32.800  1.00  0.00     0.174 HD
ENDBRANCH  23  24
ENDBRANCH  20  23
ENDBRANCH  12  17
TORSDOF 3
ENDMDL
MODEL 4
REMARK VINA RESULT: -6.933850994      3.972      7.593
REMARK  3 active torsions:
REMARK  status: ('A' for Active; 'I' for Inactive)
REMARK    1  A    between atoms: N3_12  and  N4_14 
REMARK       I    between atoms: N4_14  and  C8_16 
REMARK       I    between atoms: C8_16  and  N5_18 
REMARK    2  A    between atoms: N5_18  and  N6_20 
REMARK    3  A    between atoms: N6_20  and  N7_21 
ROOT
HETATM    1  C1  UNL     1      19.592  67.019  35.238  1.00  0.00     0.050 C 
HETATM    2  C2  UNL     1      18.462  66.594  36.108  1.00  0.00    -0.026 A 
HETATM    3  C3  UNL     1      18.643  65.777  37.204  1.00  0.00     0.083 A 
HETATM    4  C4  UNL     1      17.563  65.398  37.996  1.00  0.00     0.249 A 
HETATM    5  O1  UNL     1      17.702  64.656  38.997  1.00  0.00    -0.268 OA
HETATM    6  N1  UNL     1      16.309  65.815  37.722  1.00  0.00    -0.302 N 
HETATM    7  C5  UNL     1      15.187  65.421  38.548  1.00  0.00     0.161 C 
HETATM    8  C6  UNL     1      16.111  66.611  36.661  1.00  0.00     0.153 A 
HETATM    9  N2  UNL     1      14.984  67.146  36.190  1.00  0.00    -0.173 N 
ATOM     10  H2  UNL     1      14.050  67.029  36.582  1.00  0.00     0.186 HD
HETATM   11  C7  UNL     1      15.304  67.869  35.104  1.00  0.00     0.699 A 
HETATM   12  N3  UNL     1      14.422  68.515  34.419  1.00  0.00    -0.128 N 
ATOM     13  H3  UNL     1      13.444  68.481  34.706  1.00  0.00     0.205 HD
HETATM   14  N8  UNL     1      16.639  67.789  34.887  1.00  0.00    -0.186 N 
ATOM     15  H8  UNL     1      17.150  68.242  34.130  1.00  0.00     0.184 HD
HETATM   16  C9  UNL     1      17.174  67.012  35.841  1.00  0.00     0.100 A 
ENDROOT
BRANCH  12  17
HETATM   17  N4  UNL     1      14.779  69.256  33.296  1.00  0.00    -0.236 N 
HETATM   18  C8  UNL     1      13.840  70.186  32.775  1.00  0.00     0.352 C 
HETATM   19  O2  UNL     1      12.736  70.310  33.332  1.00  0.00    -0.244 OA
HETATM   20  N5  UNL     1      14.153  70.973  31.627  1.00  0.00    -0.234 N 
ATOM     21  H5  UNL     1      15.056  70.880  31.162  1.00  0.00     0.189 HD
ATOM     22  H4  UNL     1      15.692  69.135  32.859  1.00  0.00     0.192 HD
BRANCH  20  23
HETATM   23  N6  UNL     1      13.200  71.870  31.155  1.00  0.00    -0.026 NA
BRANCH  23  24
HETATM   24  N7  UNL     1      13.425  72.235  29.826  1.00  0.00    -0.329 N 
ATOM     25  H72 UNL     1      13.395  73.202  29.504  1.00  0.00     0.174 HD
ATOM     26  H71 UNL     1      13.620  71.431  29.231  1.00  0.00     0.174 HD
ENDBRANCH  23  24
ENDBRANCH  20  23
ENDBRANCH  12  17
TORSDOF 3
ENDMDL
MODEL 5
REMARK VINA RESULT: -6.838099826      3.642      5.739
REMARK  3 active torsions:
REMARK  status: ('A' for Active; 'I' for Inactive)
REMARK    1  A    between atoms: N3_12  and  N4_14 
REMARK       I    between atoms: N4_14  and  C8_16 
REMARK       I    between atoms: C8_16  and  N5_18 
REMARK    2  A    between atoms: N5_18  and  N6_20 
REMARK    3  A    between atoms: N6_20  and  N7_21 
ROOT
HETATM    1  C1  UNL     1      19.476  65.872  36.878  1.00  0.00     0.050 C 
HETATM    2  C2  UNL     1      18.235  66.472  36.318  1.00  0.00    -0.026 A 
HETATM    3  C3  UNL     1      18.249  67.294  35.211  1.00  0.00     0.083 A 
HETATM    4  C4  UNL     1      17.070  67.840  34.714  1.00  0.00     0.249 A 
HETATM    5  O1  UNL     1      17.057  68.590  33.709  1.00  0.00    -0.268 OA
HETATM    6  N1  UNL     1      15.877  67.584  35.293  1.00  0.00    -0.302 N 
HETATM    7  C5  UNL     1      14.651  68.152  34.772  1.00  0.00     0.161 C 
HETATM    8  C6  UNL     1      15.841  66.787  36.370  1.00  0.00     0.153 A 
HETATM    9  N2  UNL     1      14.803  66.391  37.107  1.00  0.00    -0.173 N 
ATOM     10  H2  UNL     1      13.826  66.644  36.960  1.00  0.00     0.186 HD
HETATM   11  C7  UNL     1      15.279  65.596  38.080  1.00  0.00     0.699 A 
HETATM   12  N3  UNL     1      14.514  65.050  38.963  1.00  0.00    -0.128 N 
ATOM     13  H3  UNL     1      13.510  65.223  38.929  1.00  0.00     0.205 HD
HETATM   14  N8  UNL     1      16.624  65.490  37.956  1.00  0.00    -0.186 N 
ATOM     15  H8  UNL     1      17.240  64.948  38.562  1.00  0.00     0.184 HD
HETATM   16  C9  UNL     1      17.008  66.221  36.898  1.00  0.00     0.100 A 
ENDROOT
BRANCH  12  17
HETATM   17  N4  UNL     1      15.032  64.230  39.962  1.00  0.00    -0.236 N 
HETATM   18  C8  UNL     1      14.631  62.869  39.993  1.00  0.00     0.352 C 
HETATM   19  O2  UNL     1      13.835  62.450  39.135  1.00  0.00    -0.244 OA
HETATM   20  N5  UNL     1      15.131  61.983  40.994  1.00  0.00    -0.234 N 
ATOM     21  H5  UNL     1      15.785  62.315  41.704  1.00  0.00     0.189 HD
ATOM     22  H4  UNL     1      15.684  64.599  40.654  1.00  0.00     0.192 HD
BRANCH  20  23
HETATM   23  N6  UNL     1      14.708  60.658  40.982  1.00  0.00    -0.026 NA
BRANCH  23  24
HETATM   24  N7  UNL     1      15.776  59.759  40.970  1.00  0.00    -0.329 N 
ATOM     25  H72 UNL     1      15.650  58.747  40.979  1.00  0.00     0.174 HD
ATOM     26  H71 UNL     1      16.680  60.230  40.953  1.00  0.00     0.174 HD
ENDBRANCH  23  24
ENDBRANCH  20  23
ENDBRANCH  12  17
TORSDOF 3
ENDMDL
