MODEL 1
REMARK VINA RESULT: -3.995858577      0.000      0.000
REMARK  1 active torsions:
REMARK  status: ('A' for Active; 'I' for Inactive)
REMARK    1  A    between atoms: C3_3  and  N1_4 
ROOT
HETATM    1  C1  UNL     1       8.147  50.377  52.784  1.00  0.00     0.013 C 
HETATM    2  C2  UNL     1       7.828  50.081  53.910  1.00  0.00    -0.089 C 
HETATM    3  C3  UNL     1       7.428  49.744  55.274  1.00  0.00     0.332 C 
ENDROOT
BRANCH   3   4
HETATM    4  N1  UNL     1       7.884  48.507  55.693  1.00  0.00    -0.029 N 
HETATM    5  C4  UNL     1       8.504  47.600  54.754  1.00  0.00     0.469 C 
HETATM    6  N2  UNL     1       8.797  46.465  55.655  1.00  0.00    -0.043 N 
HETATM    7  C5  UNL     1       8.184  46.919  56.846  1.00  0.00     0.239 C 
ATOM      8  H22 UNL     1       8.495  45.549  55.324  1.00  0.00     0.279 HD
ATOM      9  H21 UNL     1       9.781  46.207  55.735  1.00  0.00     0.279 HD
HETATM   10  C6  UNL     1       8.651  48.382  56.912  1.00  0.00     0.275 C 
HETATM   11  C7  UNL     1       6.927  47.598  56.349  1.00  0.00     0.275 C 
ENDBRANCH   3   4
TORSDOF 1
ENDMDL
MODEL 2
REMARK VINA RESULT: -3.435333262      3.248      4.766
REMARK  1 active torsions:
REMARK  status: ('A' for Active; 'I' for Inactive)
REMARK    1  A    between atoms: C3_3  and  N1_4 
ROOT
HETATM    1  C1  UNL     1      12.256  48.866  60.069  1.00  0.00     0.013 C 
HETATM    2  C2  UNL     1      11.126  48.504  59.846  1.00  0.00    -0.089 C 
HETATM    3  C3  UNL     1       9.750  48.086  59.587  1.00  0.00     0.332 C 
ENDROOT
BRANCH   3   4
HETATM    4  N1  UNL     1       9.651  47.034  58.694  1.00  0.00    -0.029 N 
HETATM    5  C4  UNL     1       9.075  47.240  57.384  1.00  0.00     0.469 C 
HETATM    6  N2  UNL     1       9.188  45.869  56.842  1.00  0.00    -0.043 N 
HETATM    7  C5  UNL     1       9.676  45.183  57.979  1.00  0.00     0.239 C 
ATOM      8  H22 UNL     1       8.338  45.488  56.426  1.00  0.00     0.279 HD
ATOM      9  H21 UNL     1       9.747  45.774  55.994  1.00  0.00     0.279 HD
HETATM   10  C6  UNL     1      10.767  46.139  58.487  1.00  0.00     0.275 C 
HETATM   11  C7  UNL     1       8.921  45.827  59.120  1.00  0.00     0.275 C 
ENDBRANCH   3   4
TORSDOF 1
ENDMDL
MODEL 3
REMARK VINA RESULT: -3.401101539      2.370      3.583
REMARK  1 active torsions:
REMARK  status: ('A' for Active; 'I' for Inactive)
REMARK    1  A    between atoms: C3_3  and  N1_4 
ROOT
HETATM    1  C1  UNL     1       8.200  47.763  54.757  1.00  0.00     0.013 C 
HETATM    2  C2  UNL     1       8.092  47.132  55.781  1.00  0.00    -0.089 C 
HETATM    3  C3  UNL     1       7.943  46.355  57.009  1.00  0.00     0.332 C 
ENDROOT
BRANCH   3   4
HETATM    4  N1  UNL     1       8.928  46.610  57.947  1.00  0.00    -0.029 N 
HETATM    5  C4  UNL     1       9.325  47.970  58.238  1.00  0.00     0.469 C 
HETATM    6  N2  UNL     1      10.366  47.715  59.256  1.00  0.00    -0.043 N 
HETATM    7  C5  UNL     1      10.412  46.301  59.228  1.00  0.00     0.239 C 
ATOM      8  H22 UNL     1      11.256  48.190  59.106  1.00  0.00     0.279 HD
ATOM      9  H21 UNL     1      10.200  48.134  60.171  1.00  0.00     0.279 HD
HETATM   10  C6  UNL     1       8.921  45.931  59.223  1.00  0.00     0.275 C 
HETATM   11  C7  UNL     1      10.247  45.981  57.759  1.00  0.00     0.275 C 
ENDBRANCH   3   4
TORSDOF 1
ENDMDL
MODEL 4
REMARK VINA RESULT: -3.400709678      1.115      1.785
REMARK  1 active torsions:
REMARK  status: ('A' for Active; 'I' for Inactive)
REMARK    1  A    between atoms: C3_3  and  N1_4 
ROOT
HETATM    1  C1  UNL     1       7.819  50.869  54.442  1.00  0.00     0.013 C 
HETATM    2  C2  UNL     1       7.441  50.074  55.268  1.00  0.00    -0.089 C 
HETATM    3  C3  UNL     1       6.961  49.122  56.267  1.00  0.00     0.332 C 
ENDROOT
BRANCH   3   4
HETATM    4  N1  UNL     1       7.837  48.077  56.499  1.00  0.00    -0.029 N 
HETATM    5  C4  UNL     1       8.865  48.196  57.509  1.00  0.00     0.469 C 
HETATM    6  N2  UNL     1       9.510  46.873  57.368  1.00  0.00    -0.043 N 
HETATM    7  C5  UNL     1       8.802  46.360  56.256  1.00  0.00     0.239 C 
ATOM      8  H22 UNL     1      10.526  46.885  57.279  1.00  0.00     0.279 HD
ATOM      9  H21 UNL     1       9.505  46.288  58.204  1.00  0.00     0.279 HD
HETATM   10  C6  UNL     1       7.350  46.720  56.604  1.00  0.00     0.275 C 
HETATM   11  C7  UNL     1       8.633  47.571  55.367  1.00  0.00     0.275 C 
ENDBRANCH   3   4
TORSDOF 1
ENDMDL
MODEL 5
REMARK VINA RESULT: -3.397610235      4.257      6.035
REMARK  1 active torsions:
REMARK  status: ('A' for Active; 'I' for Inactive)
REMARK    1  A    between atoms: C3_3  and  N1_4 
ROOT
HETATM    1  C1  UNL     1      14.200  47.465  59.890  1.00  0.00     0.013 C 
HETATM    2  C2  UNL     1      13.111  47.031  60.179  1.00  0.00    -0.089 C 
HETATM    3  C3  UNL     1      11.801  46.501  60.551  1.00  0.00     0.332 C 
ENDROOT
BRANCH   3   4
HETATM    4  N1  UNL     1      10.803  46.810  59.645  1.00  0.00    -0.029 N 
HETATM    5  C4  UNL     1      10.534  48.187  59.295  1.00  0.00     0.469 C 
HETATM    6  N2  UNL     1       9.422  47.992  58.340  1.00  0.00    -0.043 N 
HETATM    7  C5  UNL     1       9.231  46.594  58.451  1.00  0.00     0.239 C 
ATOM      8  H22 UNL     1       8.595  48.565  58.503  1.00  0.00     0.279 HD
ATOM      9  H21 UNL     1       9.585  48.342  57.396  1.00  0.00     0.279 HD
HETATM   10  C6  UNL     1      10.674  46.068  58.411  1.00  0.00     0.275 C 
HETATM   11  C7  UNL     1       9.436  46.336  59.927  1.00  0.00     0.275 C 
ENDBRANCH   3   4
TORSDOF 1
ENDMDL
