MODEL 1
REMARK VINA RESULT: -2.903422540      0.000      0.000
REMARK  0 active torsions:
REMARK  status: ('A' for Active; 'I' for Inactive)
ROOT
HETATM    1  C1  UNL     1      11.523  47.101  59.689  1.00  0.00     0.272 C 
HETATM    2  N1  UNL     1      10.078  46.979  59.573  1.00  0.00    -0.069 N 
HETATM    3  C2  UNL     1       9.527  47.408  60.871  1.00  0.00     0.272 C 
HETATM    4  C3  UNL     1       9.567  47.775  58.514  1.00  0.00     0.280 C 
HETATM    5  C4  UNL     1       9.012  47.084  57.344  1.00  0.00     0.083 C 
HETATM    6  N2  UNL     1       9.365  45.747  57.100  1.00  0.00    -0.399 N 
ATOM      7  H2  UNL     1       9.120  45.298  56.217  1.00  0.00     0.158 HD
HETATM    8  C5  UNL     1      10.064  45.039  58.100  1.00  0.00     0.146 C 
HETATM    9  C6  UNL     1       9.682  45.576  59.454  1.00  0.00     0.256 C 
ENDROOT
TORSDOF 0
ENDMDL
MODEL 2
REMARK VINA RESULT: -2.859187483      9.311     10.073
REMARK  0 active torsions:
REMARK  status: ('A' for Active; 'I' for Inactive)
ROOT
HETATM    1  C1  UNL     1       3.811  52.082  62.408  1.00  0.00     0.272 C 
HETATM    2  N1  UNL     1       2.692  52.745  61.755  1.00  0.00    -0.069 N 
HETATM    3  C2  UNL     1       2.950  54.192  61.873  1.00  0.00     0.272 C 
HETATM    4  C3  UNL     1       2.575  52.357  60.393  1.00  0.00     0.280 C 
HETATM    5  C4  UNL     1       1.409  51.553  60.009  1.00  0.00     0.083 C 
HETATM    6  N2  UNL     1       0.700  50.849  60.994  1.00  0.00    -0.399 N 
ATOM      7  H2  UNL     1      -0.011  50.165  60.735  1.00  0.00     0.158 HD
HETATM    8  C5  UNL     1       0.990  51.107  62.351  1.00  0.00     0.146 C 
HETATM    9  C6  UNL     1       1.453  52.533  62.501  1.00  0.00     0.256 C 
ENDROOT
TORSDOF 0
ENDMDL
MODEL 3
REMARK VINA RESULT: -2.853081431      2.759      4.340
REMARK  0 active torsions:
REMARK  status: ('A' for Active; 'I' for Inactive)
ROOT
HETATM    1  C1  UNL     1       7.307  46.301  56.749  1.00  0.00     0.272 C 
HETATM    2  N1  UNL     1       8.381  47.212  56.383  1.00  0.00    -0.069 N 
HETATM    3  C2  UNL     1       9.598  46.690  57.031  1.00  0.00     0.272 C 
HETATM    4  C3  UNL     1       8.547  47.291  54.975  1.00  0.00     0.280 C 
HETATM    5  C4  UNL     1       8.201  48.555  54.315  1.00  0.00     0.083 C 
HETATM    6  N2  UNL     1       7.354  49.465  54.965  1.00  0.00    -0.399 N 
ATOM      7  H2  UNL     1       6.976  50.271  54.467  1.00  0.00     0.158 HD
HETATM    8  C5  UNL     1       7.036  49.242  56.321  1.00  0.00     0.146 C 
HETATM    9  C6  UNL     1       8.178  48.526  56.992  1.00  0.00     0.256 C 
ENDROOT
TORSDOF 0
ENDMDL
MODEL 4
REMARK VINA RESULT: -2.841648852      1.413      2.516
REMARK  0 active torsions:
REMARK  status: ('A' for Active; 'I' for Inactive)
ROOT
HETATM    1  C1  UNL     1       8.756  45.753  60.195  1.00  0.00     0.272 C 
HETATM    2  N1  UNL     1       9.367  45.684  58.876  1.00  0.00    -0.069 N 
HETATM    3  C2  UNL     1      10.256  44.508  58.900  1.00  0.00     0.272 C 
HETATM    4  C3  UNL     1       8.392  45.565  57.850  1.00  0.00     0.280 C 
HETATM    5  C4  UNL     1       8.219  46.699  56.936  1.00  0.00     0.083 C 
HETATM    6  N2  UNL     1       8.671  47.972  57.319  1.00  0.00    -0.399 N 
ATOM      7  H2  UNL     1       8.424  48.798  56.774  1.00  0.00     0.158 HD
HETATM    8  C5  UNL     1       9.473  48.084  58.474  1.00  0.00     0.146 C 
HETATM    9  C6  UNL     1      10.266  46.817  58.659  1.00  0.00     0.256 C 
ENDROOT
TORSDOF 0
ENDMDL
MODEL 5
REMARK VINA RESULT: -2.779338309      8.460      9.358
REMARK  0 active torsions:
REMARK  status: ('A' for Active; 'I' for Inactive)
ROOT
HETATM    1  C1  UNL     1       4.180  50.932  61.013  1.00  0.00     0.272 C 
HETATM    2  N1  UNL     1       2.970  50.397  61.620  1.00  0.00    -0.069 N 
HETATM    3  C2  UNL     1       3.334  49.075  62.160  1.00  0.00     0.272 C 
HETATM    4  C3  UNL     1       2.476  51.248  62.645  1.00  0.00     0.280 C 
HETATM    5  C4  UNL     1       1.205  51.941  62.405  1.00  0.00     0.083 C 
HETATM    6  N2  UNL     1       0.740  52.097  61.090  1.00  0.00    -0.399 N 
ATOM      7  H2  UNL     1      -0.053  52.706  60.887  1.00  0.00     0.158 HD
HETATM    8  C5  UNL     1       1.392  51.393  60.055  1.00  0.00     0.146 C 
HETATM    9  C6  UNL     1       1.961  50.111  60.602  1.00  0.00     0.256 C 
ENDROOT
TORSDOF 0
ENDMDL
