MODEL 1
REMARK VINA RESULT: -6.760081135      0.000      0.000
REMARK  3 active torsions:
REMARK  status: ('A' for Active; 'I' for Inactive)
REMARK    1  A    between atoms: C3_5  and  C4_6 
REMARK    2  A    between atoms: N2_10  and  C8_11 
REMARK    3  A    between atoms: C8_11  and  O1_12 
ROOT
HETATM    1  C1  UNL     1      -7.484  65.094  15.310  1.00  0.00     0.037 C 
HETATM    2  C2  UNL     1      -6.720  65.670  14.578  1.00  0.00    -0.001 C 
HETATM    3  N1  UNL     1      -5.829  66.337  13.695  1.00  0.00    -0.326 N 
ATOM      4  H1  UNL     1      -5.601  65.939  12.784  1.00  0.00     0.175 HD
HETATM    5  C3  UNL     1      -5.324  67.440  14.066  1.00  0.00     0.110 C 
ENDROOT
BRANCH   5   6
HETATM    6  C4  UNL     1      -4.409  68.174  13.216  1.00  0.00    -0.004 A 
HETATM    7  C5  UNL     1      -3.743  69.317  13.588  1.00  0.00     0.015 A 
HETATM    8  C6  UNL     1      -2.869  69.974  12.706  1.00  0.00     0.018 A 
HETATM    9  C7  UNL     1      -2.668  69.474  11.440  1.00  0.00     0.096 A 
HETATM   10  N2  UNL     1      -3.311  68.370  11.078  1.00  0.00    -0.303 N 
HETATM   11  C9  UNL     1      -4.147  67.740  11.920  1.00  0.00     0.109 A 
BRANCH  10  12
HETATM   12  C8  UNL     1      -3.146  67.791   9.767  1.00  0.00     0.329 C 
HETATM   13  N3  UNL     1      -3.761  66.521   9.543  1.00  0.00    -0.050 NA
HETATM   14  N4  UNL     1      -4.050  66.962   8.235  1.00  0.00    -0.028 NA
HETATM   15  N5  UNL     1      -4.125  68.259   8.775  1.00  0.00    -0.050 NA
BRANCH  12  16
HETATM   16  O1  UNL     1      -1.886  67.873   9.238  1.00  0.00    -0.341 OA
ATOM     17  H1  UNL     1      -1.437  67.044   9.117  1.00  0.00     0.215 HD
ENDBRANCH  12  16
ENDBRANCH  10  12
ENDBRANCH   5   6
TORSDOF 3
ENDMDL
MODEL 2
REMARK VINA RESULT: -6.656292216      1.068      1.217
REMARK  3 active torsions:
REMARK  status: ('A' for Active; 'I' for Inactive)
REMARK    1  A    between atoms: C3_5  and  C4_6 
REMARK    2  A    between atoms: N2_10  and  C8_11 
REMARK    3  A    between atoms: C8_11  and  O1_12 
ROOT
HETATM    1  C1  UNL     1      -7.541  65.288  16.039  1.00  0.00     0.037 C 
HETATM    2  C2  UNL     1      -6.876  65.796  15.173  1.00  0.00    -0.001 C 
HETATM    3  N1  UNL     1      -6.107  66.387  14.134  1.00  0.00    -0.326 N 
ATOM      4  H1  UNL     1      -6.153  66.026  13.182  1.00  0.00     0.175 HD
HETATM    5  C3  UNL     1      -5.364  67.374  14.420  1.00  0.00     0.110 C 
ENDROOT
BRANCH   5   6
HETATM    6  C4  UNL     1      -4.555  68.024  13.409  1.00  0.00    -0.004 A 
HETATM    7  C5  UNL     1      -3.699  69.073  13.649  1.00  0.00     0.015 A 
HETATM    8  C6  UNL     1      -2.945  69.653  12.616  1.00  0.00     0.018 A 
HETATM    9  C7  UNL     1      -3.057  69.171  11.332  1.00  0.00     0.096 A 
HETATM   10  N2  UNL     1      -3.883  68.158  11.097  1.00  0.00    -0.303 N 
HETATM   11  C9  UNL     1      -4.605  67.602  12.084  1.00  0.00     0.109 A 
BRANCH  10  12
HETATM   12  C8  UNL     1      -4.049  67.604   9.775  1.00  0.00     0.329 C 
HETATM   13  N3  UNL     1      -4.431  68.513   8.740  1.00  0.00    -0.050 NA
HETATM   14  N4  UNL     1      -3.594  67.780   7.874  1.00  0.00    -0.028 NA
HETATM   15  N5  UNL     1      -2.802  67.505   9.004  1.00  0.00    -0.050 NA
BRANCH  12  16
HETATM   16  O1  UNL     1      -4.721  66.413   9.713  1.00  0.00    -0.341 OA
ATOM     17  H1  UNL     1      -4.627  65.931   8.900  1.00  0.00     0.215 HD
ENDBRANCH  12  16
ENDBRANCH  10  12
ENDBRANCH   5   6
TORSDOF 3
ENDMDL
MODEL 3
REMARK VINA RESULT: -6.598217983      2.999      4.829
REMARK  3 active torsions:
REMARK  status: ('A' for Active; 'I' for Inactive)
REMARK    1  A    between atoms: C3_5  and  C4_6 
REMARK    2  A    between atoms: N2_10  and  C8_11 
REMARK    3  A    between atoms: C8_11  and  O1_12 
ROOT
HETATM    1  C1  UNL     1      -6.553  63.320   7.459  1.00  0.00     0.037 C 
HETATM    2  C2  UNL     1      -5.766  63.940   8.128  1.00  0.00    -0.001 C 
HETATM    3  N1  UNL     1      -4.824  64.651   8.918  1.00  0.00    -0.326 N 
ATOM      4  H1  UNL     1      -4.214  64.159   9.570  1.00  0.00     0.175 HD
HETATM    5  C3  UNL     1      -4.761  65.912   8.794  1.00  0.00     0.110 C 
ENDROOT
BRANCH   5   6
HETATM    6  C4  UNL     1      -3.823  66.698   9.569  1.00  0.00    -0.004 A 
HETATM    7  C5  UNL     1      -2.498  66.874   9.246  1.00  0.00     0.015 A 
HETATM    8  C6  UNL     1      -1.647  67.653  10.048  1.00  0.00     0.018 A 
HETATM    9  C7  UNL     1      -2.138  68.256  11.184  1.00  0.00     0.096 A 
HETATM   10  N2  UNL     1      -3.417  68.087  11.498  1.00  0.00    -0.303 N 
HETATM   11  C9  UNL     1      -4.232  67.343  10.732  1.00  0.00     0.109 A 
BRANCH  10  12
HETATM   12  C8  UNL     1      -3.996  68.691  12.674  1.00  0.00     0.329 C 
HETATM   13  N3  UNL     1      -3.122  68.903  13.785  1.00  0.00    -0.050 NA
HETATM   14  N4  UNL     1      -3.822  70.103  14.025  1.00  0.00    -0.028 NA
HETATM   15  N5  UNL     1      -4.041  70.159  12.636  1.00  0.00    -0.050 NA
BRANCH  12  16
HETATM   16  O1  UNL     1      -5.221  68.205  13.045  1.00  0.00    -0.341 OA
ATOM     17  H1  UNL     1      -5.372  68.146  13.982  1.00  0.00     0.215 HD
ENDBRANCH  12  16
ENDBRANCH  10  12
ENDBRANCH   5   6
TORSDOF 3
ENDMDL
MODEL 4
REMARK VINA RESULT: -6.301048085      1.927      4.230
REMARK  3 active torsions:
REMARK  status: ('A' for Active; 'I' for Inactive)
REMARK    1  A    between atoms: C3_5  and  C4_6 
REMARK    2  A    between atoms: N2_10  and  C8_11 
REMARK    3  A    between atoms: C8_11  and  O1_12 
ROOT
HETATM    1  C1  UNL     1      -0.717  73.222  14.850  1.00  0.00     0.037 C 
HETATM    2  C2  UNL     1      -1.241  72.189  14.518  1.00  0.00    -0.001 C 
HETATM    3  N1  UNL     1      -1.862  70.965  14.151  1.00  0.00    -0.326 N 
ATOM      4  H1  UNL     1      -1.860  70.168  14.787  1.00  0.00     0.175 HD
HETATM    5  C3  UNL     1      -2.419  70.887  13.014  1.00  0.00     0.110 C 
ENDROOT
BRANCH   5   6
HETATM    6  C4  UNL     1      -3.070  69.670  12.577  1.00  0.00    -0.004 A 
HETATM    7  C5  UNL     1      -3.863  68.879  13.375  1.00  0.00     0.015 A 
HETATM    8  C6  UNL     1      -4.463  67.709  12.880  1.00  0.00     0.018 A 
HETATM    9  C7  UNL     1      -4.261  67.337  11.570  1.00  0.00     0.096 A 
HETATM   10  N2  UNL     1      -3.496  68.099  10.798  1.00  0.00    -0.303 N 
HETATM   11  C9  UNL     1      -2.921  69.218  11.270  1.00  0.00     0.109 A 
BRANCH  10  12
HETATM   12  C8  UNL     1      -3.242  67.767   9.417  1.00  0.00     0.329 C 
HETATM   13  N3  UNL     1      -3.880  66.593   8.910  1.00  0.00    -0.050 NA
HETATM   14  N4  UNL     1      -4.044  67.283   7.691  1.00  0.00    -0.028 NA
HETATM   15  N5  UNL     1      -4.119  68.459   8.461  1.00  0.00    -0.050 NA
BRANCH  12  16
HETATM   16  O1  UNL     1      -1.941  67.884   9.009  1.00  0.00    -0.341 OA
ATOM     17  H1  UNL     1      -1.463  68.622   9.370  1.00  0.00     0.215 HD
ENDBRANCH  12  16
ENDBRANCH  10  12
ENDBRANCH   5   6
TORSDOF 3
ENDMDL
MODEL 5
REMARK VINA RESULT: -6.153291452      1.860      2.636
REMARK  3 active torsions:
REMARK  status: ('A' for Active; 'I' for Inactive)
REMARK    1  A    between atoms: C3_5  and  C4_6 
REMARK    2  A    between atoms: N2_10  and  C8_11 
REMARK    3  A    between atoms: C8_11  and  O1_12 
ROOT
HETATM    1  C1  UNL     1      -6.141  67.711  15.613  1.00  0.00     0.037 C 
HETATM    2  C2  UNL     1      -5.614  67.490  14.552  1.00  0.00    -0.001 C 
HETATM    3  N1  UNL     1      -5.011  67.214  13.296  1.00  0.00    -0.326 N 
ATOM      4  H1  UNL     1      -5.207  66.343  12.803  1.00  0.00     0.175 HD
HETATM    5  C3  UNL     1      -4.222  68.076  12.801  1.00  0.00     0.110 C 
ENDROOT
BRANCH   5   6
HETATM    6  C4  UNL     1      -3.575  67.859  11.524  1.00  0.00    -0.004 A 
HETATM    7  C5  UNL     1      -2.216  67.916  11.318  1.00  0.00     0.015 A 
HETATM    8  C6  UNL     1      -1.660  67.693  10.048  1.00  0.00     0.018 A 
HETATM    9  C7  UNL     1      -2.481  67.412   8.979  1.00  0.00     0.096 A 
HETATM   10  N2  UNL     1      -3.792  67.357   9.175  1.00  0.00    -0.303 N 
HETATM   11  C9  UNL     1      -4.327  67.570  10.390  1.00  0.00     0.109 A 
BRANCH  10  12
HETATM   12  C8  UNL     1      -4.710  67.068   8.100  1.00  0.00     0.329 C 
HETATM   13  N3  UNL     1      -5.778  67.996   7.899  1.00  0.00    -0.050 NA
HETATM   14  N4  UNL     1      -5.625  67.775   6.515  1.00  0.00    -0.028 NA
HETATM   15  N5  UNL     1      -4.263  67.544   6.783  1.00  0.00    -0.050 NA
BRANCH  12  16
HETATM   16  O1  UNL     1      -5.112  65.763   8.001  1.00  0.00    -0.341 OA
ATOM     17  H1  UNL     1      -5.848  65.603   7.421  1.00  0.00     0.215 HD
ENDBRANCH  12  16
ENDBRANCH  10  12
ENDBRANCH   5   6
TORSDOF 3
ENDMDL
