MODEL 1
REMARK VINA RESULT: -6.050230200      0.000      0.000
REMARK  3 active torsions:
REMARK  status: ('A' for Active; 'I' for Inactive)
REMARK       I    between atoms: C1_4  and  N3_6 
REMARK    1  A    between atoms: N3_6  and  C2_8 
REMARK    2  A    between atoms: C4_12  and  S1_13 
REMARK    3  A    between atoms: S1_13  and  N5_14 
ROOT
HETATM    1  C2  UNL     1      -3.619  67.199  10.188  1.00  0.00     0.684 A 
HETATM    2  N4  UNL     1      -4.328  66.822  11.247  1.00  0.00    -0.200 N 
ATOM      3  H4  UNL     1      -4.858  65.952  11.209  1.00  0.00     0.183 HD
HETATM    4  C3  UNL     1      -4.360  67.564  12.368  1.00  0.00     0.132 A 
HETATM    5  C4  UNL     1      -3.643  68.731  12.407  1.00  0.00     0.111 A 
HETATM    6  C5  UNL     1      -2.910  69.114  11.303  1.00  0.00     0.132 A 
HETATM    7  N6  UNL     1      -2.911  68.337  10.206  1.00  0.00    -0.200 N 
ATOM      8  H6  UNL     1      -2.370  68.613   9.386  1.00  0.00     0.183 HD
ENDROOT
BRANCH   1   9
HETATM    9  N3  UNL     1      -3.618  66.444   9.118  1.00  0.00    -0.164 N 
HETATM   10  C1  UNL     1      -4.775  65.796   8.648  1.00  0.00     0.200 C 
HETATM   11  N1  UNL     1      -5.724  66.478   8.057  1.00  0.00    -0.373 N 
HETATM   12  N2  UNL     1      -5.002  64.404   8.772  1.00  0.00    -0.063 NA
ATOM     13  H12 UNL     1      -6.563  66.008   7.716  1.00  0.00     0.158 HD
ATOM     14  H11 UNL     1      -5.561  67.481   7.968  1.00  0.00     0.158 HD
ATOM     15  H3  UNL     1      -2.745  66.321   8.605  1.00  0.00     0.187 HD
ENDBRANCH   1   9
BRANCH   5  16
HETATM   16  S1  UNL     1      -3.599  69.785  13.797  1.00  0.00     0.259 S 
HETATM   17  O1  UNL     1      -4.289  71.076  13.376  1.00  0.00    -0.201 OA
HETATM   18  O2  UNL     1      -2.166  70.150  14.050  1.00  0.00    -0.201 OA
BRANCH  16  19
HETATM   19  N5  UNL     1      -4.340  69.116  15.168  1.00  0.00    -0.324 N 
ATOM     20  H52 UNL     1      -5.311  69.308  15.415  1.00  0.00     0.169 HD
ATOM     21  H51 UNL     1      -3.719  68.513  15.707  1.00  0.00     0.169 HD
ENDBRANCH  16  19
ENDBRANCH   5  16
TORSDOF 3
ENDMDL
MODEL 2
REMARK VINA RESULT: -6.040975661      0.079      1.257
REMARK  3 active torsions:
REMARK  status: ('A' for Active; 'I' for Inactive)
REMARK       I    between atoms: C1_4  and  N3_6 
REMARK    1  A    between atoms: N3_6  and  C2_8 
REMARK    2  A    between atoms: C4_12  and  S1_13 
REMARK    3  A    between atoms: S1_13  and  N5_14 
ROOT
HETATM    1  C2  UNL     1      -3.579  67.210  10.195  1.00  0.00     0.684 A 
HETATM    2  N4  UNL     1      -2.844  68.317  10.199  1.00  0.00    -0.200 N 
ATOM      3  H4  UNL     1      -2.294  68.553   9.373  1.00  0.00     0.183 HD
HETATM    4  C3  UNL     1      -2.810  69.131  11.268  1.00  0.00     0.132 A 
HETATM    5  C4  UNL     1      -3.554  68.803  12.370  1.00  0.00     0.111 A 
HETATM    6  C5  UNL     1      -4.315  67.652  12.357  1.00  0.00     0.132 A 
HETATM    7  N6  UNL     1      -4.315  66.872  11.263  1.00  0.00    -0.200 N 
ATOM      8  H6  UNL     1      -4.876  66.020  11.245  1.00  0.00     0.183 HD
ENDROOT
BRANCH   1   9
HETATM    9  N3  UNL     1      -3.581  66.447   9.130  1.00  0.00    -0.164 N 
HETATM   10  C1  UNL     1      -4.744  65.813   8.656  1.00  0.00     0.200 C 
HETATM   11  N1  UNL     1      -5.678  66.504   8.052  1.00  0.00    -0.373 N 
HETATM   12  N2  UNL     1      -4.993  64.426   8.789  1.00  0.00    -0.063 NA
ATOM     13  H12 UNL     1      -6.522  66.044   7.709  1.00  0.00     0.158 HD
ATOM     14  H11 UNL     1      -5.499  67.504   7.957  1.00  0.00     0.158 HD
ATOM     15  H3  UNL     1      -2.706  66.307   8.626  1.00  0.00     0.187 HD
ENDBRANCH   1   9
BRANCH   5  16
HETATM   16  S1  UNL     1      -3.600  69.771  13.822  1.00  0.00     0.259 S 
HETATM   17  O1  UNL     1      -4.315  71.064  13.450  1.00  0.00    -0.201 OA
HETATM   18  O2  UNL     1      -2.191  70.162  14.155  1.00  0.00    -0.201 OA
BRANCH  16  19
HETATM   19  N5  UNL     1      -4.373  68.998  15.118  1.00  0.00    -0.324 N 
ATOM     20  H52 UNL     1      -4.630  68.011  15.094  1.00  0.00     0.169 HD
ATOM     21  H51 UNL     1      -4.550  69.617  15.909  1.00  0.00     0.169 HD
ENDBRANCH  16  19
ENDBRANCH   5  16
TORSDOF 3
ENDMDL
MODEL 3
REMARK VINA RESULT: -6.021356690      1.034      1.281
REMARK  3 active torsions:
REMARK  status: ('A' for Active; 'I' for Inactive)
REMARK       I    between atoms: C1_4  and  N3_6 
REMARK    1  A    between atoms: N3_6  and  C2_8 
REMARK    2  A    between atoms: C4_12  and  S1_13 
REMARK    3  A    between atoms: S1_13  and  N5_14 
ROOT
HETATM    1  C2  UNL     1      -3.562  67.269  10.202  1.00  0.00     0.684 A 
HETATM    2  N4  UNL     1      -4.294  66.963  11.267  1.00  0.00    -0.200 N 
ATOM      3  H4  UNL     1      -4.834  66.097  11.269  1.00  0.00     0.183 HD
HETATM    4  C3  UNL     1      -4.339  67.770  12.342  1.00  0.00     0.132 A 
HETATM    5  C4  UNL     1      -3.610  68.929  12.326  1.00  0.00     0.111 A 
HETATM    6  C5  UNL     1      -2.852  69.239  11.216  1.00  0.00     0.132 A 
HETATM    7  N6  UNL     1      -2.841  68.399  10.168  1.00  0.00    -0.200 N 
ATOM      8  H6  UNL     1      -2.282  68.621   9.344  1.00  0.00     0.183 HD
ENDROOT
BRANCH   1   9
HETATM    9  N3  UNL     1      -3.549  66.453   9.178  1.00  0.00    -0.164 N 
HETATM   10  C1  UNL     1      -4.708  65.805   8.713  1.00  0.00     0.200 C 
HETATM   11  N1  UNL     1      -5.623  66.473   8.055  1.00  0.00    -0.373 N 
HETATM   12  N2  UNL     1      -4.973  64.429   8.910  1.00  0.00    -0.063 NA
ATOM     13  H12 UNL     1      -6.464  66.004   7.717  1.00  0.00     0.158 HD
ATOM     14  H11 UNL     1      -5.432  67.465   7.912  1.00  0.00     0.158 HD
ATOM     15  H3  UNL     1      -2.665  66.280   8.699  1.00  0.00     0.187 HD
ENDBRANCH   1   9
BRANCH   5  16
HETATM   16  S1  UNL     1      -3.580  70.062  13.653  1.00  0.00     0.259 S 
HETATM   17  O1  UNL     1      -2.159  70.040  14.202  1.00  0.00    -0.201 OA
HETATM   18  O2  UNL     1      -4.450  69.513  14.744  1.00  0.00    -0.201 OA
BRANCH  16  19
HETATM   19  N5  UNL     1      -4.034  71.633  13.203  1.00  0.00    -0.324 N 
ATOM     20  H52 UNL     1      -4.474  71.840  12.305  1.00  0.00     0.169 HD
ATOM     21  H51 UNL     1      -3.824  72.333  13.914  1.00  0.00     0.169 HD
ENDBRANCH  16  19
ENDBRANCH   5  16
TORSDOF 3
ENDMDL
MODEL 4
REMARK VINA RESULT: -5.997772836      0.980      1.722
REMARK  3 active torsions:
REMARK  status: ('A' for Active; 'I' for Inactive)
REMARK       I    between atoms: C1_4  and  N3_6 
REMARK    1  A    between atoms: N3_6  and  C2_8 
REMARK    2  A    between atoms: C4_12  and  S1_13 
REMARK    3  A    between atoms: S1_13  and  N5_14 
ROOT
HETATM    1  C2  UNL     1      -3.563  67.244  10.205  1.00  0.00     0.684 A 
HETATM    2  N4  UNL     1      -2.832  68.353  10.203  1.00  0.00    -0.200 N 
ATOM      3  H4  UNL     1      -2.288  68.591   9.373  1.00  0.00     0.183 HD
HETATM    4  C3  UNL     1      -2.795  69.169  11.271  1.00  0.00     0.132 A 
HETATM    5  C4  UNL     1      -3.531  68.840  12.378  1.00  0.00     0.111 A 
HETATM    6  C5  UNL     1      -4.287  67.686  12.371  1.00  0.00     0.132 A 
HETATM    7  N6  UNL     1      -4.290  66.904  11.278  1.00  0.00    -0.200 N 
ATOM      8  H6  UNL     1      -4.848  66.050  11.265  1.00  0.00     0.183 HD
ENDROOT
BRANCH   1   9
HETATM    9  N3  UNL     1      -3.568  66.479   9.142  1.00  0.00    -0.164 N 
HETATM   10  C1  UNL     1      -4.732  65.841   8.675  1.00  0.00     0.200 C 
HETATM   11  N1  UNL     1      -5.671  66.530   8.074  1.00  0.00    -0.373 N 
HETATM   12  N2  UNL     1      -4.977  64.454   8.810  1.00  0.00    -0.063 NA
ATOM     13  H12 UNL     1      -6.515  66.067   7.735  1.00  0.00     0.158 HD
ATOM     14  H11 UNL     1      -5.494  67.529   7.976  1.00  0.00     0.158 HD
ATOM     15  H3  UNL     1      -2.695  66.340   8.633  1.00  0.00     0.187 HD
ENDBRANCH   1   9
BRANCH   5  16
HETATM   16  S1  UNL     1      -3.572  69.810  13.828  1.00  0.00     0.259 S 
HETATM   17  O1  UNL     1      -2.120  70.079  14.203  1.00  0.00    -0.201 OA
HETATM   18  O2  UNL     1      -4.130  68.961  14.931  1.00  0.00    -0.201 OA
BRANCH  16  19
HETATM   19  N5  UNL     1      -4.431  71.260  13.639  1.00  0.00    -0.324 N 
ATOM     20  H52 UNL     1      -4.891  71.730  14.419  1.00  0.00     0.169 HD
ATOM     21  H51 UNL     1      -4.437  71.602  12.679  1.00  0.00     0.169 HD
ENDBRANCH  16  19
ENDBRANCH   5  16
TORSDOF 3
ENDMDL
MODEL 5
REMARK VINA RESULT: -5.942144957      1.006      1.750
REMARK  3 active torsions:
REMARK  status: ('A' for Active; 'I' for Inactive)
REMARK       I    between atoms: C1_4  and  N3_6 
REMARK    1  A    between atoms: N3_6  and  C2_8 
REMARK    2  A    between atoms: C4_12  and  S1_13 
REMARK    3  A    between atoms: S1_13  and  N5_14 
ROOT
HETATM    1  C2  UNL     1      -3.574  67.251  10.247  1.00  0.00     0.684 A 
HETATM    2  N4  UNL     1      -2.861  68.373  10.251  1.00  0.00    -0.200 N 
ATOM      3  H4  UNL     1      -2.324  68.625   9.422  1.00  0.00     0.183 HD
HETATM    4  C3  UNL     1      -2.833  69.180  11.325  1.00  0.00     0.132 A 
HETATM    5  C4  UNL     1      -3.559  68.829  12.433  1.00  0.00     0.111 A 
HETATM    6  C5  UNL     1      -4.296  67.663  12.420  1.00  0.00     0.132 A 
HETATM    7  N6  UNL     1      -4.291  66.890  11.320  1.00  0.00    -0.200 N 
ATOM      8  H6  UNL     1      -4.834  66.027  11.302  1.00  0.00     0.183 HD
ENDROOT
BRANCH   1   9
HETATM    9  N3  UNL     1      -3.571  66.495   9.177  1.00  0.00    -0.164 N 
HETATM   10  C1  UNL     1      -4.730  65.857   8.699  1.00  0.00     0.200 C 
HETATM   11  N1  UNL     1      -5.668  66.547   8.099  1.00  0.00    -0.373 N 
HETATM   12  N2  UNL     1      -4.970  64.467   8.822  1.00  0.00    -0.063 NA
ATOM     13  H12 UNL     1      -6.509  66.084   7.752  1.00  0.00     0.158 HD
ATOM     14  H11 UNL     1      -5.495  67.548   8.010  1.00  0.00     0.158 HD
ATOM     15  H3  UNL     1      -2.695  66.364   8.672  1.00  0.00     0.187 HD
ENDBRANCH   1   9
BRANCH   5  16
HETATM   16  S1  UNL     1      -3.610  69.787  13.891  1.00  0.00     0.259 S 
HETATM   17  O1  UNL     1      -4.270  68.915  14.951  1.00  0.00    -0.201 OA
HETATM   18  O2  UNL     1      -4.551  70.931  13.655  1.00  0.00    -0.201 OA
BRANCH  16  19
HETATM   19  N5  UNL     1      -2.080  70.312  14.400  1.00  0.00    -0.324 N 
ATOM     20  H52 UNL     1      -1.391  69.680  14.810  1.00  0.00     0.169 HD
ATOM     21  H51 UNL     1      -1.927  71.310  14.254  1.00  0.00     0.169 HD
ENDBRANCH  16  19
ENDBRANCH   5  16
TORSDOF 3
ENDMDL
