MODEL 1
REMARK VINA RESULT: -7.910762105      0.000      0.000
REMARK  10 active torsions:
REMARK  status: ('A' for Active; 'I' for Inactive)
REMARK    1  A    between atoms: C4_7  and  C5_8 
REMARK    2  A    between atoms: C5_8  and  C6_9 
REMARK    3  A    between atoms: N3_14  and  C8_15 
REMARK    4  A    between atoms: C10_17  and  C11_18 
REMARK    5  A    between atoms: C11_18  and  C12_19 
REMARK    6  A    between atoms: C12_19  and  C13_20 
REMARK    7  A    between atoms: C13_20  and  C14_21 
REMARK    8  A    between atoms: C14_21  and  C15_22 
REMARK    9  A    between atoms: C15_22  and  C16_23 
REMARK   10  A    between atoms: C16_23  and  O3_24 
ROOT
HETATM    1  C6  UNL     1      26.377  58.457  50.106  1.00  0.00     0.061 A 
HETATM    2  N2  UNL     1      25.735  58.354  51.284  1.00  0.00    -0.307 N 
ATOM      3  H2  UNL     1      24.834  57.909  51.460  1.00  0.00     0.170 HD
HETATM    4  C7  UNL     1      26.535  58.966  52.184  1.00  0.00     0.327 A 
HETATM    5  O2  UNL     1      26.252  59.063  53.398  1.00  0.00    -0.246 OA
HETATM    6  N3  UNL     1      27.649  59.444  51.604  1.00  0.00    -0.301 N 
HETATM    7  C10 UNL     1      27.561  59.130  50.302  1.00  0.00     0.043 A 
ENDROOT
BRANCH   1   8
HETATM    8  C5  UNL     1      25.881  57.935  48.844  1.00  0.00     0.066 C 
BRANCH   8   9
HETATM    9  C4  UNL     1      25.728  56.655  48.587  1.00  0.00     0.104 A 
HETATM   10  C3  UNL     1      26.407  55.619  49.188  1.00  0.00     0.273 A 
HETATM   11  N1  UNL     1      25.938  54.470  48.624  1.00  0.00    -0.308 N 
HETATM   12  O1  UNL     1      27.288  55.678  50.083  1.00  0.00    -0.266 OA
HETATM   13  C2  UNL     1      25.006  54.762  47.707  1.00  0.00     0.098 A 
ATOM     14  H1  UNL     1      26.250  53.529  48.865  1.00  0.00     0.170 HD
HETATM   15  C1  UNL     1      24.344  53.878  46.970  1.00  0.00     0.063 C 
HETATM   16  N4  UNL     1      24.890  56.097  47.697  1.00  0.00    -0.339 N 
ATOM     17  H4  UNL     1      24.253  56.619  47.095  1.00  0.00     0.167 HD
ENDBRANCH   8   9
ENDBRANCH   1   8
BRANCH   7  18
HETATM   18  C11 UNL     1      28.575  59.461  49.251  1.00  0.00     0.060 C 
BRANCH  18  19
HETATM   19  C12 UNL     1      29.519  58.308  49.035  1.00  0.00     0.006 C 
BRANCH  19  20
HETATM   20  C13 UNL     1      30.744  58.721  48.244  1.00  0.00     0.000 C 
BRANCH  20  21
HETATM   21  C14 UNL     1      30.990  57.872  47.055  1.00  0.00     0.002 C 
BRANCH  21  22
HETATM   22  C15 UNL     1      31.174  58.591  45.750  1.00  0.00     0.026 C 
BRANCH  22  23
HETATM   23  C16 UNL     1      32.291  59.561  45.701  1.00  0.00     0.164 C 
BRANCH  23  24
HETATM   24  O3  UNL     1      31.964  60.852  45.325  1.00  0.00    -0.401 OA
ATOM     25  H3  UNL     1      31.932  61.022  44.391  1.00  0.00     0.209 HD
ENDBRANCH  23  24
ENDBRANCH  22  23
ENDBRANCH  21  22
ENDBRANCH  20  21
ENDBRANCH  19  20
ENDBRANCH  18  19
ENDBRANCH   7  18
BRANCH   6  26
HETATM   26  C8  UNL     1      28.760  60.163  52.214  1.00  0.00     0.129 C 
HETATM   27  C9  UNL     1      29.757  59.212  52.842  1.00  0.00     0.027 C 
ENDBRANCH   6  26
TORSDOF 10
ENDMDL
MODEL 2
REMARK VINA RESULT: -7.617755199      1.187      1.414
REMARK  10 active torsions:
REMARK  status: ('A' for Active; 'I' for Inactive)
REMARK    1  A    between atoms: C4_7  and  C5_8 
REMARK    2  A    between atoms: C5_8  and  C6_9 
REMARK    3  A    between atoms: N3_14  and  C8_15 
REMARK    4  A    between atoms: C10_17  and  C11_18 
REMARK    5  A    between atoms: C11_18  and  C12_19 
REMARK    6  A    between atoms: C12_19  and  C13_20 
REMARK    7  A    between atoms: C13_20  and  C14_21 
REMARK    8  A    between atoms: C14_21  and  C15_22 
REMARK    9  A    between atoms: C15_22  and  C16_23 
REMARK   10  A    between atoms: C16_23  and  O3_24 
ROOT
HETATM    1  C6  UNL     1      27.585  57.768  50.512  1.00  0.00     0.061 A 
HETATM    2  N2  UNL     1      26.882  57.518  51.632  1.00  0.00    -0.307 N 
ATOM      3  H2  UNL     1      26.315  56.695  51.836  1.00  0.00     0.170 HD
HETATM    4  C7  UNL     1      27.088  58.588  52.430  1.00  0.00     0.327 A 
HETATM    5  O2  UNL     1      26.582  58.700  53.569  1.00  0.00    -0.246 OA
HETATM    6  N3  UNL     1      27.892  59.490  51.844  1.00  0.00    -0.301 N 
HETATM    7  C10 UNL     1      28.209  58.987  50.641  1.00  0.00     0.043 A 
ENDROOT
BRANCH   1   8
HETATM    8  C5  UNL     1      27.656  56.880  49.364  1.00  0.00     0.066 C 
BRANCH   8   9
HETATM    9  C4  UNL     1      26.617  56.273  48.838  1.00  0.00     0.104 A 
HETATM   10  C3  UNL     1      25.530  56.884  48.252  1.00  0.00     0.273 A 
HETATM   11  N1  UNL     1      24.697  55.885  47.844  1.00  0.00    -0.308 N 
HETATM   12  O1  UNL     1      25.313  58.113  48.102  1.00  0.00    -0.266 OA
HETATM   13  C2  UNL     1      25.229  54.695  48.156  1.00  0.00     0.098 A 
ATOM     14  H1  UNL     1      23.803  56.023  47.371  1.00  0.00     0.170 HD
HETATM   15  C1  UNL     1      24.679  53.513  47.902  1.00  0.00     0.063 C 
HETATM   16  N4  UNL     1      26.397  54.949  48.761  1.00  0.00    -0.339 N 
ATOM     17  H4  UNL     1      27.033  54.235  49.115  1.00  0.00     0.167 HD
ENDBRANCH   8   9
ENDBRANCH   1   8
BRANCH   7  18
HETATM   18  C11 UNL     1      29.088  59.643  49.621  1.00  0.00     0.060 C 
BRANCH  18  19
HETATM   19  C12 UNL     1      30.537  59.327  49.879  1.00  0.00     0.006 C 
BRANCH  19  20
HETATM   20  C13 UNL     1      31.312  59.137  48.590  1.00  0.00     0.000 C 
BRANCH  20  21
HETATM   21  C14 UNL     1      30.584  58.335  47.579  1.00  0.00     0.002 C 
BRANCH  21  22
HETATM   22  C15 UNL     1      30.948  58.583  46.145  1.00  0.00     0.026 C 
BRANCH  22  23
HETATM   23  C16 UNL     1      32.097  59.489  45.919  1.00  0.00     0.164 C 
BRANCH  23  24
HETATM   24  O3  UNL     1      31.803  60.726  45.375  1.00  0.00    -0.401 OA
ATOM     25  H3  UNL     1      31.561  61.409  45.990  1.00  0.00     0.209 HD
ENDBRANCH  23  24
ENDBRANCH  22  23
ENDBRANCH  21  22
ENDBRANCH  20  21
ENDBRANCH  19  20
ENDBRANCH  18  19
ENDBRANCH   7  18
BRANCH   6  26
HETATM   26  C8  UNL     1      28.358  60.772  52.359  1.00  0.00     0.129 C 
HETATM   27  C9  UNL     1      29.576  60.603  53.243  1.00  0.00     0.027 C 
ENDBRANCH   6  26
TORSDOF 10
ENDMDL
MODEL 3
REMARK VINA RESULT: -7.516991559      2.644      6.420
REMARK  10 active torsions:
REMARK  status: ('A' for Active; 'I' for Inactive)
REMARK    1  A    between atoms: C4_7  and  C5_8 
REMARK    2  A    between atoms: C5_8  and  C6_9 
REMARK    3  A    between atoms: N3_14  and  C8_15 
REMARK    4  A    between atoms: C10_17  and  C11_18 
REMARK    5  A    between atoms: C11_18  and  C12_19 
REMARK    6  A    between atoms: C12_19  and  C13_20 
REMARK    7  A    between atoms: C13_20  and  C14_21 
REMARK    8  A    between atoms: C14_21  and  C15_22 
REMARK    9  A    between atoms: C15_22  and  C16_23 
REMARK   10  A    between atoms: C16_23  and  O3_24 
ROOT
HETATM    1  C6  UNL     1      28.900  59.663  50.409  1.00  0.00     0.061 A 
HETATM    2  N2  UNL     1      30.104  60.128  50.788  1.00  0.00    -0.307 N 
ATOM      3  H2  UNL     1      30.302  60.804  51.526  1.00  0.00     0.170 HD
HETATM    4  C7  UNL     1      30.996  59.509  49.984  1.00  0.00     0.327 A 
HETATM    5  O2  UNL     1      32.230  59.703  50.054  1.00  0.00    -0.246 OA
HETATM    6  N3  UNL     1      30.387  58.680  49.122  1.00  0.00    -0.301 N 
HETATM    7  C10 UNL     1      29.073  58.767  49.379  1.00  0.00     0.043 A 
ENDROOT
BRANCH   1   8
HETATM    8  C5  UNL     1      27.635  60.058  51.005  1.00  0.00     0.066 C 
BRANCH   8   9
HETATM    9  C4  UNL     1      27.417  60.115  52.299  1.00  0.00     0.104 A 
HETATM   10  C3  UNL     1      27.043  59.064  53.107  1.00  0.00     0.273 A 
HETATM   11  N1  UNL     1      26.929  59.566  54.369  1.00  0.00    -0.308 N 
HETATM   12  O1  UNL     1      26.838  57.866  52.785  1.00  0.00    -0.266 OA
HETATM   13  C2  UNL     1      27.217  60.875  54.364  1.00  0.00     0.098 A 
ATOM     14  H1  UNL     1      26.666  59.027  55.194  1.00  0.00     0.170 HD
HETATM   15  C1  UNL     1      27.204  61.673  55.425  1.00  0.00     0.063 C 
HETATM   16  N4  UNL     1      27.512  61.193  53.096  1.00  0.00    -0.339 N 
ATOM     17  H4  UNL     1      27.772  62.127  52.778  1.00  0.00     0.167 HD
ENDBRANCH   8   9
ENDBRANCH   1   8
BRANCH   7  18
HETATM   18  C11 UNL     1      27.989  58.021  48.664  1.00  0.00     0.060 C 
BRANCH  18  19
HETATM   19  C12 UNL     1      27.561  56.811  49.452  1.00  0.00     0.006 C 
BRANCH  19  20
HETATM   20  C13 UNL     1      26.056  56.628  49.435  1.00  0.00     0.000 C 
BRANCH  20  21
HETATM   21  C14 UNL     1      25.482  56.607  48.070  1.00  0.00     0.002 C 
BRANCH  21  22
HETATM   22  C15 UNL     1      24.723  55.370  47.687  1.00  0.00     0.026 C 
BRANCH  22  23
HETATM   23  C16 UNL     1      25.407  54.085  47.955  1.00  0.00     0.164 C 
BRANCH  23  24
HETATM   24  O3  UNL     1      24.674  53.132  48.639  1.00  0.00    -0.401 OA
ATOM     25  H3  UNL     1      25.123  52.320  48.838  1.00  0.00     0.209 HD
ENDBRANCH  23  24
ENDBRANCH  22  23
ENDBRANCH  21  22
ENDBRANCH  20  21
ENDBRANCH  19  20
ENDBRANCH  18  19
ENDBRANCH   7  18
BRANCH   6  26
HETATM   26  C8  UNL     1      30.979  57.832  48.095  1.00  0.00     0.129 C 
HETATM   27  C9  UNL     1      31.149  58.581  46.789  1.00  0.00     0.027 C 
ENDBRANCH   6  26
TORSDOF 10
ENDMDL
MODEL 4
REMARK VINA RESULT: -7.418487033      2.736      5.641
REMARK  10 active torsions:
REMARK  status: ('A' for Active; 'I' for Inactive)
REMARK    1  A    between atoms: C4_7  and  C5_8 
REMARK    2  A    between atoms: C5_8  and  C6_9 
REMARK    3  A    between atoms: N3_14  and  C8_15 
REMARK    4  A    between atoms: C10_17  and  C11_18 
REMARK    5  A    between atoms: C11_18  and  C12_19 
REMARK    6  A    between atoms: C12_19  and  C13_20 
REMARK    7  A    between atoms: C13_20  and  C14_21 
REMARK    8  A    between atoms: C14_21  and  C15_22 
REMARK    9  A    between atoms: C15_22  and  C16_23 
REMARK   10  A    between atoms: C16_23  and  O3_24 
ROOT
HETATM    1  C6  UNL     1      28.814  59.775  51.017  1.00  0.00     0.061 A 
HETATM    2  N2  UNL     1      29.586  59.765  52.119  1.00  0.00    -0.307 N 
ATOM      3  H2  UNL     1      30.594  59.916  52.168  1.00  0.00     0.170 HD
HETATM    4  C7  UNL     1      28.745  59.512  53.145  1.00  0.00     0.327 A 
HETATM    5  O2  UNL     1      29.122  59.431  54.335  1.00  0.00    -0.246 OA
HETATM    6  N3  UNL     1      27.480  59.365  52.717  1.00  0.00    -0.301 N 
HETATM    7  C10 UNL     1      27.511  59.528  51.386  1.00  0.00     0.043 A 
ENDROOT
BRANCH   1   8
HETATM    8  C5  UNL     1      29.298  60.010  49.668  1.00  0.00     0.066 C 
BRANCH   8   9
HETATM    9  C4  UNL     1      30.256  59.313  49.098  1.00  0.00     0.104 A 
HETATM   10  C3  UNL     1      30.142  58.037  48.594  1.00  0.00     0.273 A 
HETATM   11  N1  UNL     1      31.368  57.704  48.100  1.00  0.00    -0.308 N 
HETATM   12  O1  UNL     1      29.128  57.293  48.573  1.00  0.00    -0.266 OA
HETATM   13  C2  UNL     1      32.221  58.721  48.282  1.00  0.00     0.098 A 
ATOM     14  H1  UNL     1      31.600  56.815  47.657  1.00  0.00     0.170 HD
HETATM   15  C1  UNL     1      33.498  58.733  47.917  1.00  0.00     0.063 C 
HETATM   16  N4  UNL     1      31.528  59.693  48.892  1.00  0.00    -0.339 N 
ATOM     17  H4  UNL     1      31.914  60.597  49.162  1.00  0.00     0.167 HD
ENDBRANCH   8   9
ENDBRANCH   1   8
BRANCH   7  18
HETATM   18  C11 UNL     1      26.331  59.449  50.467  1.00  0.00     0.060 C 
BRANCH  18  19
HETATM   19  C12 UNL     1      26.063  58.024  50.060  1.00  0.00     0.006 C 
BRANCH  19  20
HETATM   20  C13 UNL     1      25.551  57.930  48.636  1.00  0.00     0.000 C 
BRANCH  20  21
HETATM   21  C14 UNL     1      25.383  56.536  48.163  1.00  0.00     0.002 C 
BRANCH  21  22
HETATM   22  C15 UNL     1      26.153  55.484  48.907  1.00  0.00     0.026 C 
BRANCH  22  23
HETATM   23  C16 UNL     1      25.860  54.083  48.528  1.00  0.00     0.164 C 
BRANCH  23  24
HETATM   24  O3  UNL     1      26.439  53.103  49.314  1.00  0.00    -0.401 OA
ATOM     25  H3  UNL     1      25.904  52.341  49.498  1.00  0.00     0.209 HD
ENDBRANCH  23  24
ENDBRANCH  22  23
ENDBRANCH  21  22
ENDBRANCH  20  21
ENDBRANCH  19  20
ENDBRANCH  18  19
ENDBRANCH   7  18
BRANCH   6  26
HETATM   26  C8  UNL     1      26.280  59.085  53.494  1.00  0.00     0.129 C 
HETATM   27  C9  UNL     1      25.852  60.290  54.307  1.00  0.00     0.027 C 
ENDBRANCH   6  26
TORSDOF 10
ENDMDL
MODEL 5
REMARK VINA RESULT: -7.381748748      2.424      3.646
REMARK  10 active torsions:
REMARK  status: ('A' for Active; 'I' for Inactive)
REMARK    1  A    between atoms: C4_7  and  C5_8 
REMARK    2  A    between atoms: C5_8  and  C6_9 
REMARK    3  A    between atoms: N3_14  and  C8_15 
REMARK    4  A    between atoms: C10_17  and  C11_18 
REMARK    5  A    between atoms: C11_18  and  C12_19 
REMARK    6  A    between atoms: C12_19  and  C13_20 
REMARK    7  A    between atoms: C13_20  and  C14_21 
REMARK    8  A    between atoms: C14_21  and  C15_22 
REMARK    9  A    between atoms: C15_22  and  C16_23 
REMARK   10  A    between atoms: C16_23  and  O3_24 
ROOT
HETATM    1  C6  UNL     1      26.965  58.863  52.751  1.00  0.00     0.061 A 
HETATM    2  N2  UNL     1      25.687  59.047  53.126  1.00  0.00    -0.307 N 
ATOM      3  H2  UNL     1      24.849  58.707  52.655  1.00  0.00     0.170 HD
HETATM    4  C7  UNL     1      25.747  59.780  54.260  1.00  0.00     0.327 A 
HETATM    5  O2  UNL     1      24.733  60.144  54.895  1.00  0.00    -0.246 OA
HETATM    6  N3  UNL     1      27.018  60.055  54.599  1.00  0.00    -0.301 N 
HETATM    7  C10 UNL     1      27.790  59.485  53.661  1.00  0.00     0.043 A 
ENDROOT
BRANCH   1   8
HETATM    8  C5  UNL     1      27.384  58.123  51.573  1.00  0.00     0.066 C 
BRANCH   8   9
HETATM    9  C4  UNL     1      26.646  57.976  50.496  1.00  0.00     0.104 A 
HETATM   10  C3  UNL     1      26.109  58.990  49.735  1.00  0.00     0.273 A 
HETATM   11  N1  UNL     1      25.421  58.392  48.721  1.00  0.00    -0.308 N 
HETATM   12  O1  UNL     1      26.209  60.232  49.906  1.00  0.00    -0.266 OA
HETATM   13  C2  UNL     1      25.517  57.060  48.834  1.00  0.00     0.098 A 
ATOM     14  H1  UNL     1      24.911  58.884  47.988  1.00  0.00     0.170 HD
HETATM   15  C1  UNL     1      24.965  56.174  48.012  1.00  0.00     0.063 C 
HETATM   16  N4  UNL     1      26.265  56.823  49.920  1.00  0.00    -0.339 N 
ATOM     17  H4  UNL     1      26.513  55.895  50.262  1.00  0.00     0.167 HD
ENDBRANCH   8   9
ENDBRANCH   1   8
BRANCH   7  18
HETATM   18  C11 UNL     1      29.286  59.525  53.616  1.00  0.00     0.060 C 
BRANCH  18  19
HETATM   19  C12 UNL     1      29.766  60.663  52.753  1.00  0.00     0.006 C 
BRANCH  19  20
HETATM   20  C13 UNL     1      31.211  60.483  52.333  1.00  0.00     0.000 C 
BRANCH  20  21
HETATM   21  C14 UNL     1      31.386  60.368  50.866  1.00  0.00     0.002 C 
BRANCH  21  22
HETATM   22  C15 UNL     1      30.962  59.069  50.246  1.00  0.00     0.026 C 
BRANCH  22  23
HETATM   23  C16 UNL     1      29.977  59.172  49.146  1.00  0.00     0.164 C 
BRANCH  23  24
HETATM   24  O3  UNL     1      29.204  60.319  49.123  1.00  0.00    -0.401 OA
ATOM     25  H3  UNL     1      29.364  60.918  48.403  1.00  0.00     0.209 HD
ENDBRANCH  23  24
ENDBRANCH  22  23
ENDBRANCH  21  22
ENDBRANCH  20  21
ENDBRANCH  19  20
ENDBRANCH  18  19
ENDBRANCH   7  18
BRANCH   6  26
HETATM   26  C8  UNL     1      27.516  60.812  55.740  1.00  0.00     0.129 C 
HETATM   27  C9  UNL     1      27.553  62.297  55.445  1.00  0.00     0.027 C 
ENDBRANCH   6  26
TORSDOF 10
ENDMDL
