MODEL 1
REMARK VINA RESULT: -7.858696913      0.000      0.000
REMARK  11 active torsions:
REMARK  status: ('A' for Active; 'I' for Inactive)
REMARK    1  A    between atoms: C6_6  and  C7_7 
REMARK    2  A    between atoms: C8_8  and  N1_9 
REMARK    3  A    between atoms: N1_9  and  C9_10 
REMARK    4  A    between atoms: C9_10  and  C10_11 
REMARK    5  A    between atoms: C10_11  and  C11_12 
REMARK    6  A    between atoms: C11_12  and  O1_13 
REMARK    7  A    between atoms: C11_12  and  C12_15 
REMARK    8  A    between atoms: C12_15  and  O2_16 
REMARK    9  A    between atoms: C15_20  and  O3_21 
REMARK   10  A    between atoms: C16_23  and  C17_24 
REMARK   11  A    between atoms: C17_24  and  O4_25 
ROOT
HETATM    1  N1  UNL     1      26.479  57.657  49.283  1.00  0.00    -0.038 N 
HETATM    2  C13 UNL     1      27.080  56.541  49.974  1.00  0.00     0.246 C 
HETATM    3  C14 UNL     1      27.122  56.884  51.456  1.00  0.00     0.062 C 
HETATM    4  C15 UNL     1      26.780  58.349  51.479  1.00  0.00     0.153 C 
HETATM    5  C16 UNL     1      25.827  58.406  50.286  1.00  0.00     0.247 C 
ENDROOT
BRANCH   1   6
HETATM    6  C8  UNL     1      25.797  57.338  48.121  1.00  0.00     0.204 C 
HETATM    7  C7  UNL     1      24.903  56.268  47.799  1.00  0.00     0.032 C 
BRANCH   7   8
HETATM    8  C6  UNL     1      25.259  54.837  47.805  1.00  0.00    -0.053 A 
HETATM    9  C5  UNL     1      26.100  54.162  48.802  1.00  0.00     0.066 A 
HETATM   10  C4  UNL     1      26.244  52.716  48.679  1.00  0.00    -0.021 A 
HETATM   11  C3  UNL     1      25.703  51.945  47.768  1.00  0.00     0.007 A 
HETATM   12  C2  UNL     1      24.870  52.598  46.778  1.00  0.00    -0.045 A 
HETATM   13  C1  UNL     1      24.302  51.864  45.840  1.00  0.00     0.023 C 
HETATM   14  C18 UNL     1      24.706  54.026  46.871  1.00  0.00     0.018 A 
ENDBRANCH   7   8
ENDBRANCH   1   6
BRANCH   1  15
HETATM   15  C9  UNL     1      27.711  58.417  48.863  1.00  0.00     0.246 C 
BRANCH  15  16
HETATM   16  C10 UNL     1      28.902  57.535  48.722  1.00  0.00     0.062 C 
BRANCH  16  17
HETATM   17  C11 UNL     1      30.162  58.420  48.836  1.00  0.00     0.143 C 
BRANCH  17  18
HETATM   18  O1  UNL     1      30.990  57.831  49.791  1.00  0.00    -0.393 OA
ATOM     19  H1  UNL     1      31.700  58.440  49.956  1.00  0.00     0.210 HD
ENDBRANCH  17  18
BRANCH  17  20
HETATM   20  C12 UNL     1      30.912  58.424  47.526  1.00  0.00     0.195 C 
BRANCH  20  21
HETATM   21  O2  UNL     1      31.196  57.120  47.126  1.00  0.00    -0.398 OA
ATOM     22  H2  UNL     1      31.422  57.100  46.204  1.00  0.00     0.209 HD
ENDBRANCH  20  21
ENDBRANCH  17  20
ENDBRANCH  16  17
ENDBRANCH  15  16
ENDBRANCH   1  15
BRANCH   5  23
HETATM   23  C17 UNL     1      25.498  59.835  49.990  1.00  0.00     0.200 C 
BRANCH  23  24
HETATM   24  O4  UNL     1      26.534  60.596  50.592  1.00  0.00    -0.399 OA
ATOM     25  H4  UNL     1      27.313  60.415  50.079  1.00  0.00     0.209 HD
ENDBRANCH  23  24
ENDBRANCH   5  23
BRANCH   4  26
HETATM   26  O3  UNL     1      26.007  58.656  52.624  1.00  0.00    -0.393 OA
ATOM     27  H3  UNL     1      26.382  59.397  53.086  1.00  0.00     0.210 HD
ENDBRANCH   4  26
TORSDOF 11
ENDMDL
MODEL 2
REMARK VINA RESULT: -7.257066248      2.936      6.800
REMARK  11 active torsions:
REMARK  status: ('A' for Active; 'I' for Inactive)
REMARK    1  A    between atoms: C6_6  and  C7_7 
REMARK    2  A    between atoms: C8_8  and  N1_9 
REMARK    3  A    between atoms: N1_9  and  C9_10 
REMARK    4  A    between atoms: C9_10  and  C10_11 
REMARK    5  A    between atoms: C10_11  and  C11_12 
REMARK    6  A    between atoms: C11_12  and  O1_13 
REMARK    7  A    between atoms: C11_12  and  C12_15 
REMARK    8  A    between atoms: C12_15  and  O2_16 
REMARK    9  A    between atoms: C15_20  and  O3_21 
REMARK   10  A    between atoms: C16_23  and  C17_24 
REMARK   11  A    between atoms: C17_24  and  O4_25 
ROOT
HETATM    1  N1  UNL     1      27.501  58.522  50.463  1.00  0.00    -0.038 N 
HETATM    2  C13 UNL     1      26.767  59.764  50.505  1.00  0.00     0.246 C 
HETATM    3  C14 UNL     1      25.468  59.557  49.740  1.00  0.00     0.062 C 
HETATM    4  C15 UNL     1      25.683  58.239  49.048  1.00  0.00     0.153 C 
HETATM    5  C16 UNL     1      26.554  57.544  50.093  1.00  0.00     0.247 C 
ENDROOT
BRANCH   1   6
HETATM    6  C8  UNL     1      28.333  58.288  51.545  1.00  0.00     0.204 C 
HETATM    7  C7  UNL     1      28.130  58.422  52.955  1.00  0.00     0.032 C 
BRANCH   7   8
HETATM    8  C6  UNL     1      27.831  59.687  53.651  1.00  0.00    -0.053 A 
HETATM    9  C5  UNL     1      26.543  60.056  54.254  1.00  0.00     0.066 A 
HETATM   10  C4  UNL     1      26.490  61.316  54.986  1.00  0.00    -0.021 A 
HETATM   11  C3  UNL     1      27.471  62.165  55.165  1.00  0.00     0.007 A 
HETATM   12  C2  UNL     1      28.748  61.814  54.576  1.00  0.00    -0.045 A 
HETATM   13  C1  UNL     1      29.768  62.638  54.729  1.00  0.00     0.023 C 
HETATM   14  C18 UNL     1      28.836  60.576  53.846  1.00  0.00     0.018 A 
ENDBRANCH   7   8
ENDBRANCH   1   6
BRANCH   1  15
HETATM   15  C9  UNL     1      28.399  58.772  49.278  1.00  0.00     0.246 C 
BRANCH  15  16
HETATM   16  C10 UNL     1      29.552  59.651  49.615  1.00  0.00     0.062 C 
BRANCH  16  17
HETATM   17  C11 UNL     1      30.821  59.022  48.999  1.00  0.00     0.143 C 
BRANCH  17  18
HETATM   18  O1  UNL     1      31.287  58.071  49.906  1.00  0.00    -0.393 OA
ATOM     19  H1  UNL     1      30.871  57.247  49.681  1.00  0.00     0.210 HD
ENDBRANCH  17  18
BRANCH  17  20
HETATM   20  C12 UNL     1      30.473  58.299  47.721  1.00  0.00     0.195 C 
BRANCH  20  21
HETATM   21  O2  UNL     1      31.323  57.212  47.532  1.00  0.00    -0.398 OA
ATOM     22  H2  UNL     1      30.819  56.414  47.423  1.00  0.00     0.209 HD
ENDBRANCH  20  21
ENDBRANCH  17  20
ENDBRANCH  16  17
ENDBRANCH  15  16
ENDBRANCH   1  15
BRANCH   5  23
HETATM   23  C17 UNL     1      27.063  56.255  49.527  1.00  0.00     0.200 C 
BRANCH  23  24
HETATM   24  O4  UNL     1      27.006  55.322  50.596  1.00  0.00    -0.399 OA
ATOM     25  H4  UNL     1      27.694  54.691  50.419  1.00  0.00     0.209 HD
ENDBRANCH  23  24
ENDBRANCH   5  23
BRANCH   4  26
HETATM   26  O3  UNL     1      24.470  57.511  48.989  1.00  0.00    -0.393 OA
ATOM     27  H3  UNL     1      24.242  57.180  49.850  1.00  0.00     0.210 HD
ENDBRANCH   4  26
TORSDOF 11
ENDMDL
MODEL 3
REMARK VINA RESULT: -7.222543856      1.627      3.964
REMARK  11 active torsions:
REMARK  status: ('A' for Active; 'I' for Inactive)
REMARK    1  A    between atoms: C6_6  and  C7_7 
REMARK    2  A    between atoms: C8_8  and  N1_9 
REMARK    3  A    between atoms: N1_9  and  C9_10 
REMARK    4  A    between atoms: C9_10  and  C10_11 
REMARK    5  A    between atoms: C10_11  and  C11_12 
REMARK    6  A    between atoms: C11_12  and  O1_13 
REMARK    7  A    between atoms: C11_12  and  C12_15 
REMARK    8  A    between atoms: C12_15  and  O2_16 
REMARK    9  A    between atoms: C15_20  and  O3_21 
REMARK   10  A    between atoms: C16_23  and  C17_24 
REMARK   11  A    between atoms: C17_24  and  O4_25 
ROOT
HETATM    1  N1  UNL     1      27.134  58.983  49.776  1.00  0.00    -0.038 N 
HETATM    2  C13 UNL     1      27.136  60.278  50.413  1.00  0.00     0.246 C 
HETATM    3  C14 UNL     1      28.587  60.706  50.584  1.00  0.00     0.062 C 
HETATM    4  C15 UNL     1      29.354  59.450  50.271  1.00  0.00     0.153 C 
HETATM    5  C16 UNL     1      28.425  58.840  49.223  1.00  0.00     0.247 C 
ENDROOT
BRANCH   1   6
HETATM    6  C8  UNL     1      26.025  58.708  48.994  1.00  0.00     0.204 C 
HETATM    7  C7  UNL     1      25.102  57.615  48.994  1.00  0.00     0.032 C 
BRANCH   7   8
HETATM    8  C6  UNL     1      25.455  56.209  48.721  1.00  0.00    -0.053 A 
HETATM    9  C5  UNL     1      26.438  55.408  49.463  1.00  0.00     0.066 A 
HETATM   10  C4  UNL     1      26.563  54.002  49.094  1.00  0.00    -0.021 A 
HETATM   11  C3  UNL     1      25.889  53.369  48.166  1.00  0.00     0.007 A 
HETATM   12  C2  UNL     1      24.916  54.147  47.427  1.00  0.00    -0.045 A 
HETATM   13  C1  UNL     1      24.212  53.554  46.480  1.00  0.00     0.023 C 
HETATM   14  C18 UNL     1      24.767  55.539  47.765  1.00  0.00     0.018 A 
ENDBRANCH   7   8
ENDBRANCH   1   6
BRANCH   1  15
HETATM   15  C9  UNL     1      27.043  58.083  50.981  1.00  0.00     0.246 C 
BRANCH  15  16
HETATM   16  C10 UNL     1      26.306  58.716  52.109  1.00  0.00     0.062 C 
BRANCH  16  17
HETATM   17  C11 UNL     1      27.156  58.545  53.386  1.00  0.00     0.143 C 
BRANCH  17  18
HETATM   18  O1  UNL     1      28.333  57.896  53.010  1.00  0.00    -0.393 OA
ATOM     19  H1  UNL     1      29.041  58.519  53.121  1.00  0.00     0.210 HD
ENDBRANCH  17  18
BRANCH  17  20
HETATM   20  C12 UNL     1      27.541  59.896  53.938  1.00  0.00     0.195 C 
BRANCH  20  21
HETATM   21  O2  UNL     1      26.437  60.747  53.949  1.00  0.00    -0.398 OA
ATOM     22  H2  UNL     1      26.558  61.452  53.324  1.00  0.00     0.209 HD
ENDBRANCH  20  21
ENDBRANCH  17  20
ENDBRANCH  16  17
ENDBRANCH  15  16
ENDBRANCH   1  15
BRANCH   5  23
HETATM   23  C17 UNL     1      28.897  57.458  48.895  1.00  0.00     0.200 C 
BRANCH  23  24
HETATM   24  O4  UNL     1      29.991  57.632  48.008  1.00  0.00    -0.399 OA
ATOM     25  H4  UNL     1      30.592  58.215  48.456  1.00  0.00     0.209 HD
ENDBRANCH  23  24
ENDBRANCH   5  23
BRANCH   4  26
HETATM   26  O3  UNL     1      30.561  59.765  49.602  1.00  0.00    -0.393 OA
ATOM     27  H3  UNL     1      31.010  60.473  50.048  1.00  0.00     0.210 HD
ENDBRANCH   4  26
TORSDOF 11
ENDMDL
MODEL 4
REMARK VINA RESULT: -7.180521447      2.918      6.508
REMARK  11 active torsions:
REMARK  status: ('A' for Active; 'I' for Inactive)
REMARK    1  A    between atoms: C6_6  and  C7_7 
REMARK    2  A    between atoms: C8_8  and  N1_9 
REMARK    3  A    between atoms: N1_9  and  C9_10 
REMARK    4  A    between atoms: C9_10  and  C10_11 
REMARK    5  A    between atoms: C10_11  and  C11_12 
REMARK    6  A    between atoms: C11_12  and  O1_13 
REMARK    7  A    between atoms: C11_12  and  C12_15 
REMARK    8  A    between atoms: C12_15  and  O2_16 
REMARK    9  A    between atoms: C15_20  and  O3_21 
REMARK   10  A    between atoms: C16_23  and  C17_24 
REMARK   11  A    between atoms: C17_24  and  O4_25 
ROOT
HETATM    1  N1  UNL     1      27.570  58.624  50.454  1.00  0.00    -0.038 N 
HETATM    2  C13 UNL     1      26.823  59.858  50.484  1.00  0.00     0.246 C 
HETATM    3  C14 UNL     1      25.505  59.618  49.762  1.00  0.00     0.062 C 
HETATM    4  C15 UNL     1      25.715  58.283  49.100  1.00  0.00     0.153 C 
HETATM    5  C16 UNL     1      26.623  57.626  50.137  1.00  0.00     0.247 C 
ENDROOT
BRANCH   1   6
HETATM    6  C8  UNL     1      28.435  58.428  51.517  1.00  0.00     0.204 C 
HETATM    7  C7  UNL     1      28.225  58.419  52.932  1.00  0.00     0.032 C 
BRANCH   7   8
HETATM    8  C6  UNL     1      27.753  59.570  53.724  1.00  0.00    -0.053 A 
HETATM    9  C5  UNL     1      28.344  60.915  53.728  1.00  0.00     0.066 A 
HETATM   10  C4  UNL     1      27.659  61.939  54.508  1.00  0.00    -0.021 A 
HETATM   11  C3  UNL     1      26.565  61.792  55.214  1.00  0.00     0.007 A 
HETATM   12  C2  UNL     1      25.971  60.470  55.219  1.00  0.00    -0.045 A 
HETATM   13  C1  UNL     1      24.868  60.271  55.916  1.00  0.00     0.023 C 
HETATM   14  C18 UNL     1      26.622  59.434  54.459  1.00  0.00     0.018 A 
ENDBRANCH   7   8
ENDBRANCH   1   6
BRANCH   1  15
HETATM   15  C9  UNL     1      28.430  58.851  49.237  1.00  0.00     0.246 C 
BRANCH  15  16
HETATM   16  C10 UNL     1      29.608  59.714  49.528  1.00  0.00     0.062 C 
BRANCH  16  17
HETATM   17  C11 UNL     1      30.854  59.033  48.921  1.00  0.00     0.143 C 
BRANCH  17  18
HETATM   18  O1  UNL     1      31.261  58.048  49.821  1.00  0.00    -0.393 OA
ATOM     19  H1  UNL     1      31.399  57.254  49.320  1.00  0.00     0.210 HD
ENDBRANCH  17  18
BRANCH  17  20
HETATM   20  C12 UNL     1      30.490  58.344  47.628  1.00  0.00     0.195 C 
BRANCH  20  21
HETATM   21  O2  UNL     1      31.259  57.195  47.459  1.00  0.00    -0.398 OA
ATOM     22  H2  UNL     1      30.742  56.420  47.646  1.00  0.00     0.209 HD
ENDBRANCH  20  21
ENDBRANCH  17  20
ENDBRANCH  16  17
ENDBRANCH  15  16
ENDBRANCH   1  15
BRANCH   5  23
HETATM   23  C17 UNL     1      27.130  56.328  49.592  1.00  0.00     0.200 C 
BRANCH  23  24
HETATM   24  O4  UNL     1      27.023  55.399  50.660  1.00  0.00    -0.399 OA
ATOM     25  H4  UNL     1      26.098  55.368  50.878  1.00  0.00     0.209 HD
ENDBRANCH  23  24
ENDBRANCH   5  23
BRANCH   4  26
HETATM   26  O3  UNL     1      24.509  57.542  49.096  1.00  0.00    -0.393 OA
ATOM     27  H3  UNL     1      23.802  58.064  48.737  1.00  0.00     0.210 HD
ENDBRANCH   4  26
TORSDOF 11
ENDMDL
MODEL 5
REMARK VINA RESULT: -7.125256672      2.989      6.534
REMARK  11 active torsions:
REMARK  status: ('A' for Active; 'I' for Inactive)
REMARK    1  A    between atoms: C6_6  and  C7_7 
REMARK    2  A    between atoms: C8_8  and  N1_9 
REMARK    3  A    between atoms: N1_9  and  C9_10 
REMARK    4  A    between atoms: C9_10  and  C10_11 
REMARK    5  A    between atoms: C10_11  and  C11_12 
REMARK    6  A    between atoms: C11_12  and  O1_13 
REMARK    7  A    between atoms: C11_12  and  C12_15 
REMARK    8  A    between atoms: C12_15  and  O2_16 
REMARK    9  A    between atoms: C15_20  and  O3_21 
REMARK   10  A    between atoms: C16_23  and  C17_24 
REMARK   11  A    between atoms: C17_24  and  O4_25 
ROOT
HETATM    1  N1  UNL     1      26.872  57.815  50.556  1.00  0.00    -0.038 N 
HETATM    2  C13 UNL     1      26.195  59.047  50.228  1.00  0.00     0.246 C 
HETATM    3  C14 UNL     1      25.398  58.810  48.954  1.00  0.00     0.062 C 
HETATM    4  C15 UNL     1      25.915  57.484  48.466  1.00  0.00     0.153 C 
HETATM    5  C16 UNL     1      26.208  56.817  49.810  1.00  0.00     0.247 C 
ENDROOT
BRANCH   1   6
HETATM    6  C8  UNL     1      27.110  57.610  51.905  1.00  0.00     0.204 C 
HETATM    7  C7  UNL     1      27.322  58.520  52.988  1.00  0.00     0.032 C 
BRANCH   7   8
HETATM    8  C6  UNL     1      28.446  59.469  53.089  1.00  0.00    -0.053 A 
HETATM    9  C5  UNL     1      28.332  60.928  53.223  1.00  0.00     0.066 A 
HETATM   10  C4  UNL     1      29.570  61.676  53.410  1.00  0.00    -0.021 A 
HETATM   11  C3  UNL     1      30.784  61.187  53.471  1.00  0.00     0.007 A 
HETATM   12  C2  UNL     1      30.911  59.749  53.340  1.00  0.00    -0.045 A 
HETATM   13  C1  UNL     1      32.114  59.209  53.394  1.00  0.00     0.023 C 
HETATM   14  C18 UNL     1      29.708  58.980  53.154  1.00  0.00     0.018 A 
ENDBRANCH   7   8
ENDBRANCH   1   6
BRANCH   1  15
HETATM   15  C9  UNL     1      28.214  58.058  49.916  1.00  0.00     0.246 C 
BRANCH  15  16
HETATM   16  C10 UNL     1      28.500  59.507  49.729  1.00  0.00     0.062 C 
BRANCH  16  17
HETATM   17  C11 UNL     1      29.910  59.636  49.115  1.00  0.00     0.143 C 
BRANCH  17  18
HETATM   18  O1  UNL     1      30.671  60.403  49.997  1.00  0.00    -0.393 OA
ATOM     19  H1  UNL     1      30.393  60.174  50.875  1.00  0.00     0.210 HD
ENDBRANCH  17  18
BRANCH  17  20
HETATM   20  C12 UNL     1      30.560  58.277  49.019  1.00  0.00     0.195 C 
BRANCH  20  21
HETATM   21  O2  UNL     1      31.513  58.123  50.024  1.00  0.00    -0.398 OA
ATOM     22  H2  UNL     1      32.207  58.764  49.921  1.00  0.00     0.209 HD
ENDBRANCH  20  21
ENDBRANCH  17  20
ENDBRANCH  16  17
ENDBRANCH  15  16
ENDBRANCH   1  15
BRANCH   5  23
HETATM   23  C17 UNL     1      26.927  55.527  49.571  1.00  0.00     0.200 C 
BRANCH  23  24
HETATM   24  O4  UNL     1      25.931  54.610  49.146  1.00  0.00    -0.399 OA
ATOM     25  H4  UNL     1      26.030  54.546  48.203  1.00  0.00     0.209 HD
ENDBRANCH  23  24
ENDBRANCH   5  23
BRANCH   4  26
HETATM   26  O3  UNL     1      24.871  56.738  47.869  1.00  0.00    -0.393 OA
ATOM     27  H3  UNL     1      24.826  55.869  48.251  1.00  0.00     0.210 HD
ENDBRANCH   4  26
TORSDOF 11
ENDMDL
