MODEL 1
REMARK VINA RESULT: -6.060159302      0.000      0.000
REMARK  4 active torsions:
REMARK  status: ('A' for Active; 'I' for Inactive)
REMARK    1  A    between atoms: C2_2  and  O1_3 
REMARK    2  A    between atoms: O1_3  and  C3_4 
REMARK    3  A    between atoms: C9_14  and  O3_15 
REMARK    4  A    between atoms: C10_17  and  O4_18 
ROOT
HETATM    1  C3  UNL     1      17.430   6.782  26.738  1.00  0.00     0.217 C 
HETATM    2  C4  UNL     1      18.679   6.934  25.858  1.00  0.00     0.076 C 
HETATM    3  C5  UNL     1      19.122   8.297  26.351  1.00  0.00     0.061 C 
HETATM    4  C6  UNL     1      20.608   8.504  26.182  1.00  0.00     0.046 C 
HETATM    5  C7  UNL     1      18.355   9.305  25.481  1.00  0.00     0.046 C 
HETATM    6  O2  UNL     1      18.675   8.453  27.632  1.00  0.00    -0.320 OA
HETATM    7  C8  UNL     1      17.963   7.351  28.021  1.00  0.00     0.370 C 
HETATM    8  N1  UNL     1      16.838   7.657  28.872  1.00  0.00     0.017 N 
ATOM      9  H11 UNL     1      15.932   7.491  28.436  1.00  0.00     0.287 HD
ATOM     10  H12 UNL     1      16.705   8.654  29.039  1.00  0.00     0.287 HD
HETATM   11  C9  UNL     1      17.064   6.882  30.079  1.00  0.00     0.381 C 
HETATM   12  C10 UNL     1      18.579   6.800  30.062  1.00  0.00     0.319 C 
HETATM   13  O5  UNL     1      18.782   6.469  28.704  1.00  0.00    -0.296 OA
ENDROOT
BRANCH   1  14
HETATM   14  O1  UNL     1      17.007   5.488  26.814  1.00  0.00    -0.379 OA
BRANCH  14  15
HETATM   15  C2  UNL     1      16.672   5.098  25.516  1.00  0.00     0.164 C 
HETATM   16  C1  UNL     1      17.341   3.830  25.097  1.00  0.00     0.033 C 
ENDBRANCH  14  15
ENDBRANCH   1  14
BRANCH  11  17
HETATM   17  O3  UNL     1      16.611   7.615  31.171  1.00  0.00    -0.366 OA
ATOM     18  H3  UNL     1      16.961   7.228  31.964  1.00  0.00     0.212 HD
ENDBRANCH  11  17
BRANCH  12  19
HETATM   19  O4  UNL     1      19.131   8.060  30.243  1.00  0.00    -0.367 OA
ATOM     20  H4  UNL     1      18.903   8.628  29.516  1.00  0.00     0.212 HD
ENDBRANCH  12  19
TORSDOF 4
ENDMDL
MODEL 2
REMARK VINA RESULT: -5.792997894      1.714      3.429
REMARK  4 active torsions:
REMARK  status: ('A' for Active; 'I' for Inactive)
REMARK    1  A    between atoms: C2_2  and  O1_3 
REMARK    2  A    between atoms: O1_3  and  C3_4 
REMARK    3  A    between atoms: C9_14  and  O3_15 
REMARK    4  A    between atoms: C10_17  and  O4_18 
ROOT
HETATM    1  C3  UNL     1      18.089   8.088  27.286  1.00  0.00     0.217 C 
HETATM    2  C4  UNL     1      17.361   7.686  25.995  1.00  0.00     0.076 C 
HETATM    3  C5  UNL     1      17.715   6.212  26.002  1.00  0.00     0.061 C 
HETATM    4  C6  UNL     1      16.697   5.383  25.255  1.00  0.00     0.046 C 
HETATM    5  C7  UNL     1      19.075   6.125  25.293  1.00  0.00     0.046 C 
HETATM    6  O2  UNL     1      17.912   5.827  27.297  1.00  0.00    -0.320 OA
HETATM    7  C8  UNL     1      17.755   6.896  28.136  1.00  0.00     0.370 C 
HETATM    8  N1  UNL     1      18.657   6.887  29.262  1.00  0.00     0.017 N 
ATOM      9  H11 UNL     1      19.359   7.627  29.237  1.00  0.00     0.287 HD
ATOM     10  H12 UNL     1      19.314   6.106  29.261  1.00  0.00     0.287 HD
HETATM   11  C9  UNL     1      17.795   6.931  30.430  1.00  0.00     0.381 C 
HETATM   12  C10 UNL     1      16.556   6.258  29.870  1.00  0.00     0.319 C 
HETATM   13  O5  UNL     1      16.463   6.929  28.631  1.00  0.00    -0.296 OA
ENDROOT
BRANCH   1  14
HETATM   14  O1  UNL     1      17.651   9.283  27.774  1.00  0.00    -0.379 OA
BRANCH  14  15
HETATM   15  C2  UNL     1      16.870   9.864  26.774  1.00  0.00     0.164 C 
HETATM   16  C1  UNL     1      15.936  10.906  27.295  1.00  0.00     0.033 C 
ENDBRANCH  14  15
ENDBRANCH   1  14
BRANCH  11  17
HETATM   17  O3  UNL     1      18.372   6.167  31.439  1.00  0.00    -0.366 OA
ATOM     18  H3  UNL     1      17.978   6.410  32.268  1.00  0.00     0.212 HD
ENDBRANCH  11  17
BRANCH  12  19
HETATM   19  O4  UNL     1      16.822   4.929  29.574  1.00  0.00    -0.367 OA
ATOM     20  H4  UNL     1      16.136   4.370  29.920  1.00  0.00     0.212 HD
ENDBRANCH  12  19
TORSDOF 4
ENDMDL
MODEL 3
REMARK VINA RESULT: -5.768978214      1.930      2.622
REMARK  4 active torsions:
REMARK  status: ('A' for Active; 'I' for Inactive)
REMARK    1  A    between atoms: C2_2  and  O1_3 
REMARK    2  A    between atoms: O1_3  and  C3_4 
REMARK    3  A    between atoms: C9_14  and  O3_15 
REMARK    4  A    between atoms: C10_17  and  O4_18 
ROOT
HETATM    1  C3  UNL     1      17.780   7.590  28.023  1.00  0.00     0.217 C 
HETATM    2  C4  UNL     1      18.737   8.759  28.301  1.00  0.00     0.076 C 
HETATM    3  C5  UNL     1      17.989   9.374  29.466  1.00  0.00     0.061 C 
HETATM    4  C6  UNL     1      18.907  10.149  30.381  1.00  0.00     0.046 C 
HETATM    5  C7  UNL     1      16.969  10.328  28.826  1.00  0.00     0.046 C 
HETATM    6  O2  UNL     1      17.280   8.387  30.087  1.00  0.00    -0.320 OA
HETATM    7  C8  UNL     1      17.459   7.196  29.437  1.00  0.00     0.370 C 
HETATM    8  N1  UNL     1      16.279   6.366  29.408  1.00  0.00     0.017 N 
ATOM      9  H11 UNL     1      15.871   6.258  28.480  1.00  0.00     0.287 HD
ATOM     10  H12 UNL     1      15.462   6.793  29.845  1.00  0.00     0.287 HD
HETATM   11  C9  UNL     1      16.689   5.116  30.022  1.00  0.00     0.381 C 
HETATM   12  C10 UNL     1      17.792   5.619  30.936  1.00  0.00     0.319 C 
HETATM   13  O5  UNL     1      18.472   6.471  30.038  1.00  0.00    -0.296 OA
ENDROOT
BRANCH   1  14
HETATM   14  O1  UNL     1      18.363   6.613  27.271  1.00  0.00    -0.379 OA
BRANCH  14  15
HETATM   15  C2  UNL     1      17.651   6.551  26.072  1.00  0.00     0.164 C 
HETATM   16  C1  UNL     1      17.081   5.198  25.802  1.00  0.00     0.033 C 
ENDBRANCH  14  15
ENDBRANCH   1  14
BRANCH  11  17
HETATM   17  O3  UNL     1      15.622   4.606  30.753  1.00  0.00    -0.366 OA
ATOM     18  H3  UNL     1      15.033   5.319  30.969  1.00  0.00     0.212 HD
ENDBRANCH  11  17
BRANCH  12  19
HETATM   19  O4  UNL     1      17.262   6.436  31.924  1.00  0.00    -0.367 OA
ATOM     20  H4  UNL     1      17.395   7.351  31.702  1.00  0.00     0.212 HD
ENDBRANCH  12  19
TORSDOF 4
ENDMDL
MODEL 4
REMARK VINA RESULT: -5.767948937      1.560      3.446
REMARK  4 active torsions:
REMARK  status: ('A' for Active; 'I' for Inactive)
REMARK    1  A    between atoms: C2_2  and  O1_3 
REMARK    2  A    between atoms: O1_3  and  C3_4 
REMARK    3  A    between atoms: C9_14  and  O3_15 
REMARK    4  A    between atoms: C10_17  and  O4_18 
ROOT
HETATM    1  C3  UNL     1      18.115   8.093  27.260  1.00  0.00     0.217 C 
HETATM    2  C4  UNL     1      17.374   7.691  25.977  1.00  0.00     0.076 C 
HETATM    3  C5  UNL     1      17.714   6.214  25.989  1.00  0.00     0.061 C 
HETATM    4  C6  UNL     1      16.681   5.391  25.255  1.00  0.00     0.046 C 
HETATM    5  C7  UNL     1      19.067   6.111  25.269  1.00  0.00     0.046 C 
HETATM    6  O2  UNL     1      17.918   5.835  27.284  1.00  0.00    -0.320 OA
HETATM    7  C8  UNL     1      17.777   6.909  28.119  1.00  0.00     0.370 C 
HETATM    8  N1  UNL     1      18.689   6.898  29.238  1.00  0.00     0.017 N 
ATOM      9  H11 UNL     1      19.397   7.631  29.202  1.00  0.00     0.287 HD
ATOM     10  H12 UNL     1      19.338   6.111  29.235  1.00  0.00     0.287 HD
HETATM   11  C9  UNL     1      17.838   6.957  30.412  1.00  0.00     0.381 C 
HETATM   12  C10 UNL     1      16.587   6.292  29.865  1.00  0.00     0.319 C 
HETATM   13  O5  UNL     1      16.491   6.958  28.624  1.00  0.00    -0.296 OA
ENDROOT
BRANCH   1  14
HETATM   14  O1  UNL     1      17.694   9.296  27.745  1.00  0.00    -0.379 OA
BRANCH  14  15
HETATM   15  C2  UNL     1      18.248  10.278  26.922  1.00  0.00     0.164 C 
HETATM   16  C1  UNL     1      19.737  10.346  27.017  1.00  0.00     0.033 C 
ENDBRANCH  14  15
ENDBRANCH   1  14
BRANCH  11  17
HETATM   17  O3  UNL     1      18.415   6.192  31.421  1.00  0.00    -0.366 OA
ATOM     18  H3  UNL     1      18.946   6.759  31.966  1.00  0.00     0.212 HD
ENDBRANCH  11  17
BRANCH  12  19
HETATM   19  O4  UNL     1      16.839   4.959  29.575  1.00  0.00    -0.367 OA
ATOM     20  H4  UNL     1      17.742   4.742  29.777  1.00  0.00     0.212 HD
ENDBRANCH  12  19
TORSDOF 4
ENDMDL
MODEL 5
REMARK VINA RESULT: -5.728110129      2.207      4.345
REMARK  4 active torsions:
REMARK  status: ('A' for Active; 'I' for Inactive)
REMARK    1  A    between atoms: C2_2  and  O1_3 
REMARK    2  A    between atoms: O1_3  and  C3_4 
REMARK    3  A    between atoms: C9_14  and  O3_15 
REMARK    4  A    between atoms: C10_17  and  O4_18 
ROOT
HETATM    1  C3  UNL     1      16.787   7.027  29.696  1.00  0.00     0.217 C 
HETATM    2  C4  UNL     1      15.423   7.718  29.835  1.00  0.00     0.076 C 
HETATM    3  C5  UNL     1      15.901   9.153  29.732  1.00  0.00     0.061 C 
HETATM    4  C6  UNL     1      14.820  10.072  29.214  1.00  0.00     0.046 C 
HETATM    5  C7  UNL     1      16.278   9.552  31.167  1.00  0.00     0.046 C 
HETATM    6  O2  UNL     1      17.050   9.168  28.996  1.00  0.00    -0.320 OA
HETATM    7  C8  UNL     1      17.394   7.895  28.631  1.00  0.00     0.370 C 
HETATM    8  N1  UNL     1      18.817   7.657  28.622  1.00  0.00     0.017 N 
ATOM      9  H11 UNL     1      19.135   7.016  29.349  1.00  0.00     0.287 HD
ATOM     10  H12 UNL     1      19.372   8.458  28.923  1.00  0.00     0.287 HD
HETATM   11  C9  UNL     1      19.111   7.210  27.272  1.00  0.00     0.381 C 
HETATM   12  C10 UNL     1      17.998   7.909  26.514  1.00  0.00     0.319 C 
HETATM   13  O5  UNL     1      16.911   7.613  27.365  1.00  0.00    -0.296 OA
ENDROOT
BRANCH   1  14
HETATM   14  O1  UNL     1      16.667   5.710  29.366  1.00  0.00    -0.379 OA
BRANCH  14  15
HETATM   15  C2  UNL     1      16.819   4.984  30.548  1.00  0.00     0.164 C 
HETATM   16  C1  UNL     1      15.554   4.332  31.000  1.00  0.00     0.033 C 
ENDBRANCH  14  15
ENDBRANCH   1  14
BRANCH  11  17
HETATM   17  O3  UNL     1      20.359   7.700  26.902  1.00  0.00    -0.366 OA
ATOM     18  H3  UNL     1      20.884   7.818  27.684  1.00  0.00     0.212 HD
ENDBRANCH  11  17
BRANCH  12  19
HETATM   19  O4  UNL     1      18.171   9.284  26.565  1.00  0.00    -0.367 OA
ATOM     20  H4  UNL     1      17.365   9.727  26.323  1.00  0.00     0.212 HD
ENDBRANCH  12  19
TORSDOF 4
ENDMDL
