MODEL 1
REMARK VINA RESULT: -12.187812228      0.000      0.000
REMARK  1 active torsions:
REMARK  status: ('A' for Active; 'I' for Inactive)
REMARK    1  A    between atoms: N1_1  and  C1_4 
ROOT
HETATM    1  C1  UNL     1      46.249  24.158  67.582  1.00  0.00     0.099 A 
HETATM    2  C2  UNL     1      45.633  23.284  66.728  1.00  0.00     0.049 A 
HETATM    3  C3  UNL     1      44.280  23.415  66.414  1.00  0.00     0.018 A 
HETATM    4  C4  UNL     1      43.600  24.443  66.994  1.00  0.00     0.006 A 
HETATM    5  C5  UNL     1      44.260  25.338  67.874  1.00  0.00     0.044 A 
HETATM    6  C6  UNL     1      43.536  26.378  68.409  1.00  0.00     0.031 A 
HETATM    7  C7  UNL     1      42.209  26.591  68.138  1.00  0.00     0.014 A 
HETATM    8  C8  UNL     1      41.577  25.720  67.292  1.00  0.00    -0.021 A 
HETATM    9  C9  UNL     1      40.259  26.031  67.040  1.00  0.00     0.013 C 
HETATM   10  C10 UNL     1      39.513  25.710  65.897  1.00  0.00     0.013 C 
HETATM   11  C11 UNL     1      39.740  24.696  64.979  1.00  0.00    -0.022 A 
HETATM   12  C12 UNL     1      38.816  24.689  63.963  1.00  0.00     0.012 A 
HETATM   13  C13 UNL     1      38.897  23.731  62.970  1.00  0.00     0.001 A 
HETATM   14  C14 UNL     1      39.909  22.777  62.996  1.00  0.00     0.001 A 
HETATM   15  C15 UNL     1      40.831  22.795  64.024  1.00  0.00     0.016 A 
HETATM   16  C16 UNL     1      40.770  23.737  65.021  1.00  0.00     0.025 A 
HETATM   17  C17 UNL     1      41.755  23.612  65.968  1.00  0.00     0.195 C 
HETATM   18  O1  UNL     1      42.204  22.484  66.161  1.00  0.00    -0.287 OA
HETATM   19  C18 UNL     1      42.271  24.635  66.718  1.00  0.00     0.038 A 
HETATM   20  N2  UNL     1      45.554  25.157  68.129  1.00  0.00    -0.342 N 
ATOM     21  H2  UNL     1      46.028  25.801  68.762  1.00  0.00     0.167 HD
ENDROOT
BRANCH   1  22
HETATM   22  N1  UNL     1      47.525  23.987  67.847  1.00  0.00    -0.385 N 
ATOM     23  H12 UNL     1      47.863  23.910  68.807  1.00  0.00     0.157 HD
ATOM     24  H11 UNL     1      48.183  23.927  67.070  1.00  0.00     0.157 HD
ENDBRANCH   1  22
TORSDOF 1
ENDMDL
MODEL 2
REMARK VINA RESULT: -11.121017921      2.495      4.069
REMARK  1 active torsions:
REMARK  status: ('A' for Active; 'I' for Inactive)
REMARK    1  A    between atoms: N1_1  and  C1_4 
ROOT
HETATM    1  C1  UNL     1      43.996  21.035  67.507  1.00  0.00     0.099 A 
HETATM    2  C2  UNL     1      43.350  22.165  67.931  1.00  0.00     0.049 A 
HETATM    3  C3  UNL     1      42.442  22.828  67.106  1.00  0.00     0.018 A 
HETATM    4  C4  UNL     1      42.229  22.308  65.864  1.00  0.00     0.006 A 
HETATM    5  C5  UNL     1      42.907  21.135  65.449  1.00  0.00     0.044 A 
HETATM    6  C6  UNL     1      42.633  20.633  64.197  1.00  0.00     0.031 A 
HETATM    7  C7  UNL     1      41.741  21.211  63.332  1.00  0.00     0.014 A 
HETATM    8  C8  UNL     1      41.093  22.346  63.738  1.00  0.00    -0.021 A 
HETATM    9  C9  UNL     1      40.184  22.836  62.828  1.00  0.00     0.013 C 
HETATM   10  C10 UNL     1      39.039  23.600  63.096  1.00  0.00     0.013 C 
HETATM   11  C11 UNL     1      38.770  24.385  64.207  1.00  0.00    -0.022 A 
HETATM   12  C12 UNL     1      37.532  24.977  64.146  1.00  0.00     0.012 A 
HETATM   13  C13 UNL     1      37.116  25.801  65.174  1.00  0.00     0.001 A 
HETATM   14  C14 UNL     1      37.944  26.031  66.268  1.00  0.00     0.001 A 
HETATM   15  C15 UNL     1      39.186  25.429  66.317  1.00  0.00     0.016 A 
HETATM   16  C16 UNL     1      39.620  24.607  65.307  1.00  0.00     0.025 A 
HETATM   17  C17 UNL     1      40.877  24.095  65.505  1.00  0.00     0.195 C 
HETATM   18  O1  UNL     1      41.654  24.768  66.181  1.00  0.00    -0.287 OA
HETATM   19  C18 UNL     1      41.339  22.905  65.010  1.00  0.00     0.038 A 
HETATM   20  N2  UNL     1      43.761  20.551  66.287  1.00  0.00    -0.342 N 
ATOM     21  H2  UNL     1      44.249  19.707  65.987  1.00  0.00     0.167 HD
ENDROOT
BRANCH   1  22
HETATM   22  N1  UNL     1      44.847  20.451  68.323  1.00  0.00    -0.385 N 
ATOM     23  H12 UNL     1      44.579  19.638  68.877  1.00  0.00     0.157 HD
ATOM     24  H11 UNL     1      45.793  20.826  68.393  1.00  0.00     0.157 HD
ENDBRANCH   1  22
TORSDOF 1
ENDMDL
MODEL 3
REMARK VINA RESULT: -10.945994389      1.626      3.024
REMARK  1 active torsions:
REMARK  status: ('A' for Active; 'I' for Inactive)
REMARK    1  A    between atoms: N1_1  and  C1_4 
ROOT
HETATM    1  C1  UNL     1      43.863  25.902  68.187  1.00  0.00     0.099 A 
HETATM    2  C2  UNL     1      44.242  24.663  67.746  1.00  0.00     0.049 A 
HETATM    3  C3  UNL     1      43.448  23.941  66.855  1.00  0.00     0.018 A 
HETATM    4  C4  UNL     1      42.282  24.516  66.447  1.00  0.00     0.006 A 
HETATM    5  C5  UNL     1      41.911  25.802  66.916  1.00  0.00     0.044 A 
HETATM    6  C6  UNL     1      40.740  26.352  66.450  1.00  0.00     0.031 A 
HETATM    7  C7  UNL     1      39.912  25.720  65.559  1.00  0.00     0.014 A 
HETATM    8  C8  UNL     1      40.273  24.477  65.115  1.00  0.00    -0.021 A 
HETATM    9  C9  UNL     1      39.410  23.931  64.191  1.00  0.00     0.013 C 
HETATM   10  C10 UNL     1      39.712  22.994  63.194  1.00  0.00     0.013 C 
HETATM   11  C11 UNL     1      40.770  22.098  63.147  1.00  0.00    -0.022 A 
HETATM   12  C12 UNL     1      40.770  21.342  62.001  1.00  0.00     0.012 A 
HETATM   13  C13 UNL     1      41.755  20.392  61.807  1.00  0.00     0.001 A 
HETATM   14  C14 UNL     1      42.744  20.201  62.766  1.00  0.00     0.001 A 
HETATM   15  C15 UNL     1      42.733  20.968  63.914  1.00  0.00     0.016 A 
HETATM   16  C16 UNL     1      41.764  21.918  64.129  1.00  0.00     0.025 A 
HETATM   17  C17 UNL     1      41.891  22.587  65.319  1.00  0.00     0.195 C 
HETATM   18  O1  UNL     1      42.431  21.983  66.244  1.00  0.00    -0.287 OA
HETATM   19  C18 UNL     1      41.462  23.865  65.563  1.00  0.00     0.038 A 
HETATM   20  N2  UNL     1      42.717  26.438  67.764  1.00  0.00    -0.342 N 
ATOM     21  H2  UNL     1      42.449  27.363  68.102  1.00  0.00     0.167 HD
ENDROOT
BRANCH   1  22
HETATM   22  N1  UNL     1      44.646  26.538  69.031  1.00  0.00    -0.385 N 
ATOM     23  H12 UNL     1      45.647  26.350  69.070  1.00  0.00     0.157 HD
ATOM     24  H11 UNL     1      44.233  27.234  69.652  1.00  0.00     0.157 HD
ENDBRANCH   1  22
TORSDOF 1
ENDMDL
MODEL 4
REMARK VINA RESULT: -10.931954548      2.885      4.577
REMARK  1 active torsions:
REMARK  status: ('A' for Active; 'I' for Inactive)
REMARK    1  A    between atoms: N1_1  and  C1_4 
ROOT
HETATM    1  C1  UNL     1      43.667  19.749  66.192  1.00  0.00     0.099 A 
HETATM    2  C2  UNL     1      43.456  20.874  66.942  1.00  0.00     0.049 A 
HETATM    3  C3  UNL     1      42.650  21.912  66.475  1.00  0.00     0.018 A 
HETATM    4  C4  UNL     1      42.087  21.761  65.244  1.00  0.00     0.006 A 
HETATM    5  C5  UNL     1      42.317  20.586  64.486  1.00  0.00     0.044 A 
HETATM    6  C6  UNL     1      41.700  20.469  63.262  1.00  0.00     0.031 A 
HETATM    7  C7  UNL     1      40.877  21.431  62.737  1.00  0.00     0.014 A 
HETATM    8  C8  UNL     1      40.663  22.566  63.472  1.00  0.00    -0.021 A 
HETATM    9  C9  UNL     1      39.792  23.461  62.893  1.00  0.00     0.013 C 
HETATM   10  C10 UNL     1      38.980  24.400  63.544  1.00  0.00     0.013 C 
HETATM   11  C11 UNL     1      39.142  24.950  64.807  1.00  0.00    -0.022 A 
HETATM   12  C12 UNL     1      38.137  25.825  65.134  1.00  0.00     0.012 A 
HETATM   13  C13 UNL     1      38.158  26.467  66.358  1.00  0.00     0.001 A 
HETATM   14  C14 UNL     1      39.191  26.228  67.257  1.00  0.00     0.001 A 
HETATM   15  C15 UNL     1      40.196  25.344  66.916  1.00  0.00     0.016 A 
HETATM   16  C16 UNL     1      40.196  24.695  65.705  1.00  0.00     0.025 A 
HETATM   17  C17 UNL     1      41.267  23.859  65.520  1.00  0.00     0.195 C 
HETATM   18  O1  UNL     1      42.308  24.146  66.108  1.00  0.00    -0.287 OA
HETATM   19  C18 UNL     1      41.274  22.739  64.732  1.00  0.00     0.038 A 
HETATM   20  N2  UNL     1      43.096  19.632  64.992  1.00  0.00    -0.342 N 
ATOM     21  H2  UNL     1      43.262  18.787  64.446  1.00  0.00     0.167 HD
ENDROOT
BRANCH   1  22
HETATM   22  N1  UNL     1      44.440  18.803  66.678  1.00  0.00    -0.385 N 
ATOM     23  H12 UNL     1      45.078  18.279  66.079  1.00  0.00     0.157 HD
ATOM     24  H11 UNL     1      44.395  18.599  67.676  1.00  0.00     0.157 HD
ENDBRANCH   1  22
TORSDOF 1
ENDMDL
MODEL 5
REMARK VINA RESULT: -10.670530227      3.177      5.415
REMARK  1 active torsions:
REMARK  status: ('A' for Active; 'I' for Inactive)
REMARK    1  A    between atoms: N1_1  and  C1_4 
ROOT
HETATM    1  C1  UNL     1      38.066  25.885  64.808  1.00  0.00     0.099 A 
HETATM    2  C2  UNL     1      38.411  24.659  64.308  1.00  0.00     0.049 A 
HETATM    3  C3  UNL     1      39.596  24.031  64.692  1.00  0.00     0.018 A 
HETATM    4  C4  UNL     1      40.394  24.688  65.580  1.00  0.00     0.006 A 
HETATM    5  C5  UNL     1      40.014  25.957  66.086  1.00  0.00     0.044 A 
HETATM    6  C6  UNL     1      40.839  26.565  67.004  1.00  0.00     0.031 A 
HETATM    7  C7  UNL     1      42.010  26.009  67.450  1.00  0.00     0.014 A 
HETATM    8  C8  UNL     1      42.373  24.787  66.953  1.00  0.00    -0.021 A 
HETATM    9  C9  UNL     1      43.538  24.281  67.485  1.00  0.00     0.013 C 
HETATM   10  C10 UNL     1      43.901  22.933  67.610  1.00  0.00     0.013 C 
HETATM   11  C11 UNL     1      43.429  21.844  66.892  1.00  0.00    -0.022 A 
HETATM   12  C12 UNL     1      43.992  20.660  67.300  1.00  0.00     0.012 A 
HETATM   13  C13 UNL     1      43.634  19.481  66.675  1.00  0.00     0.001 A 
HETATM   14  C14 UNL     1      42.707  19.490  65.637  1.00  0.00     0.001 A 
HETATM   15  C15 UNL     1      42.149  20.688  65.237  1.00  0.00     0.016 A 
HETATM   16  C16 UNL     1      42.490  21.872  65.844  1.00  0.00     0.025 A 
HETATM   17  C17 UNL     1      41.852  22.969  65.324  1.00  0.00     0.195 C 
HETATM   18  O1  UNL     1      41.516  22.912  64.142  1.00  0.00    -0.287 OA
HETATM   19  C18 UNL     1      41.565  24.121  66.008  1.00  0.00     0.038 A 
HETATM   20  N2  UNL     1      38.869  26.499  65.678  1.00  0.00    -0.342 N 
ATOM     21  H2  UNL     1      38.596  27.413  66.043  1.00  0.00     0.167 HD
ENDROOT
BRANCH   1  22
HETATM   22  N1  UNL     1      36.941  26.435  64.408  1.00  0.00    -0.385 N 
ATOM     23  H12 UNL     1      36.332  25.970  63.735  1.00  0.00     0.157 HD
ATOM     24  H11 UNL     1      36.679  27.345  64.788  1.00  0.00     0.157 HD
ENDBRANCH   1  22
TORSDOF 1
ENDMDL
