MODEL 1
REMARK VINA RESULT: -6.270171177      0.000      0.000
REMARK  8 active torsions:
REMARK  status: ('A' for Active; 'I' for Inactive)
REMARK    1  A    between atoms: N1_2  and  C2_4 
REMARK    2  A    between atoms: C3_7  and  S1_8 
REMARK    3  A    between atoms: C5_12  and  N4_13 
REMARK    4  A    between atoms: N4_13  and  C6_15 
REMARK    5  A    between atoms: C6_15  and  C7_16 
REMARK    6  A    between atoms: C6_15  and  C8_19 
REMARK    7  A    between atoms: C7_16  and  O1_17 
REMARK    8  A    between atoms: C9_26  and  N8_27 
ROOT
HETATM    1  C6  UNL     1      17.252  46.638 -53.325  1.00  0.00     0.192 C 
ENDROOT
BRANCH   1   2
HETATM    2  N4  UNL     1      16.892  46.309 -51.985  1.00  0.00    -0.212 N 
ATOM      3  H4  UNL     1      17.499  45.656 -51.491  1.00  0.00     0.178 HD
BRANCH   2   4
HETATM    4  C5  UNL     1      15.880  46.756 -51.347  1.00  0.00     0.695 A 
HETATM    5  N3  UNL     1      15.025  45.973 -50.663  1.00  0.00    -0.169 N 
HETATM    6  C3  UNL     1      13.961  46.505 -50.000  1.00  0.00     0.174 A 
ATOM      7  H3  UNL     1      15.176  44.964 -50.640  1.00  0.00     0.186 HD
HETATM    8  N2  UNL     1      13.734  47.834 -50.012  1.00  0.00    -0.169 N 
HETATM    9  C2  UNL     1      14.583  48.625 -50.693  1.00  0.00     0.694 A 
ATOM     10  H2  UNL     1      12.937  48.232 -49.516  1.00  0.00     0.186 HD
HETATM   11  N10 UNL     1      15.637  48.079 -51.347  1.00  0.00    -0.022 N 
ATOM     12  H10 UNL     1      16.270  48.694 -51.858  1.00  0.00     0.203 HD
BRANCH   6  13
HETATM   13  S1  UNL     1      12.828  45.463 -49.092  1.00  0.00    -0.097 SA
HETATM   14  C4  UNL     1      12.842  45.822 -47.329  1.00  0.00     0.099 C 
ENDBRANCH   6  13
BRANCH   9  15
HETATM   15  N1  UNL     1      14.386  49.891 -50.717  1.00  0.00    -0.230 N 
HETATM   16  C1  UNL     1      13.104  50.490 -50.378  1.00  0.00     0.165 C 
ATOM     17  H1  UNL     1      15.157  50.503 -50.985  1.00  0.00     0.177 HD
ENDBRANCH   9  15
ENDBRANCH   2   4
ENDBRANCH   1   2
BRANCH   1  18
HETATM   18  C7  UNL     1      16.619  45.677 -54.338  1.00  0.00     0.197 C 
BRANCH  18  19
HETATM   19  O1  UNL     1      17.615  44.990 -55.036  1.00  0.00    -0.398 OA
ATOM     20  H1  UNL     1      17.820  45.444 -55.844  1.00  0.00     0.209 HD
ENDBRANCH  18  19
ENDBRANCH   1  18
BRANCH   1  21
HETATM   21  C8  UNL     1      18.729  46.411 -53.444  1.00  0.00     0.138 A 
HETATM   22  N5  UNL     1      19.347  47.123 -54.429  1.00  0.00    -0.272 N 
HETATM   23  N6  UNL     1      20.642  46.979 -54.598  1.00  0.00    -0.227 N 
ATOM     24  H5  UNL     1      18.813  47.755 -55.024  1.00  0.00     0.190 HD
HETATM   25  N7  UNL     1      21.357  46.158 -53.832  1.00  0.00    -0.118 N 
ATOM     26  H6  UNL     1      21.110  47.510 -55.333  1.00  0.00     0.209 HD
HETATM   27  C9  UNL     1      20.736  45.459 -52.860  1.00  0.00     0.693 A 
ATOM     28  H7  UNL     1      22.361  46.058 -53.980  1.00  0.00     0.207 HD
HETATM   29  N9  UNL     1      19.411  45.585 -52.663  1.00  0.00    -0.176 N 
ATOM     30  H9  UNL     1      18.941  45.057 -51.928  1.00  0.00     0.185 HD
BRANCH  27  31
HETATM   31  N8  UNL     1      21.431  44.651 -52.103  1.00  0.00    -0.233 N 
ATOM     32  H82 UNL     1      21.042  44.327 -51.217  1.00  0.00     0.174 HD
ATOM     33  H81 UNL     1      22.357  44.349 -52.406  1.00  0.00     0.174 HD
ENDBRANCH  27  31
ENDBRANCH   1  21
TORSDOF 8
ENDMDL
MODEL 2
REMARK VINA RESULT: -6.231288684      1.547      2.557
REMARK  8 active torsions:
REMARK  status: ('A' for Active; 'I' for Inactive)
REMARK    1  A    between atoms: N1_2  and  C2_4 
REMARK    2  A    between atoms: C3_7  and  S1_8 
REMARK    3  A    between atoms: C5_12  and  N4_13 
REMARK    4  A    between atoms: N4_13  and  C6_15 
REMARK    5  A    between atoms: C6_15  and  C7_16 
REMARK    6  A    between atoms: C6_15  and  C8_19 
REMARK    7  A    between atoms: C7_16  and  O1_17 
REMARK    8  A    between atoms: C9_26  and  N8_27 
ROOT
HETATM    1  C6  UNL     1      17.331  46.600 -53.298  1.00  0.00     0.192 C 
ENDROOT
BRANCH   1   2
HETATM    2  N4  UNL     1      16.955  46.039 -52.042  1.00  0.00    -0.212 N 
ATOM      3  H4  UNL     1      17.268  45.088 -51.848  1.00  0.00     0.178 HD
BRANCH   2   4
HETATM    4  C5  UNL     1      16.263  46.617 -51.138  1.00  0.00     0.695 A 
HETATM    5  N3  UNL     1      16.532  47.849 -50.667  1.00  0.00    -0.169 N 
HETATM    6  C3  UNL     1      15.759  48.417 -49.700  1.00  0.00     0.174 A 
ATOM      7  H3  UNL     1      17.327  48.367 -51.041  1.00  0.00     0.186 HD
HETATM    8  N2  UNL     1      14.701  47.757 -49.186  1.00  0.00    -0.169 N 
HETATM    9  C2  UNL     1      14.424  46.525 -49.649  1.00  0.00     0.694 A 
ATOM     10  H2  UNL     1      14.123  48.182 -48.462  1.00  0.00     0.186 HD
HETATM   11  N10 UNL     1      15.204  45.975 -50.613  1.00  0.00    -0.022 N 
ATOM     12  H10 UNL     1      14.979  45.040 -50.952  1.00  0.00     0.203 HD
BRANCH   6  13
HETATM   13  S1  UNL     1      16.118  50.053 -49.078  1.00  0.00    -0.097 SA
HETATM   14  C4  UNL     1      14.626  51.031 -48.842  1.00  0.00     0.099 C 
ENDBRANCH   6  13
BRANCH   9  15
HETATM   15  N1  UNL     1      13.423  45.881 -49.174  1.00  0.00    -0.230 N 
HETATM   16  C1  UNL     1      13.083  45.895 -47.760  1.00  0.00     0.165 C 
ATOM     17  H1  UNL     1      12.843  45.336 -49.812  1.00  0.00     0.177 HD
ENDBRANCH   9  15
ENDBRANCH   2   4
ENDBRANCH   1   2
BRANCH   1  18
HETATM   18  C7  UNL     1      16.700  45.841 -54.472  1.00  0.00     0.197 C 
BRANCH  18  19
HETATM   19  O1  UNL     1      17.625  44.951 -55.022  1.00  0.00    -0.398 OA
ATOM     20  H1  UNL     1      17.470  44.851 -55.954  1.00  0.00     0.209 HD
ENDBRANCH  18  19
ENDBRANCH   1  18
BRANCH   1  21
HETATM   21  C8  UNL     1      18.807  46.383 -53.444  1.00  0.00     0.138 A 
HETATM   22  N5  UNL     1      19.407  47.121 -54.420  1.00  0.00    -0.272 N 
HETATM   23  N6  UNL     1      20.700  46.988 -54.612  1.00  0.00    -0.227 N 
ATOM     24  H5  UNL     1      18.861  47.765 -54.993  1.00  0.00     0.190 HD
HETATM   25  N7  UNL     1      21.430  46.152 -53.876  1.00  0.00    -0.118 N 
ATOM     26  H6  UNL     1      21.155  47.539 -55.340  1.00  0.00     0.209 HD
HETATM   27  C9  UNL     1      20.827  45.427 -52.912  1.00  0.00     0.693 A 
ATOM     28  H7  UNL     1      22.433  46.061 -54.040  1.00  0.00     0.207 HD
HETATM   29  N9  UNL     1      19.504  45.542 -52.693  1.00  0.00    -0.176 N 
ATOM     30  H9  UNL     1      19.047  44.993 -51.964  1.00  0.00     0.185 HD
BRANCH  27  31
HETATM   31  N8  UNL     1      21.537  44.605 -52.185  1.00  0.00    -0.233 N 
ATOM     32  H82 UNL     1      22.484  44.360 -52.475  1.00  0.00     0.174 HD
ATOM     33  H81 UNL     1      21.137  44.214 -51.332  1.00  0.00     0.174 HD
ENDBRANCH  27  31
ENDBRANCH   1  21
TORSDOF 8
ENDMDL
MODEL 3
REMARK VINA RESULT: -6.202958647      1.490      1.544
REMARK  8 active torsions:
REMARK  status: ('A' for Active; 'I' for Inactive)
REMARK    1  A    between atoms: N1_2  and  C2_4 
REMARK    2  A    between atoms: C3_7  and  S1_8 
REMARK    3  A    between atoms: C5_12  and  N4_13 
REMARK    4  A    between atoms: N4_13  and  C6_15 
REMARK    5  A    between atoms: C6_15  and  C7_16 
REMARK    6  A    between atoms: C6_15  and  C8_19 
REMARK    7  A    between atoms: C7_16  and  O1_17 
REMARK    8  A    between atoms: C9_26  and  N8_27 
ROOT
HETATM    1  C6  UNL     1      17.539  46.723 -53.373  1.00  0.00     0.192 C 
ENDROOT
BRANCH   1   2
HETATM    2  N4  UNL     1      16.984  45.854 -52.388  1.00  0.00    -0.212 N 
ATOM      3  H4  UNL     1      17.043  44.852 -52.569  1.00  0.00     0.178 HD
BRANCH   2   4
HETATM    4  C5  UNL     1      16.420  46.214 -51.300  1.00  0.00     0.695 A 
HETATM    5  N3  UNL     1      16.840  45.831 -50.080  1.00  0.00    -0.169 N 
HETATM    6  C3  UNL     1      16.199  46.246 -48.953  1.00  0.00     0.174 A 
ATOM      7  H3  UNL     1      17.653  45.220 -49.999  1.00  0.00     0.186 HD
HETATM    8  N2  UNL     1      15.122  47.054 -49.030  1.00  0.00    -0.169 N 
HETATM    9  C2  UNL     1      14.694  47.443 -50.243  1.00  0.00     0.694 A 
ATOM     10  H2  UNL     1      14.642  47.364 -48.185  1.00  0.00     0.186 HD
HETATM   11  N10 UNL     1      15.344  47.020 -51.356  1.00  0.00    -0.022 N 
ATOM     12  H10 UNL     1      15.005  47.325 -52.268  1.00  0.00     0.203 HD
BRANCH   6  13
HETATM   13  S1  UNL     1      16.760  45.736 -47.335  1.00  0.00    -0.097 SA
HETATM   14  C4  UNL     1      15.391  45.355 -46.232  1.00  0.00     0.099 C 
ENDBRANCH   6  13
BRANCH   9  15
HETATM   15  N1  UNL     1      13.672  48.210 -50.338  1.00  0.00    -0.230 N 
HETATM   16  C1  UNL     1      13.772  49.659 -50.254  1.00  0.00     0.165 C 
ATOM     17  H1  UNL     1      12.753  47.790 -50.477  1.00  0.00     0.177 HD
ENDBRANCH   9  15
ENDBRANCH   2   4
ENDBRANCH   1   2
BRANCH   1  18
HETATM   18  C7  UNL     1      16.987  46.425 -54.772  1.00  0.00     0.197 C 
BRANCH  18  19
HETATM   19  O1  UNL     1      17.629  45.311 -55.316  1.00  0.00    -0.398 OA
ATOM     20  H1  UNL     1      17.631  45.364 -56.264  1.00  0.00     0.209 HD
ENDBRANCH  18  19
ENDBRANCH   1  18
BRANCH   1  21
HETATM   21  C8  UNL     1      19.002  46.402 -53.457  1.00  0.00     0.138 A 
HETATM   22  N5  UNL     1      19.697  47.111 -54.391  1.00  0.00    -0.272 N 
HETATM   23  N6  UNL     1      20.985  46.889 -54.526  1.00  0.00    -0.227 N 
ATOM     24  H5  UNL     1      19.226  47.802 -54.974  1.00  0.00     0.190 HD
HETATM   25  N7  UNL     1      21.619  45.990 -53.775  1.00  0.00    -0.118 N 
ATOM     26  H6  UNL     1      21.511  47.416 -55.223  1.00  0.00     0.209 HD
HETATM   27  C9  UNL     1      20.921  45.295 -52.854  1.00  0.00     0.693 A 
ATOM     28  H7  UNL     1      22.619  45.830 -53.896  1.00  0.00     0.207 HD
HETATM   29  N9  UNL     1      19.601  45.501 -52.692  1.00  0.00    -0.176 N 
ATOM     30  H9  UNL     1      19.073  44.975 -51.995  1.00  0.00     0.185 HD
BRANCH  27  31
HETATM   31  N8  UNL     1      21.536  44.412 -52.111  1.00  0.00    -0.233 N 
ATOM     32  H82 UNL     1      20.999  43.685 -51.639  1.00  0.00     0.174 HD
ATOM     33  H81 UNL     1      22.550  44.457 -52.011  1.00  0.00     0.174 HD
ENDBRANCH  27  31
ENDBRANCH   1  21
TORSDOF 8
ENDMDL
MODEL 4
REMARK VINA RESULT: -6.169911821      4.961      8.708
REMARK  8 active torsions:
REMARK  status: ('A' for Active; 'I' for Inactive)
REMARK    1  A    between atoms: N1_2  and  C2_4 
REMARK    2  A    between atoms: C3_7  and  S1_8 
REMARK    3  A    between atoms: C5_12  and  N4_13 
REMARK    4  A    between atoms: N4_13  and  C6_15 
REMARK    5  A    between atoms: C6_15  and  C7_16 
REMARK    6  A    between atoms: C6_15  and  C8_19 
REMARK    7  A    between atoms: C7_16  and  O1_17 
REMARK    8  A    between atoms: C9_26  and  N8_27 
ROOT
HETATM    1  C6  UNL     1      13.762  48.619 -46.136  1.00  0.00     0.192 C 
ENDROOT
BRANCH   1   2
HETATM    2  N4  UNL     1      14.204  47.998 -47.341  1.00  0.00    -0.212 N 
ATOM      3  H4  UNL     1      14.529  47.034 -47.272  1.00  0.00     0.178 HD
BRANCH   2   4
HETATM    4  C5  UNL     1      14.232  48.537 -48.498  1.00  0.00     0.695 A 
HETATM    5  N3  UNL     1      15.196  48.301 -49.408  1.00  0.00    -0.169 N 
HETATM    6  C3  UNL     1      15.174  48.906 -50.628  1.00  0.00     0.174 A 
ATOM      7  H3  UNL     1      15.955  47.659 -49.180  1.00  0.00     0.186 HD
HETATM    8  N2  UNL     1      14.184  49.760 -50.958  1.00  0.00    -0.169 N 
HETATM    9  C2  UNL     1      13.216  50.002 -50.057  1.00  0.00     0.694 A 
ATOM     10  H2  UNL     1      14.169  50.212 -51.872  1.00  0.00     0.186 HD
HETATM   11  N10 UNL     1      13.253  49.392 -48.846  1.00  0.00    -0.022 N 
ATOM     12  H10 UNL     1      12.511  49.588 -48.175  1.00  0.00     0.203 HD
BRANCH   6  13
HETATM   13  S1  UNL     1      16.455  48.589 -51.834  1.00  0.00    -0.097 SA
HETATM   14  C4  UNL     1      16.280  46.971 -52.600  1.00  0.00     0.099 C 
ENDBRANCH   6  13
BRANCH   9  15
HETATM   15  N1  UNL     1      12.266  50.811 -50.351  1.00  0.00    -0.230 N 
HETATM   16  C1  UNL     1      12.508  52.182 -50.771  1.00  0.00     0.165 C 
ATOM     17  H1  UNL     1      11.303  50.480 -50.287  1.00  0.00     0.177 HD
ENDBRANCH   9  15
ENDBRANCH   2   4
ENDBRANCH   1   2
BRANCH   1  18
HETATM   18  C7  UNL     1      14.663  48.264 -44.948  1.00  0.00     0.197 C 
BRANCH  18  19
HETATM   19  O1  UNL     1      13.886  47.895 -43.848  1.00  0.00    -0.398 OA
ATOM     20  H1  UNL     1      13.863  46.949 -43.766  1.00  0.00     0.209 HD
ENDBRANCH  18  19
ENDBRANCH   1  18
BRANCH   1  21
HETATM   21  C8  UNL     1      12.428  48.019 -45.805  1.00  0.00     0.138 A 
HETATM   22  N5  UNL     1      12.322  46.680 -46.038  1.00  0.00    -0.272 N 
HETATM   23  N6  UNL     1      11.184  46.079 -45.773  1.00  0.00    -0.227 N 
ATOM     24  H5  UNL     1      13.111  46.155 -46.412  1.00  0.00     0.190 HD
HETATM   25  N7  UNL     1      10.141  46.748 -45.286  1.00  0.00    -0.118 N 
ATOM     26  H6  UNL     1      11.098  45.077 -45.944  1.00  0.00     0.209 HD
HETATM   27  C9  UNL     1      10.257  48.072 -45.059  1.00  0.00     0.693 A 
ATOM     28  H7  UNL     1       9.264  46.265 -45.088  1.00  0.00     0.207 HD
HETATM   29  N9  UNL     1      11.410  48.715 -45.320  1.00  0.00    -0.176 N 
ATOM     30  H9  UNL     1      11.498  49.717 -45.148  1.00  0.00     0.185 HD
BRANCH  27  31
HETATM   31  N8  UNL     1       9.238  48.736 -44.579  1.00  0.00    -0.233 N 
ATOM     32  H82 UNL     1       8.844  48.477 -43.675  1.00  0.00     0.174 HD
ATOM     33  H81 UNL     1       8.844  49.510 -45.115  1.00  0.00     0.174 HD
ENDBRANCH  27  31
ENDBRANCH   1  21
TORSDOF 8
ENDMDL
MODEL 5
REMARK VINA RESULT: -6.166191861      2.103      2.606
REMARK  8 active torsions:
REMARK  status: ('A' for Active; 'I' for Inactive)
REMARK    1  A    between atoms: N1_2  and  C2_4 
REMARK    2  A    between atoms: C3_7  and  S1_8 
REMARK    3  A    between atoms: C5_12  and  N4_13 
REMARK    4  A    between atoms: N4_13  and  C6_15 
REMARK    5  A    between atoms: C6_15  and  C7_16 
REMARK    6  A    between atoms: C6_15  and  C8_19 
REMARK    7  A    between atoms: C7_16  and  O1_17 
REMARK    8  A    between atoms: C9_26  and  N8_27 
ROOT
HETATM    1  C6  UNL     1      17.537  46.677 -53.655  1.00  0.00     0.192 C 
ENDROOT
BRANCH   1   2
HETATM    2  N4  UNL     1      16.998  46.522 -52.344  1.00  0.00    -0.212 N 
ATOM      3  H4  UNL     1      16.958  45.574 -51.970  1.00  0.00     0.178 HD
BRANCH   2   4
HETATM    4  C5  UNL     1      16.562  47.459 -51.595  1.00  0.00     0.695 A 
HETATM    5  N3  UNL     1      17.349  48.405 -51.048  1.00  0.00    -0.169 N 
HETATM    6  C3  UNL     1      16.828  49.382 -50.256  1.00  0.00     0.174 A 
ATOM      7  H3  UNL     1      18.353  48.388 -51.231  1.00  0.00     0.186 HD
HETATM    8  N2  UNL     1      15.506  49.428 -49.996  1.00  0.00    -0.169 N 
HETATM    9  C2  UNL     1      14.710  48.489 -50.537  1.00  0.00     0.694 A 
ATOM     10  H2  UNL     1      15.116  50.161 -49.402  1.00  0.00     0.186 HD
HETATM   11  N10 UNL     1      15.245  47.523 -51.324  1.00  0.00    -0.022 N 
ATOM     12  H10 UNL     1      14.627  46.818 -51.726  1.00  0.00     0.203 HD
BRANCH   6  13
HETATM   13  S1  UNL     1      17.876  50.635 -49.532  1.00  0.00    -0.097 SA
HETATM   14  C4  UNL     1      17.914  50.533 -47.736  1.00  0.00     0.099 C 
ENDBRANCH   6  13
BRANCH   9  15
HETATM   15  N1  UNL     1      13.450  48.515 -50.303  1.00  0.00    -0.230 N 
HETATM   16  C1  UNL     1      12.742  49.741 -49.969  1.00  0.00     0.165 C 
ATOM     17  H1  UNL     1      12.924  47.643 -50.353  1.00  0.00     0.177 HD
ENDBRANCH   9  15
ENDBRANCH   2   4
ENDBRANCH   1   2
BRANCH   1  18
HETATM   18  C7  UNL     1      16.975  45.634 -54.629  1.00  0.00     0.197 C 
BRANCH  18  19
HETATM   19  O1  UNL     1      17.484  45.850 -55.911  1.00  0.00    -0.398 OA
ATOM     20  H1  UNL     1      17.954  45.081 -56.210  1.00  0.00     0.209 HD
ENDBRANCH  18  19
ENDBRANCH   1  18
BRANCH   1  21
HETATM   21  C8  UNL     1      19.001  46.369 -53.560  1.00  0.00     0.138 A 
HETATM   22  N5  UNL     1      19.790  47.018 -54.462  1.00  0.00    -0.272 N 
HETATM   23  N6  UNL     1      21.085  46.802 -54.444  1.00  0.00    -0.227 N 
ATOM     24  H5  UNL     1      19.380  47.661 -55.140  1.00  0.00     0.190 HD
HETATM   25  N7  UNL     1      21.639  45.966 -53.568  1.00  0.00    -0.118 N 
ATOM     26  H6  UNL     1      21.681  47.286 -55.116  1.00  0.00     0.209 HD
HETATM   27  C9  UNL     1      20.850  45.329 -52.679  1.00  0.00     0.693 A 
ATOM     28  H7  UNL     1      22.647  45.809 -53.570  1.00  0.00     0.207 HD
HETATM   29  N9  UNL     1      19.520  45.531 -52.673  1.00  0.00    -0.176 N 
ATOM     30  H9  UNL     1      18.922  45.049 -52.001  1.00  0.00     0.185 HD
BRANCH  27  31
HETATM   31  N8  UNL     1      21.386  44.507 -51.814  1.00  0.00    -0.233 N 
ATOM     32  H82 UNL     1      21.344  44.722 -50.818  1.00  0.00     0.174 HD
ATOM     33  H81 UNL     1      21.842  43.656 -52.144  1.00  0.00     0.174 HD
ENDBRANCH  27  31
ENDBRANCH   1  21
TORSDOF 8
ENDMDL
