MODEL 1
REMARK VINA RESULT: -8.274162889      0.000      0.000
REMARK  15 active torsions:
REMARK  status: ('A' for Active; 'I' for Inactive)
REMARK       I    between atoms: C2_2  and  N1_4 
REMARK    1  A    between atoms: N1_4  and  O2_5 
REMARK    2  A    between atoms: N1_4  and  C9_13 
REMARK    3  A    between atoms: O2_5  and  C3_6 
REMARK    4  A    between atoms: C3_6  and  C5_8 
REMARK    5  A    between atoms: N2_15  and  N3_17 
REMARK    6  A    between atoms: C11_19  and  N4_20 
REMARK    7  A    between atoms: C11_19  and  C14_30 
REMARK    8  A    between atoms: N4_20  and  C12_22 
REMARK    9  A    between atoms: C12_22  and  C13_23 
REMARK   10  A    between atoms: C13_23  and  O4_24 
REMARK   11  A    between atoms: N5_26  and  O5_28 
REMARK   12  A    between atoms: C14_30  and  N6_31 
REMARK   13  A    between atoms: C14_30  and  C16_35 
REMARK   14  A    between atoms: C16_35  and  O6_36 
REMARK   15  A    between atoms: C16_35  and  O7_38 
ROOT
HETATM    1  N6  UNL     1      20.549  34.091   8.297  1.00  0.00    -0.312 N 
ATOM      2  H6  UNL     1      21.355  34.027   8.919  1.00  0.00     0.172 HD
HETATM    3  C15 UNL     1      19.790  32.938   8.071  1.00  0.00     0.178 C 
HETATM    4  N7  UNL     1      19.164  31.976   7.904  1.00  0.00    -0.172 NA
ENDROOT
BRANCH   1   5
HETATM    5  C14 UNL     1      20.249  35.356   7.696  1.00  0.00     0.215 C 
BRANCH   5   6
HETATM    6  C11 UNL     1      18.900  35.871   7.921  1.00  0.00     0.121 C 
HETATM    7  N3  UNL     1      18.632  36.546   8.984  1.00  0.00    -0.286 N 
ATOM      8  H3  UNL     1      17.670  36.876   9.064  1.00  0.00     0.188 HD
BRANCH   7   9
HETATM    9  N2  UNL     1      19.454  36.881  10.022  1.00  0.00    -0.286 N 
HETATM   10  C9  UNL     1      19.550  36.179  11.125  1.00  0.00     0.123 C 
HETATM   11  C10 UNL     1      18.659  34.967  11.167  1.00  0.00     0.093 C 
ATOM     12  H2  UNL     1      20.023  37.723   9.934  1.00  0.00     0.188 HD
BRANCH  10  13
HETATM   13  N1  UNL     1      20.393  36.528  12.184  1.00  0.00    -0.175 N 
HETATM   14  C2  UNL     1      19.862  36.776  13.473  1.00  0.00     0.245 C 
HETATM   15  C1  UNL     1      18.460  36.679  13.878  1.00  0.00     0.120 C 
HETATM   16  O1  UNL     1      20.703  37.121  14.381  1.00  0.00    -0.271 OA
BRANCH  13  17
HETATM   17  O2  UNL     1      21.718  36.665  12.079  1.00  0.00    -0.259 OA
BRANCH  17  18
HETATM   18  C3  UNL     1      22.220  37.850  11.643  1.00  0.00     0.184 C 
HETATM   19  C4  UNL     1      21.333  39.026  12.110  1.00  0.00     0.047 C 
BRANCH  18  20
HETATM   20  C5  UNL     1      23.574  38.166  12.071  1.00  0.00    -0.003 A 
HETATM   21  C6  UNL     1      24.684  37.349  12.088  1.00  0.00     0.036 A 
HETATM   22  C7  UNL     1      25.747  38.073  12.550  1.00  0.00     0.142 A 
HETATM   23  O3  UNL     1      25.314  39.278  12.806  1.00  0.00    -0.334 OA
HETATM   24  C8  UNL     1      24.030  39.377  12.536  1.00  0.00     0.151 A 
ENDBRANCH  18  20
ENDBRANCH  17  18
ENDBRANCH  13  17
ENDBRANCH  10  13
ENDBRANCH   7   9
BRANCH   6  25
HETATM   25  N4  UNL     1      17.813  35.694   7.025  1.00  0.00    -0.369 N 
ATOM     26  H4  UNL     1      17.520  34.731   6.857  1.00  0.00     0.161 HD
BRANCH  25  27
HETATM   27  C12 UNL     1      17.082  36.705   6.332  1.00  0.00     0.206 C 
BRANCH  27  28
HETATM   28  C13 UNL     1      16.939  36.532   4.890  1.00  0.00     0.153 C 
HETATM   29  N5  UNL     1      17.802  35.869   4.209  1.00  0.00    -0.250 N 
ATOM     30  H5  UNL     1      18.600  35.456   4.690  1.00  0.00     0.196 HD
BRANCH  28  31
HETATM   31  O4  UNL     1      15.864  37.086   4.229  1.00  0.00    -0.347 OA
ATOM     32  H4  UNL     1      15.869  37.152   3.281  1.00  0.00     0.219 HD
ENDBRANCH  28  31
BRANCH  29  33
HETATM   33  O5  UNL     1      17.680  35.700   2.867  1.00  0.00    -0.288 OA
ATOM     34  H5  UNL     1      18.429  35.507   2.315  1.00  0.00     0.244 HD
ENDBRANCH  29  33
ENDBRANCH  27  28
ENDBRANCH  25  27
ENDBRANCH   6  25
ENDBRANCH   5   6
BRANCH   5  35
HETATM   35  C16 UNL     1      20.632  35.335   6.232  1.00  0.00     0.284 C 
BRANCH  35  36
HETATM   36  O6  UNL     1      22.017  35.288   6.117  1.00  0.00    -0.369 OA
ATOM     37  H6  UNL     1      22.258  35.278   5.198  1.00  0.00     0.212 HD
ENDBRANCH  35  36
BRANCH  35  38
HETATM   38  O7  UNL     1      20.122  34.234   5.566  1.00  0.00    -0.369 OA
ATOM     39  H7  UNL     1      20.763  33.541   5.463  1.00  0.00     0.212 HD
ENDBRANCH  35  38
ENDBRANCH   5  35
ENDBRANCH   1   5
TORSDOF 15
ENDMDL
MODEL 2
REMARK VINA RESULT: -7.195102310      1.260      1.518
REMARK  15 active torsions:
REMARK  status: ('A' for Active; 'I' for Inactive)
REMARK       I    between atoms: C2_2  and  N1_4 
REMARK    1  A    between atoms: N1_4  and  O2_5 
REMARK    2  A    between atoms: N1_4  and  C9_13 
REMARK    3  A    between atoms: O2_5  and  C3_6 
REMARK    4  A    between atoms: C3_6  and  C5_8 
REMARK    5  A    between atoms: N2_15  and  N3_17 
REMARK    6  A    between atoms: C11_19  and  N4_20 
REMARK    7  A    between atoms: C11_19  and  C14_30 
REMARK    8  A    between atoms: N4_20  and  C12_22 
REMARK    9  A    between atoms: C12_22  and  C13_23 
REMARK   10  A    between atoms: C13_23  and  O4_24 
REMARK   11  A    between atoms: N5_26  and  O5_28 
REMARK   12  A    between atoms: C14_30  and  N6_31 
REMARK   13  A    between atoms: C14_30  and  C16_35 
REMARK   14  A    between atoms: C16_35  and  O6_36 
REMARK   15  A    between atoms: C16_35  and  O7_38 
ROOT
HETATM    1  N6  UNL     1      18.568  34.054   8.982  1.00  0.00    -0.312 N 
ATOM      2  H6  UNL     1      17.787  33.693   8.433  1.00  0.00     0.172 HD
HETATM    3  C15 UNL     1      18.464  34.036  10.377  1.00  0.00     0.178 C 
HETATM    4  N7  UNL     1      18.366  34.004  11.533  1.00  0.00    -0.172 NA
ENDROOT
BRANCH   1   5
HETATM    5  C14 UNL     1      19.717  34.554   8.289  1.00  0.00     0.215 C 
BRANCH   5   6
HETATM    6  C11 UNL     1      19.639  35.939   7.830  1.00  0.00     0.121 C 
HETATM    7  N3  UNL     1      20.146  36.886   8.538  1.00  0.00    -0.286 N 
ATOM      8  H3  UNL     1      20.056  37.824   8.146  1.00  0.00     0.188 HD
BRANCH   7   9
HETATM    9  N2  UNL     1      20.787  36.814   9.741  1.00  0.00    -0.286 N 
HETATM   10  C9  UNL     1      20.201  37.060  10.889  1.00  0.00     0.123 C 
HETATM   11  C10 UNL     1      18.753  37.451  10.774  1.00  0.00     0.093 C 
ATOM     12  H2  UNL     1      21.773  36.555   9.749  1.00  0.00     0.188 HD
BRANCH  10  13
HETATM   13  N1  UNL     1      20.863  36.986  12.118  1.00  0.00    -0.175 N 
HETATM   14  C2  UNL     1      20.134  36.794  13.316  1.00  0.00     0.245 C 
HETATM   15  C1  UNL     1      18.687  36.623  13.445  1.00  0.00     0.120 C 
HETATM   16  O1  UNL     1      20.818  36.768  14.403  1.00  0.00    -0.271 OA
BRANCH  13  17
HETATM   17  O2  UNL     1      22.186  37.094  12.269  1.00  0.00    -0.259 OA
BRANCH  17  18
HETATM   18  C3  UNL     1      22.767  38.311  12.099  1.00  0.00     0.184 C 
HETATM   19  C4  UNL     1      22.229  39.324  13.135  1.00  0.00     0.047 C 
BRANCH  18  20
HETATM   20  C5  UNL     1      24.216  38.349  12.207  1.00  0.00    -0.003 A 
HETATM   21  C6  UNL     1      25.108  37.298  12.184  1.00  0.00     0.036 A 
HETATM   22  C7  UNL     1      26.373  37.802  12.298  1.00  0.00     0.142 A 
HETATM   23  O3  UNL     1      26.268  39.100  12.387  1.00  0.00    -0.334 OA
HETATM   24  C8  UNL     1      25.005  39.468  12.337  1.00  0.00     0.151 A 
ENDBRANCH  18  20
ENDBRANCH  17  18
ENDBRANCH  13  17
ENDBRANCH  10  13
ENDBRANCH   7   9
BRANCH   6  25
HETATM   25  N4  UNL     1      19.035  36.348   6.612  1.00  0.00    -0.369 N 
ATOM     26  H4  UNL     1      19.671  36.633   5.867  1.00  0.00     0.161 HD
BRANCH  25  27
HETATM   27  C12 UNL     1      17.641  36.409   6.309  1.00  0.00     0.206 C 
BRANCH  27  28
HETATM   28  C13 UNL     1      17.277  36.312   4.898  1.00  0.00     0.153 C 
HETATM   29  N5  UNL     1      18.055  35.752   4.046  1.00  0.00    -0.250 N 
ATOM     30  H5  UNL     1      18.945  35.369   4.364  1.00  0.00     0.196 HD
BRANCH  28  31
HETATM   31  O4  UNL     1      16.077  36.827   4.456  1.00  0.00    -0.347 OA
ATOM     32  H4  UNL     1      15.846  37.728   4.647  1.00  0.00     0.219 HD
ENDBRANCH  28  31
BRANCH  29  33
HETATM   33  O5  UNL     1      17.728  35.655   2.731  1.00  0.00    -0.288 OA
ATOM     34  H5  UNL     1      18.202  36.132   2.059  1.00  0.00     0.244 HD
ENDBRANCH  29  33
ENDBRANCH  27  28
ENDBRANCH  25  27
ENDBRANCH   6  25
ENDBRANCH   5   6
BRANCH   5  35
HETATM   35  C16 UNL     1      20.113  33.593   7.189  1.00  0.00     0.284 C 
BRANCH  35  36
HETATM   36  O6  UNL     1      20.993  34.224   6.318  1.00  0.00    -0.369 OA
ATOM     37  H6  UNL     1      20.606  34.266   5.451  1.00  0.00     0.212 HD
ENDBRANCH  35  36
BRANCH  35  38
HETATM   38  O7  UNL     1      20.748  32.462   7.675  1.00  0.00    -0.369 OA
ATOM     39  H7  UNL     1      21.550  32.265   7.206  1.00  0.00     0.212 HD
ENDBRANCH  35  38
ENDBRANCH   5  35
ENDBRANCH   1   5
TORSDOF 15
ENDMDL
MODEL 3
REMARK VINA RESULT: -7.105823067      2.734      8.126
REMARK  15 active torsions:
REMARK  status: ('A' for Active; 'I' for Inactive)
REMARK       I    between atoms: C2_2  and  N1_4 
REMARK    1  A    between atoms: N1_4  and  O2_5 
REMARK    2  A    between atoms: N1_4  and  C9_13 
REMARK    3  A    between atoms: O2_5  and  C3_6 
REMARK    4  A    between atoms: C3_6  and  C5_8 
REMARK    5  A    between atoms: N2_15  and  N3_17 
REMARK    6  A    between atoms: C11_19  and  N4_20 
REMARK    7  A    between atoms: C11_19  and  C14_30 
REMARK    8  A    between atoms: N4_20  and  C12_22 
REMARK    9  A    between atoms: C12_22  and  C13_23 
REMARK   10  A    between atoms: C13_23  and  O4_24 
REMARK   11  A    between atoms: N5_26  and  O5_28 
REMARK   12  A    between atoms: C14_30  and  N6_31 
REMARK   13  A    between atoms: C14_30  and  C16_35 
REMARK   14  A    between atoms: C16_35  and  O6_36 
REMARK   15  A    between atoms: C16_35  and  O7_38 
ROOT
HETATM    1  N6  UNL     1      22.459  38.542  14.520  1.00  0.00    -0.312 N 
ATOM      2  H6  UNL     1      22.794  37.836  15.176  1.00  0.00     0.172 HD
HETATM    3  C15 UNL     1      22.688  39.889  14.818  1.00  0.00     0.178 C 
HETATM    4  N7  UNL     1      22.897  41.001  15.075  1.00  0.00    -0.172 NA
ENDROOT
BRANCH   1   5
HETATM    5  C14 UNL     1      21.775  38.106  13.340  1.00  0.00     0.215 C 
BRANCH   5   6
HETATM    6  C11 UNL     1      22.595  37.960  12.139  1.00  0.00     0.121 C 
HETATM    7  N3  UNL     1      22.295  37.075  11.253  1.00  0.00    -0.286 N 
ATOM      8  H3  UNL     1      22.912  37.041  10.441  1.00  0.00     0.188 HD
BRANCH   7   9
HETATM    9  N2  UNL     1      21.269  36.175  11.247  1.00  0.00    -0.286 N 
HETATM   10  C9  UNL     1      20.284  36.207  10.381  1.00  0.00     0.123 C 
HETATM   11  C10 UNL     1      20.365  37.338   9.393  1.00  0.00     0.093 C 
ATOM     12  H2  UNL     1      21.267  35.439  11.953  1.00  0.00     0.188 HD
BRANCH  10  13
HETATM   13  N1  UNL     1      19.235  35.283  10.380  1.00  0.00    -0.175 N 
HETATM   14  C2  UNL     1      18.557  34.965  11.582  1.00  0.00     0.245 C 
HETATM   15  C1  UNL     1      18.803  35.535  12.906  1.00  0.00     0.120 C 
HETATM   16  O1  UNL     1      17.626  34.083  11.496  1.00  0.00    -0.271 OA
BRANCH  13  17
HETATM   17  O2  UNL     1      18.803  34.635   9.295  1.00  0.00    -0.259 OA
BRANCH  17  18
HETATM   18  C3  UNL     1      19.671  34.422   8.271  1.00  0.00     0.184 C 
HETATM   19  C4  UNL     1      19.966  32.914   8.108  1.00  0.00     0.047 C 
BRANCH  18  20
HETATM   20  C5  UNL     1      19.246  34.897   6.964  1.00  0.00    -0.003 A 
HETATM   21  C6  UNL     1      18.311  35.865   6.662  1.00  0.00     0.036 A 
HETATM   22  C7  UNL     1      18.250  35.997   5.303  1.00  0.00     0.142 A 
HETATM   23  O3  UNL     1      19.104  35.153   4.791  1.00  0.00    -0.334 OA
HETATM   24  C8  UNL     1      19.717  34.479   5.741  1.00  0.00     0.151 A 
ENDBRANCH  18  20
ENDBRANCH  17  18
ENDBRANCH  13  17
ENDBRANCH  10  13
ENDBRANCH   7   9
BRANCH   6  25
HETATM   25  N4  UNL     1      23.737  38.750  11.845  1.00  0.00    -0.369 N 
ATOM     26  H4  UNL     1      23.631  39.433  11.094  1.00  0.00     0.161 HD
BRANCH  25  27
HETATM   27  C12 UNL     1      25.015  38.701  12.477  1.00  0.00     0.206 C 
BRANCH  27  28
HETATM   28  C13 UNL     1      26.175  38.613  11.594  1.00  0.00     0.153 C 
HETATM   29  N5  UNL     1      26.590  37.484  11.149  1.00  0.00    -0.250 N 
ATOM     30  H5  UNL     1      26.097  36.633  11.420  1.00  0.00     0.196 HD
BRANCH  28  31
HETATM   31  O4  UNL     1      26.850  39.756  11.222  1.00  0.00    -0.347 OA
ATOM     32  H4  UNL     1      27.608  39.698  10.651  1.00  0.00     0.219 HD
ENDBRANCH  28  31
BRANCH  29  33
HETATM   33  O5  UNL     1      27.667  37.389  10.327  1.00  0.00    -0.288 OA
ATOM     34  H5  UNL     1      27.576  37.343   9.382  1.00  0.00     0.244 HD
ENDBRANCH  29  33
ENDBRANCH  27  28
ENDBRANCH  25  27
ENDBRANCH   6  25
ENDBRANCH   5   6
BRANCH   5  35
HETATM   35  C16 UNL     1      20.547  38.960  13.111  1.00  0.00     0.284 C 
BRANCH  35  36
HETATM   36  O6  UNL     1      20.732  39.744  11.978  1.00  0.00    -0.369 OA
ATOM     37  H6  UNL     1      19.891  40.062  11.672  1.00  0.00     0.212 HD
ENDBRANCH  35  36
BRANCH  35  38
HETATM   38  O7  UNL     1      19.404  38.204  12.912  1.00  0.00    -0.369 OA
ATOM     39  H7  UNL     1      18.623  38.630  13.243  1.00  0.00     0.212 HD
ENDBRANCH  35  38
ENDBRANCH   5  35
ENDBRANCH   1   5
TORSDOF 15
ENDMDL
MODEL 4
REMARK VINA RESULT: -7.043082475      2.729      8.174
REMARK  15 active torsions:
REMARK  status: ('A' for Active; 'I' for Inactive)
REMARK       I    between atoms: C2_2  and  N1_4 
REMARK    1  A    between atoms: N1_4  and  O2_5 
REMARK    2  A    between atoms: N1_4  and  C9_13 
REMARK    3  A    between atoms: O2_5  and  C3_6 
REMARK    4  A    between atoms: C3_6  and  C5_8 
REMARK    5  A    between atoms: N2_15  and  N3_17 
REMARK    6  A    between atoms: C11_19  and  N4_20 
REMARK    7  A    between atoms: C11_19  and  C14_30 
REMARK    8  A    between atoms: N4_20  and  C12_22 
REMARK    9  A    between atoms: C12_22  and  C13_23 
REMARK   10  A    between atoms: C13_23  and  O4_24 
REMARK   11  A    between atoms: N5_26  and  O5_28 
REMARK   12  A    between atoms: C14_30  and  N6_31 
REMARK   13  A    between atoms: C14_30  and  C16_35 
REMARK   14  A    between atoms: C16_35  and  O6_36 
REMARK   15  A    between atoms: C16_35  and  O7_38 
ROOT
HETATM    1  N6  UNL     1      22.717  38.548  14.358  1.00  0.00    -0.312 N 
ATOM      2  H6  UNL     1      23.257  37.835  14.847  1.00  0.00     0.172 HD
HETATM    3  C15 UNL     1      22.804  39.871  14.804  1.00  0.00     0.178 C 
HETATM    4  N7  UNL     1      22.896  40.965  15.179  1.00  0.00    -0.172 NA
ENDROOT
BRANCH   1   5
HETATM    5  C14 UNL     1      21.905  38.148  13.248  1.00  0.00     0.215 C 
BRANCH   5   6
HETATM    6  C11 UNL     1      22.567  38.115  11.945  1.00  0.00     0.121 C 
HETATM    7  N3  UNL     1      22.189  37.274  11.047  1.00  0.00    -0.286 N 
ATOM      8  H3  UNL     1      22.696  37.319  10.163  1.00  0.00     0.188 HD
BRANCH   7   9
HETATM    9  N2  UNL     1      21.205  36.330  11.110  1.00  0.00    -0.286 N 
HETATM   10  C9  UNL     1      20.234  36.239  10.233  1.00  0.00     0.123 C 
HETATM   11  C10 UNL     1      20.279  37.279   9.147  1.00  0.00     0.093 C 
ATOM     12  H2  UNL     1      21.225  35.662  11.879  1.00  0.00     0.188 HD
BRANCH  10  13
HETATM   13  N1  UNL     1      19.228  35.270  10.303  1.00  0.00    -0.175 N 
HETATM   14  C2  UNL     1      18.578  34.997  11.530  1.00  0.00     0.245 C 
HETATM   15  C1  UNL     1      18.812  35.658  12.813  1.00  0.00     0.120 C 
HETATM   16  O1  UNL     1      17.687  34.071  11.511  1.00  0.00    -0.271 OA
BRANCH  13  17
HETATM   17  O2  UNL     1      18.814  34.538   9.265  1.00  0.00    -0.259 OA
BRANCH  17  18
HETATM   18  C3  UNL     1      19.637  34.398   8.192  1.00  0.00     0.184 C 
HETATM   19  C4  UNL     1      19.980  32.910   7.956  1.00  0.00     0.047 C 
BRANCH  18  20
HETATM   20  C5  UNL     1      19.131  34.905   6.927  1.00  0.00    -0.003 A 
HETATM   21  C6  UNL     1      19.536  34.585   5.648  1.00  0.00     0.036 A 
HETATM   22  C7  UNL     1      18.768  35.289   4.764  1.00  0.00     0.142 A 
HETATM   23  O3  UNL     1      17.931  36.007   5.461  1.00  0.00    -0.334 OA
HETATM   24  C8  UNL     1      18.111  35.810   6.750  1.00  0.00     0.151 A 
ENDBRANCH  18  20
ENDBRANCH  17  18
ENDBRANCH  13  17
ENDBRANCH  10  13
ENDBRANCH   7   9
BRANCH   6  25
HETATM   25  N4  UNL     1      23.631  38.974  11.563  1.00  0.00    -0.369 N 
ATOM     26  H4  UNL     1      23.492  39.511  10.708  1.00  0.00     0.161 HD
BRANCH  25  27
HETATM   27  C12 UNL     1      24.874  39.172  12.237  1.00  0.00     0.206 C 
BRANCH  27  28
HETATM   28  C13 UNL     1      25.671  37.977  12.498  1.00  0.00     0.153 C 
HETATM   29  N5  UNL     1      26.190  37.299  11.540  1.00  0.00    -0.250 N 
ATOM     30  H5  UNL     1      26.040  37.605  10.579  1.00  0.00     0.196 HD
BRANCH  28  31
HETATM   31  O4  UNL     1      25.880  37.554  13.793  1.00  0.00    -0.347 OA
ATOM     32  H4  UNL     1      26.329  38.118  14.413  1.00  0.00     0.219 HD
ENDBRANCH  28  31
BRANCH  29  33
HETATM   33  O5  UNL     1      26.934  36.187  11.770  1.00  0.00    -0.288 OA
ATOM     34  H5  UNL     1      26.535  35.355  12.001  1.00  0.00     0.244 HD
ENDBRANCH  29  33
ENDBRANCH  27  28
ENDBRANCH  25  27
ENDBRANCH   6  25
ENDBRANCH   5   6
BRANCH   5  35
HETATM   35  C16 UNL     1      20.621  38.949  13.233  1.00  0.00     0.284 C 
BRANCH  35  36
HETATM   36  O6  UNL     1      20.688  39.911  12.231  1.00  0.00    -0.369 OA
ATOM     37  H6  UNL     1      20.393  39.534  11.410  1.00  0.00     0.212 HD
ENDBRANCH  35  36
BRANCH  35  38
HETATM   38  O7  UNL     1      19.509  38.164  12.982  1.00  0.00    -0.369 OA
ATOM     39  H7  UNL     1      19.341  38.055  12.053  1.00  0.00     0.212 HD
ENDBRANCH  35  38
ENDBRANCH   5  35
ENDBRANCH   1   5
TORSDOF 15
ENDMDL
MODEL 5
REMARK VINA RESULT: -6.899614311      2.975      8.260
REMARK  15 active torsions:
REMARK  status: ('A' for Active; 'I' for Inactive)
REMARK       I    between atoms: C2_2  and  N1_4 
REMARK    1  A    between atoms: N1_4  and  O2_5 
REMARK    2  A    between atoms: N1_4  and  C9_13 
REMARK    3  A    between atoms: O2_5  and  C3_6 
REMARK    4  A    between atoms: C3_6  and  C5_8 
REMARK    5  A    between atoms: N2_15  and  N3_17 
REMARK    6  A    between atoms: C11_19  and  N4_20 
REMARK    7  A    between atoms: C11_19  and  C14_30 
REMARK    8  A    between atoms: N4_20  and  C12_22 
REMARK    9  A    between atoms: C12_22  and  C13_23 
REMARK   10  A    between atoms: C13_23  and  O4_24 
REMARK   11  A    between atoms: N5_26  and  O5_28 
REMARK   12  A    between atoms: C14_30  and  N6_31 
REMARK   13  A    between atoms: C14_30  and  C16_35 
REMARK   14  A    between atoms: C16_35  and  O6_36 
REMARK   15  A    between atoms: C16_35  and  O7_38 
ROOT
HETATM    1  N6  UNL     1      23.960  38.165  14.543  1.00  0.00    -0.312 N 
ATOM      2  H6  UNL     1      23.750  37.992  15.526  1.00  0.00     0.172 HD
HETATM    3  C15 UNL     1      25.186  37.724  14.036  1.00  0.00     0.178 C 
HETATM    4  N7  UNL     1      26.203  37.341  13.628  1.00  0.00    -0.172 NA
ENDROOT
BRANCH   1   5
HETATM    5  C14 UNL     1      22.984  38.849  13.749  1.00  0.00     0.215 C 
BRANCH   5   6
HETATM    6  C11 UNL     1      23.410  39.246  12.408  1.00  0.00     0.121 C 
HETATM    7  N3  UNL     1      22.611  39.110  11.408  1.00  0.00    -0.286 N 
ATOM      8  H3  UNL     1      22.980  39.416  10.507  1.00  0.00     0.188 HD
BRANCH   7   9
HETATM    9  N2  UNL     1      21.340  38.613  11.381  1.00  0.00    -0.286 N 
HETATM   10  C9  UNL     1      21.064  37.331  11.399  1.00  0.00     0.123 C 
HETATM   11  C10 UNL     1      22.273  36.438  11.433  1.00  0.00     0.093 C 
ATOM     12  H2  UNL     1      20.563  39.274  11.346  1.00  0.00     0.188 HD
BRANCH  10  13
HETATM   13  N1  UNL     1      19.760  36.828  11.371  1.00  0.00    -0.175 N 
HETATM   14  C2  UNL     1      19.046  36.614  12.575  1.00  0.00     0.245 C 
HETATM   15  C1  UNL     1      19.512  36.896  13.932  1.00  0.00     0.120 C 
HETATM   16  O1  UNL     1      17.865  36.121  12.459  1.00  0.00    -0.271 OA
BRANCH  13  17
HETATM   17  O2  UNL     1      19.099  36.507  10.254  1.00  0.00    -0.259 OA
BRANCH  17  18
HETATM   18  C3  UNL     1      19.582  35.504   9.474  1.00  0.00     0.184 C 
HETATM   19  C4  UNL     1      19.019  34.139   9.927  1.00  0.00     0.047 C 
BRANCH  18  20
HETATM   20  C5  UNL     1      19.300  35.609   8.052  1.00  0.00    -0.003 A 
HETATM   21  C6  UNL     1      18.130  35.995   7.432  1.00  0.00     0.036 A 
HETATM   22  C7  UNL     1      18.326  35.965   6.080  1.00  0.00     0.142 A 
HETATM   23  O3  UNL     1      19.556  35.579   5.875  1.00  0.00    -0.334 OA
HETATM   24  C8  UNL     1      20.171  35.357   7.017  1.00  0.00     0.151 A 
ENDBRANCH  18  20
ENDBRANCH  17  18
ENDBRANCH  13  17
ENDBRANCH  10  13
ENDBRANCH   7   9
BRANCH   6  25
HETATM   25  N4  UNL     1      24.679  39.802  12.100  1.00  0.00    -0.369 N 
ATOM     26  H4  UNL     1      25.055  40.468  12.775  1.00  0.00     0.161 HD
BRANCH  25  27
HETATM   27  C12 UNL     1      25.490  39.538  10.956  1.00  0.00     0.206 C 
BRANCH  27  28
HETATM   28  C13 UNL     1      26.800  38.944  11.209  1.00  0.00     0.153 C 
HETATM   29  N5  UNL     1      27.111  37.791  10.741  1.00  0.00    -0.250 N 
ATOM     30  H5  UNL     1      26.426  37.283  10.181  1.00  0.00     0.196 HD
BRANCH  28  31
HETATM   31  O4  UNL     1      27.733  39.621  11.965  1.00  0.00    -0.347 OA
ATOM     32  H4  UNL     1      28.653  39.393  11.904  1.00  0.00     0.219 HD
ENDBRANCH  28  31
BRANCH  29  33
HETATM   33  O5  UNL     1      28.325  37.228  10.969  1.00  0.00    -0.288 OA
ATOM     34  H5  UNL     1      28.788  36.742  10.296  1.00  0.00     0.244 HD
ENDBRANCH  29  33
ENDBRANCH  27  28
ENDBRANCH  25  27
ENDBRANCH   6  25
ENDBRANCH   5   6
BRANCH   5  35
HETATM   35  C16 UNL     1      22.389  39.996  14.538  1.00  0.00     0.284 C 
BRANCH  35  36
HETATM   36  O6  UNL     1      23.410  40.729  15.131  1.00  0.00    -0.369 OA
ATOM     37  H6  UNL     1      23.196  40.890  16.043  1.00  0.00     0.212 HD
ENDBRANCH  35  36
BRANCH  35  38
HETATM   38  O7  UNL     1      21.660  40.865  13.744  1.00  0.00    -0.369 OA
ATOM     39  H7  UNL     1      20.722  40.754  13.848  1.00  0.00     0.212 HD
ENDBRANCH  35  38
ENDBRANCH   5  35
ENDBRANCH   1   5
TORSDOF 15
ENDMDL
