MODEL 1
REMARK VINA RESULT: -5.767628478      0.000      0.000
REMARK  5 active torsions:
REMARK  status: ('A' for Active; 'I' for Inactive)
REMARK    1  A    between atoms: N1_1  and  C1_5 
REMARK    2  A    between atoms: C1_5  and  C2_6 
REMARK    3  A    between atoms: C2_6  and  N2_7 
REMARK    4  A    between atoms: N2_7  and  C3_9 
REMARK    5  A    between atoms: C6_12  and  C7_13 
ROOT
HETATM    1  C3  UNL     1      13.620   0.210  21.192  1.00  0.00     0.100 A 
HETATM    2  C4  UNL     1      14.710   1.018  21.030  1.00  0.00     0.049 A 
HETATM    3  C5  UNL     1      15.437   1.432  22.122  1.00  0.00     0.017 A 
HETATM    4  C6  UNL     1      15.077   1.037  23.392  1.00  0.00    -0.010 A 
HETATM    5  C12 UNL     1      13.979   0.230  23.502  1.00  0.00     0.102 A 
HETATM    6  N4  UNL     1      13.259  -0.183  22.449  1.00  0.00    -0.352 N 
ATOM      7  H4  UNL     1      12.448  -0.785  22.585  1.00  0.00     0.166 HD
ENDROOT
BRANCH   1   8
HETATM    8  N2  UNL     1      12.945  -0.171  20.161  1.00  0.00    -0.375 N 
ATOM      9  H2  UNL     1      13.089   0.266  19.251  1.00  0.00     0.161 HD
BRANCH   8  10
HETATM   10  C2  UNL     1      11.981  -1.234  20.328  1.00  0.00     0.148 C 
BRANCH  10  11
HETATM   11  C1  UNL     1      11.462  -1.561  18.923  1.00  0.00     0.249 C 
BRANCH  11  12
HETATM   12  N1  UNL     1      12.081  -0.602  18.025  1.00  0.00    -0.078 N 
ATOM     13  H13 UNL     1      11.531   0.248  17.899  1.00  0.00     0.274 HD
ATOM     14  H12 UNL     1      12.911  -0.158  18.418  1.00  0.00     0.274 HD
ATOM     15  H11 UNL     1      12.262  -1.101  17.154  1.00  0.00     0.274 HD
ENDBRANCH  11  12
ENDBRANCH  10  11
ENDBRANCH   8  10
ENDBRANCH   1   8
BRANCH   4  16
HETATM   16  C7  UNL     1      15.845   1.472  24.577  1.00  0.00    -0.022 A 
HETATM   17  C8  UNL     1      15.836   2.790  24.984  1.00  0.00     0.029 A 
HETATM   18  C9  UNL     1      16.557   3.181  26.092  1.00  0.00     0.088 A 
HETATM   19  N3  UNL     1      17.272   2.270  26.772  1.00  0.00    -0.375 N 
HETATM   20  C10 UNL     1      17.327   0.974  26.433  1.00  0.00     0.088 A 
ATOM     21  H3  UNL     1      17.799   2.580  27.587  1.00  0.00     0.164 HD
HETATM   22  C11 UNL     1      16.597   0.582  25.316  1.00  0.00     0.029 A 
ENDBRANCH   4  16
TORSDOF 5
ENDMDL
MODEL 2
REMARK VINA RESULT: -5.594094609      1.491      2.301
REMARK  5 active torsions:
REMARK  status: ('A' for Active; 'I' for Inactive)
REMARK    1  A    between atoms: N1_1  and  C1_5 
REMARK    2  A    between atoms: C1_5  and  C2_6 
REMARK    3  A    between atoms: C2_6  and  N2_7 
REMARK    4  A    between atoms: N2_7  and  C3_9 
REMARK    5  A    between atoms: C6_12  and  C7_13 
ROOT
HETATM    1  C3  UNL     1      13.559  -1.190  21.457  1.00  0.00     0.100 A 
HETATM    2  C4  UNL     1      13.453  -1.047  22.812  1.00  0.00     0.049 A 
HETATM    3  C5  UNL     1      14.028   0.032  23.444  1.00  0.00     0.017 A 
HETATM    4  C6  UNL     1      14.715   0.981  22.720  1.00  0.00    -0.010 A 
HETATM    5  C12 UNL     1      14.793   0.793  21.368  1.00  0.00     0.102 A 
HETATM    6  N4  UNL     1      14.239  -0.251  20.736  1.00  0.00    -0.352 N 
ATOM      7  H4  UNL     1      14.326  -0.345  19.725  1.00  0.00     0.166 HD
ENDROOT
BRANCH   1   8
HETATM    8  N2  UNL     1      13.017  -2.205  20.874  1.00  0.00    -0.375 N 
ATOM      9  H2  UNL     1      13.571  -3.029  20.637  1.00  0.00     0.161 HD
BRANCH   8  10
HETATM   10  C2  UNL     1      11.607  -2.148  20.567  1.00  0.00     0.148 C 
BRANCH  10  11
HETATM   11  C1  UNL     1      11.488  -2.429  19.065  1.00  0.00     0.249 C 
BRANCH  11  12
HETATM   12  N1  UNL     1      11.505  -1.136  18.405  1.00  0.00    -0.078 N 
ATOM     13  H13 UNL     1      10.605  -0.656  18.429  1.00  0.00     0.274 HD
ATOM     14  H12 UNL     1      12.038  -0.429  18.912  1.00  0.00     0.274 HD
ATOM     15  H11 UNL     1      11.849  -1.301  17.459  1.00  0.00     0.274 HD
ENDBRANCH  11  12
ENDBRANCH  10  11
ENDBRANCH   8  10
ENDBRANCH   1   8
BRANCH   4  16
HETATM   16  C7  UNL     1      15.338   2.146  23.382  1.00  0.00    -0.022 A 
HETATM   17  C8  UNL     1      15.621   2.127  24.732  1.00  0.00     0.029 A 
HETATM   18  C9  UNL     1      16.203   3.221  25.336  1.00  0.00     0.088 A 
HETATM   19  N3  UNL     1      16.493   4.307  24.601  1.00  0.00    -0.375 N 
HETATM   20  C10 UNL     1      16.247   4.394  23.286  1.00  0.00     0.088 A 
ATOM     21  H3  UNL     1      16.923   5.106  25.067  1.00  0.00     0.164 HD
HETATM   22  C11 UNL     1      15.661   3.288  22.679  1.00  0.00     0.029 A 
ENDBRANCH   4  16
TORSDOF 5
ENDMDL
MODEL 3
REMARK VINA RESULT: -5.564889015      1.414      2.044
REMARK  5 active torsions:
REMARK  status: ('A' for Active; 'I' for Inactive)
REMARK    1  A    between atoms: N1_1  and  C1_5 
REMARK    2  A    between atoms: C1_5  and  C2_6 
REMARK    3  A    between atoms: C2_6  and  N2_7 
REMARK    4  A    between atoms: N2_7  and  C3_9 
REMARK    5  A    between atoms: C6_12  and  C7_13 
ROOT
HETATM    1  C3  UNL     1      13.475  -1.031  21.397  1.00  0.00     0.100 A 
HETATM    2  C4  UNL     1      13.388  -0.937  22.757  1.00  0.00     0.049 A 
HETATM    3  C5  UNL     1      13.989   0.107  23.421  1.00  0.00     0.017 A 
HETATM    4  C6  UNL     1      14.686   1.071  22.725  1.00  0.00    -0.010 A 
HETATM    5  C12 UNL     1      14.744   0.932  21.366  1.00  0.00     0.102 A 
HETATM    6  N4  UNL     1      14.164  -0.078  20.703  1.00  0.00    -0.352 N 
ATOM      7  H4  UNL     1      14.238  -0.135  19.687  1.00  0.00     0.166 HD
ENDROOT
BRANCH   1   8
HETATM    8  N2  UNL     1      12.908  -2.013  20.783  1.00  0.00    -0.375 N 
ATOM      9  H2  UNL     1      13.428  -2.864  20.567  1.00  0.00     0.161 HD
BRANCH   8  10
HETATM   10  C2  UNL     1      11.519  -1.880  20.411  1.00  0.00     0.148 C 
BRANCH  10  11
HETATM   11  C1  UNL     1      11.452  -2.166  18.907  1.00  0.00     0.249 C 
BRANCH  11  12
HETATM   12  N1  UNL     1      11.791  -0.921  18.239  1.00  0.00    -0.078 N 
ATOM     13  H13 UNL     1      11.021  -0.253  18.214  1.00  0.00     0.274 HD
ATOM     14  H12 UNL     1      12.442  -0.342  18.769  1.00  0.00     0.274 HD
ATOM     15  H11 UNL     1      12.135  -1.177  17.314  1.00  0.00     0.274 HD
ENDBRANCH  11  12
ENDBRANCH  10  11
ENDBRANCH   8  10
ENDBRANCH   1   8
BRANCH   4  16
HETATM   16  C7  UNL     1      15.338   2.198  23.422  1.00  0.00    -0.022 A 
HETATM   17  C8  UNL     1      15.714   3.335  22.735  1.00  0.00     0.029 A 
HETATM   18  C9  UNL     1      16.321   4.379  23.398  1.00  0.00     0.088 A 
HETATM   19  N3  UNL     1      16.546   4.284  24.719  1.00  0.00    -0.375 N 
HETATM   20  C10 UNL     1      16.208   3.211  25.448  1.00  0.00     0.088 A 
ATOM     21  H3  UNL     1      16.997   5.067  25.191  1.00  0.00     0.164 HD
HETATM   22  C11 UNL     1      15.594   2.159  24.776  1.00  0.00     0.029 A 
ENDBRANCH   4  16
TORSDOF 5
ENDMDL
MODEL 4
REMARK VINA RESULT: -5.533239898      2.889      3.427
REMARK  5 active torsions:
REMARK  status: ('A' for Active; 'I' for Inactive)
REMARK    1  A    between atoms: N1_1  and  C1_5 
REMARK    2  A    between atoms: C1_5  and  C2_6 
REMARK    3  A    between atoms: C2_6  and  N2_7 
REMARK    4  A    between atoms: N2_7  and  C3_9 
REMARK    5  A    between atoms: C6_12  and  C7_13 
ROOT
HETATM    1  C3  UNL     1      14.350  -1.988  22.079  1.00  0.00     0.100 A 
HETATM    2  C4  UNL     1      14.431  -1.759  23.424  1.00  0.00     0.049 A 
HETATM    3  C5  UNL     1      14.824  -0.528  23.896  1.00  0.00     0.017 A 
HETATM    4  C6  UNL     1      15.139   0.489  23.021  1.00  0.00    -0.010 A 
HETATM    5  C12 UNL     1      15.042   0.209  21.686  1.00  0.00     0.102 A 
HETATM    6  N4  UNL     1      14.661  -0.984  21.208  1.00  0.00    -0.352 N 
ATOM      7  H4  UNL     1      14.606  -1.140  20.202  1.00  0.00     0.166 HD
ENDROOT
BRANCH   1   8
HETATM    8  N2  UNL     1      13.981  -3.146  21.646  1.00  0.00    -0.375 N 
ATOM      9  H2  UNL     1      13.397  -3.232  20.814  1.00  0.00     0.161 HD
BRANCH   8  10
HETATM   10  C2  UNL     1      14.415  -4.319  22.369  1.00  0.00     0.148 C 
BRANCH  10  11
HETATM   11  C1  UNL     1      14.168  -5.509  21.436  1.00  0.00     0.249 C 
BRANCH  11  12
HETATM   12  N1  UNL     1      15.440  -6.195  21.301  1.00  0.00    -0.078 N 
ATOM     13  H13 UNL     1      15.961  -5.921  20.467  1.00  0.00     0.274 HD
ATOM     14  H12 UNL     1      16.135  -5.897  21.986  1.00  0.00     0.274 HD
ATOM     15  H11 UNL     1      15.234  -7.193  21.339  1.00  0.00     0.274 HD
ENDBRANCH  11  12
ENDBRANCH  10  11
ENDBRANCH   8  10
ENDBRANCH   1   8
BRANCH   4  16
HETATM   16  C7  UNL     1      15.563   1.817  23.510  1.00  0.00    -0.022 A 
HETATM   17  C8  UNL     1      15.654   2.893  22.651  1.00  0.00     0.029 A 
HETATM   18  C9  UNL     1      16.050   4.127  23.122  1.00  0.00     0.088 A 
HETATM   19  N3  UNL     1      16.348   4.274  24.423  1.00  0.00    -0.375 N 
HETATM   20  C10 UNL     1      16.282   3.273  25.312  1.00  0.00     0.088 A 
ATOM     21  H3  UNL     1      16.640   5.194  24.751  1.00  0.00     0.164 HD
HETATM   22  C11 UNL     1      15.880   2.030  24.835  1.00  0.00     0.029 A 
ENDBRANCH   4  16
TORSDOF 5
ENDMDL
MODEL 5
REMARK VINA RESULT: -5.483492217      2.433      7.926
REMARK  5 active torsions:
REMARK  status: ('A' for Active; 'I' for Inactive)
REMARK    1  A    between atoms: N1_1  and  C1_5 
REMARK    2  A    between atoms: C1_5  and  C2_6 
REMARK    3  A    between atoms: C2_6  and  N2_7 
REMARK    4  A    between atoms: N2_7  and  C3_9 
REMARK    5  A    between atoms: C6_12  and  C7_13 
ROOT
HETATM    1  C3  UNL     1      14.052  -0.718  21.053  1.00  0.00     0.100 A 
HETATM    2  C4  UNL     1      13.822  -2.014  21.422  1.00  0.00     0.049 A 
HETATM    3  C5  UNL     1      12.801  -2.731  20.841  1.00  0.00     0.017 A 
HETATM    4  C6  UNL     1      11.998  -2.154  19.882  1.00  0.00    -0.010 A 
HETATM    5  C12 UNL     1      12.269  -0.855  19.548  1.00  0.00     0.102 A 
HETATM    6  N4  UNL     1      13.259  -0.142  20.103  1.00  0.00    -0.352 N 
ATOM      7  H4  UNL     1      13.418   0.823  19.818  1.00  0.00     0.166 HD
ENDROOT
BRANCH   1   8
HETATM    8  N2  UNL     1      15.011  -0.055  21.603  1.00  0.00    -0.375 N 
ATOM      9  H2  UNL     1      15.750  -0.534  22.119  1.00  0.00     0.161 HD
BRANCH   8  10
HETATM   10  C2  UNL     1      15.015   1.384  21.471  1.00  0.00     0.148 C 
BRANCH  10  11
HETATM   11  C1  UNL     1      15.781   1.920  22.686  1.00  0.00     0.249 C 
BRANCH  11  12
HETATM   12  N1  UNL     1      15.402   3.315  22.824  1.00  0.00    -0.078 N 
ATOM     13  H13 UNL     1      14.926   3.689  22.003  1.00  0.00     0.274 HD
ATOM     14  H12 UNL     1      14.643   3.464  23.489  1.00  0.00     0.274 HD
ATOM     15  H11 UNL     1      16.255   3.821  23.063  1.00  0.00     0.274 HD
ENDBRANCH  11  12
ENDBRANCH  10  11
ENDBRANCH   8  10
ENDBRANCH   1   8
BRANCH   4  16
HETATM   16  C7  UNL     1      10.898  -2.908  19.249  1.00  0.00    -0.022 A 
HETATM   17  C8  UNL     1      11.024  -4.256  18.980  1.00  0.00     0.029 A 
HETATM   18  C9  UNL     1       9.988  -4.947  18.389  1.00  0.00     0.088 A 
HETATM   19  N3  UNL     1       8.855  -4.300  18.075  1.00  0.00    -0.375 N 
HETATM   20  C10 UNL     1       8.663  -2.993  18.306  1.00  0.00     0.088 A 
ATOM     21  H3  UNL     1       8.101  -4.829  17.638  1.00  0.00     0.164 HD
HETATM   22  C11 UNL     1       9.710  -2.298  18.904  1.00  0.00     0.029 A 
ENDBRANCH   4  16
TORSDOF 5
ENDMDL
