MODEL 1
REMARK VINA RESULT: -7.788582105      0.000      0.000
REMARK  6 active torsions:
REMARK  status: ('A' for Active; 'I' for Inactive)
REMARK    1  A    between atoms: C2_3  and  N7_17 
REMARK    2  A    between atoms: N2_4  and  N3_6 
REMARK    3  A    between atoms: N3_6  and  C3_8 
REMARK    4  A    between atoms: N7_17  and  N8_19 
REMARK    5  A    between atoms: C5_21  and  C6_22 
REMARK    6  A    between atoms: C7_23  and  O2_24 
ROOT
HETATM    1  N1  UNL     1      35.117   3.041  26.146  1.00  0.00    -0.188 NA
HETATM    2  C1  UNL     1      35.537   2.892  25.081  1.00  0.00     0.139 C 
HETATM    3  C2  UNL     1      36.050   2.726  23.718  1.00  0.00     0.218 C 
HETATM    4  N2  UNL     1      36.910   1.920  23.369  1.00  0.00    -0.261 N 
ATOM      5  H2  UNL     1      37.111   1.971  22.370  1.00  0.00     0.190 HD
ENDROOT
BRANCH   3   6
HETATM    6  N7  UNL     1      35.479   3.588  22.714  1.00  0.00    -0.276 N 
ATOM      7  H7  UNL     1      35.562   3.369  21.721  1.00  0.00     0.189 HD
BRANCH   6   8
HETATM    8  N8  UNL     1      34.813   4.723  23.146  1.00  0.00    -0.309 N 
HETATM    9  C5  UNL     1      35.317   5.906  23.017  1.00  0.00     0.128 C 
ATOM     10  H8  UNL     1      33.895   4.623  23.580  1.00  0.00     0.186 HD
BRANCH   9  11
HETATM   11  C6  UNL     1      34.577   7.062  23.485  1.00  0.00     0.100 A 
HETATM   12  C7  UNL     1      34.040   7.150  24.746  1.00  0.00     0.161 A 
HETATM   13  N9  UNL     1      33.358   8.222  25.145  1.00  0.00    -0.288 N 
HETATM   14  C8  UNL     1      33.191   9.254  24.285  1.00  0.00     0.329 A 
ATOM     15  H9  UNL     1      32.968   8.266  26.086  1.00  0.00     0.172 HD
HETATM   16  O3  UNL     1      32.553  10.254  24.662  1.00  0.00    -0.247 OA
HETATM   17  N10 UNL     1      33.685   9.244  23.043  1.00  0.00    -0.275 N 
HETATM   18  C9  UNL     1      34.369   8.161  22.648  1.00  0.00     0.265 A 
ATOM     19  H10 UNL     1      33.545  10.036  22.415  1.00  0.00     0.173 HD
HETATM   20  O4  UNL     1      34.846   8.122  21.484  1.00  0.00    -0.267 OA
BRANCH  12  21
HETATM   21  O2  UNL     1      34.259   6.038  25.575  1.00  0.00    -0.345 OA
ATOM     22  H2  UNL     1      35.150   5.927  25.885  1.00  0.00     0.219 HD
ENDBRANCH  12  21
ENDBRANCH   9  11
ENDBRANCH   6   8
ENDBRANCH   3   6
BRANCH   4  23
HETATM   23  N3  UNL     1      37.644   0.994  23.992  1.00  0.00    -0.128 N 
ATOM     24  H3  UNL     1      38.408   1.286  24.602  1.00  0.00     0.205 HD
BRANCH  23  25
HETATM   25  C3  UNL     1      37.375  -0.412  23.818  1.00  0.00     0.715 A 
HETATM   26  N4  UNL     1      38.274  -1.404  23.892  1.00  0.00    -0.127 N 
HETATM   27  N5  UNL     1      37.662  -2.551  23.653  1.00  0.00    -0.237 N 
ATOM     28  H4  UNL     1      39.265  -1.292  24.098  1.00  0.00     0.206 HD
HETATM   29  C4  UNL     1      36.350  -2.304  23.421  1.00  0.00     0.353 A 
ATOM     30  H5  UNL     1      38.104  -3.469  23.645  1.00  0.00     0.192 HD
HETATM   31  O1  UNL     1      35.455  -3.179  23.154  1.00  0.00    -0.245 OA
HETATM   32  N6  UNL     1      36.197  -0.980  23.527  1.00  0.00    -0.137 N 
ATOM     33  H6  UNL     1      35.316  -0.480  23.406  1.00  0.00     0.189 HD
ENDBRANCH  23  25
ENDBRANCH   4  23
TORSDOF 6
ENDMDL
MODEL 2
REMARK VINA RESULT: -7.499853496      0.264      1.700
REMARK  6 active torsions:
REMARK  status: ('A' for Active; 'I' for Inactive)
REMARK    1  A    between atoms: C2_3  and  N7_17 
REMARK    2  A    between atoms: N2_4  and  N3_6 
REMARK    3  A    between atoms: N3_6  and  C3_8 
REMARK    4  A    between atoms: N7_17  and  N8_19 
REMARK    5  A    between atoms: C5_21  and  C6_22 
REMARK    6  A    between atoms: C7_23  and  O2_24 
ROOT
HETATM    1  N1  UNL     1      34.701   2.464  25.820  1.00  0.00    -0.188 NA
HETATM    2  C1  UNL     1      35.317   2.521  24.846  1.00  0.00     0.139 C 
HETATM    3  C2  UNL     1      36.081   2.615  23.598  1.00  0.00     0.218 C 
HETATM    4  N2  UNL     1      37.071   1.945  23.310  1.00  0.00    -0.261 N 
ATOM      5  H2  UNL     1      37.441   2.171  22.386  1.00  0.00     0.190 HD
ENDROOT
BRANCH   3   6
HETATM    6  N7  UNL     1      35.610   3.579  22.636  1.00  0.00    -0.276 N 
ATOM      7  H7  UNL     1      35.783   3.457  21.638  1.00  0.00     0.189 HD
BRANCH   6   8
HETATM    8  N8  UNL     1      34.915   4.678  23.115  1.00  0.00    -0.309 N 
HETATM    9  C5  UNL     1      35.327   5.888  22.926  1.00  0.00     0.128 C 
ATOM     10  H8  UNL     1      34.049   4.527  23.634  1.00  0.00     0.186 HD
BRANCH   9  11
HETATM   11  C6  UNL     1      34.561   7.002  23.449  1.00  0.00     0.100 A 
HETATM   12  C7  UNL     1      34.343   8.160  22.744  1.00  0.00     0.161 A 
HETATM   13  N9  UNL     1      33.640   9.170  23.254  1.00  0.00    -0.288 N 
HETATM   14  C8  UNL     1      33.127   9.052  24.501  1.00  0.00     0.329 A 
ATOM     15  H9  UNL     1      33.490  10.022  22.712  1.00  0.00     0.172 HD
HETATM   16  O3  UNL     1      32.471   9.998  24.974  1.00  0.00    -0.247 OA
HETATM   17  N10 UNL     1      33.294   7.957  25.248  1.00  0.00    -0.275 N 
HETATM   18  C9  UNL     1      34.003   6.945  24.729  1.00  0.00     0.265 A 
ATOM     19  H10 UNL     1      32.895   7.893  26.185  1.00  0.00     0.173 HD
HETATM   20  O4  UNL     1      34.178   5.899  25.409  1.00  0.00    -0.267 OA
BRANCH  12  21
HETATM   21  O2  UNL     1      34.908   8.202  21.459  1.00  0.00    -0.345 OA
ATOM     22  H2  UNL     1      35.813   8.490  21.420  1.00  0.00     0.219 HD
ENDBRANCH  12  21
ENDBRANCH   9  11
ENDBRANCH   6   8
ENDBRANCH   3   6
BRANCH   4  23
HETATM   23  N3  UNL     1      37.776   0.991  23.925  1.00  0.00    -0.128 N 
ATOM     24  H3  UNL     1      38.555   1.253  24.529  1.00  0.00     0.205 HD
BRANCH  23  25
HETATM   25  C3  UNL     1      37.455  -0.403  23.749  1.00  0.00     0.715 A 
HETATM   26  N4  UNL     1      38.332  -1.416  23.699  1.00  0.00    -0.127 N 
HETATM   27  N5  UNL     1      37.670  -2.543  23.502  1.00  0.00    -0.237 N 
ATOM     28  H4  UNL     1      39.343  -1.331  23.795  1.00  0.00     0.206 HD
HETATM   29  C4  UNL     1      36.347  -2.262  23.424  1.00  0.00     0.353 A 
ATOM     30  H5  UNL     1      38.086  -3.470  23.423  1.00  0.00     0.192 HD
HETATM   31  O1  UNL     1      35.407  -3.110  23.238  1.00  0.00    -0.245 OA
HETATM   32  N6  UNL     1      36.238  -0.938  23.578  1.00  0.00    -0.137 N 
ATOM     33  H6  UNL     1      35.362  -0.416  23.568  1.00  0.00     0.189 HD
ENDBRANCH  23  25
ENDBRANCH   4  23
TORSDOF 6
ENDMDL
MODEL 3
REMARK VINA RESULT: -7.419525561      2.047      9.201
REMARK  6 active torsions:
REMARK  status: ('A' for Active; 'I' for Inactive)
REMARK    1  A    between atoms: C2_3  and  N7_17 
REMARK    2  A    between atoms: N2_4  and  N3_6 
REMARK    3  A    between atoms: N3_6  and  C3_8 
REMARK    4  A    between atoms: N7_17  and  N8_19 
REMARK    5  A    between atoms: C5_21  and  C6_22 
REMARK    6  A    between atoms: C7_23  and  O2_24 
ROOT
HETATM    1  N1  UNL     1      34.996   2.052  25.883  1.00  0.00    -0.188 NA
HETATM    2  C1  UNL     1      35.623   2.450  24.999  1.00  0.00     0.139 C 
HETATM    3  C2  UNL     1      36.421   2.927  23.865  1.00  0.00     0.218 C 
HETATM    4  N2  UNL     1      36.770   4.089  23.671  1.00  0.00    -0.261 N 
ATOM      5  H2  UNL     1      37.327   4.195  22.823  1.00  0.00     0.190 HD
ENDROOT
BRANCH   3   6
HETATM    6  N7  UNL     1      36.825   1.928  22.908  1.00  0.00    -0.276 N 
ATOM      7  H7  UNL     1      36.998   2.171  21.932  1.00  0.00     0.189 HD
BRANCH   6   8
HETATM    8  N8  UNL     1      36.970   0.626  23.360  1.00  0.00    -0.309 N 
HETATM    9  C5  UNL     1      37.890  -0.160  22.906  1.00  0.00     0.128 C 
ATOM     10  H8  UNL     1      36.331   0.277  24.074  1.00  0.00     0.186 HD
BRANCH   9  11
HETATM   11  C6  UNL     1      37.999  -1.513  23.415  1.00  0.00     0.100 A 
HETATM   12  C7  UNL     1      36.942  -2.389  23.452  1.00  0.00     0.161 A 
HETATM   13  N9  UNL     1      37.072  -3.625  23.932  1.00  0.00    -0.288 N 
HETATM   14  C8  UNL     1      38.277  -4.028  24.397  1.00  0.00     0.329 A 
ATOM     15  H9  UNL     1      36.273  -4.259  23.950  1.00  0.00     0.172 HD
HETATM   16  O3  UNL     1      38.394  -5.183  24.845  1.00  0.00    -0.247 OA
HETATM   17  N10 UNL     1      39.353  -3.235  24.393  1.00  0.00    -0.275 N 
HETATM   18  C9  UNL     1      39.215  -1.993  23.909  1.00  0.00     0.265 A 
ATOM     19  H10 UNL     1      40.251  -3.565  24.748  1.00  0.00     0.173 HD
HETATM   20  O4  UNL     1      40.210  -1.221  23.892  1.00  0.00    -0.267 OA
BRANCH  12  21
HETATM   21  O2  UNL     1      35.727  -1.893  22.951  1.00  0.00    -0.345 OA
ATOM     22  H2  UNL     1      34.957  -2.405  23.168  1.00  0.00     0.219 HD
ENDBRANCH  12  21
ENDBRANCH   9  11
ENDBRANCH   6   8
ENDBRANCH   3   6
BRANCH   4  23
HETATM   23  N3  UNL     1      36.591   5.248  24.314  1.00  0.00    -0.128 N 
ATOM     24  H3  UNL     1      37.335   5.611  24.909  1.00  0.00     0.205 HD
BRANCH  23  25
HETATM   25  C3  UNL     1      35.363   5.992  24.179  1.00  0.00     0.715 A 
HETATM   26  N4  UNL     1      34.203   5.720  24.793  1.00  0.00    -0.127 N 
HETATM   27  N5  UNL     1      33.299   6.602  24.405  1.00  0.00    -0.237 N 
ATOM     28  H4  UNL     1      34.044   4.957  25.450  1.00  0.00     0.206 HD
HETATM   29  C4  UNL     1      33.876   7.460  23.529  1.00  0.00     0.353 A 
ATOM     30  H5  UNL     1      32.328   6.634  24.715  1.00  0.00     0.192 HD
HETATM   31  O1  UNL     1      33.300   8.444  22.949  1.00  0.00    -0.245 OA
HETATM   32  N6  UNL     1      35.147   7.064  23.405  1.00  0.00    -0.137 N 
ATOM     33  H6  UNL     1      35.846   7.511  22.811  1.00  0.00     0.189 HD
ENDBRANCH  23  25
ENDBRANCH   4  23
TORSDOF 6
ENDMDL
MODEL 4
REMARK VINA RESULT: -7.301355801      2.194      9.750
REMARK  6 active torsions:
REMARK  status: ('A' for Active; 'I' for Inactive)
REMARK    1  A    between atoms: C2_3  and  N7_17 
REMARK    2  A    between atoms: N2_4  and  N3_6 
REMARK    3  A    between atoms: N3_6  and  C3_8 
REMARK    4  A    between atoms: N7_17  and  N8_19 
REMARK    5  A    between atoms: C5_21  and  C6_22 
REMARK    6  A    between atoms: C7_23  and  O2_24 
ROOT
HETATM    1  N1  UNL     1      39.075   1.603  24.677  1.00  0.00    -0.188 NA
HETATM    2  C1  UNL     1      37.962   1.523  24.382  1.00  0.00     0.139 C 
HETATM    3  C2  UNL     1      36.548   1.392  24.016  1.00  0.00     0.218 C 
HETATM    4  N2  UNL     1      35.863   2.260  23.479  1.00  0.00    -0.261 N 
ATOM      5  H2  UNL     1      34.905   1.952  23.308  1.00  0.00     0.190 HD
ENDROOT
BRANCH   3   6
HETATM    6  N7  UNL     1      35.929   0.126  24.316  1.00  0.00    -0.276 N 
ATOM      7  H7  UNL     1      35.272   0.030  25.091  1.00  0.00     0.189 HD
BRANCH   6   8
HETATM    8  N8  UNL     1      36.257  -0.956  23.516  1.00  0.00    -0.309 N 
HETATM    9  C5  UNL     1      36.814  -2.020  23.993  1.00  0.00     0.128 C 
ATOM     10  H8  UNL     1      36.054  -0.912  22.517  1.00  0.00     0.186 HD
BRANCH   9  11
HETATM   11  C6  UNL     1      37.137  -3.124  23.111  1.00  0.00     0.100 A 
HETATM   12  C7  UNL     1      38.308  -3.200  22.398  1.00  0.00     0.161 A 
HETATM   13  N9  UNL     1      38.572  -4.224  21.589  1.00  0.00    -0.288 N 
HETATM   14  C8  UNL     1      37.662  -5.219  21.467  1.00  0.00     0.329 A 
ATOM     15  H9  UNL     1      39.449  -4.259  21.069  1.00  0.00     0.172 HD
HETATM   16  O3  UNL     1      37.913  -6.174  20.710  1.00  0.00    -0.247 OA
HETATM   17  N10 UNL     1      36.501  -5.218  22.128  1.00  0.00    -0.275 N 
HETATM   18  C9  UNL     1      36.241  -4.183  22.940  1.00  0.00     0.265 A 
ATOM     19  H10 UNL     1      35.833  -5.981  22.018  1.00  0.00     0.173 HD
HETATM   20  O4  UNL     1      35.155  -4.154  23.576  1.00  0.00    -0.267 OA
BRANCH  12  21
HETATM   21  O2  UNL     1      39.197  -2.129  22.582  1.00  0.00    -0.345 OA
ATOM     22  H2  UNL     1      39.530  -2.020  23.465  1.00  0.00     0.219 HD
ENDBRANCH  12  21
ENDBRANCH   9  11
ENDBRANCH   6   8
ENDBRANCH   3   6
BRANCH   4  23
HETATM   23  N3  UNL     1      36.079   3.513  23.067  1.00  0.00    -0.128 N 
ATOM     24  H3  UNL     1      36.843   3.703  22.419  1.00  0.00     0.205 HD
BRANCH  23  25
HETATM   25  C3  UNL     1      35.249   4.600  23.524  1.00  0.00     0.715 A 
HETATM   26  N4  UNL     1      34.671   4.701  24.729  1.00  0.00    -0.127 N 
HETATM   27  N5  UNL     1      33.970   5.820  24.773  1.00  0.00    -0.237 N 
ATOM     28  H4  UNL     1      34.758   4.025  25.487  1.00  0.00     0.206 HD
HETATM   29  C4  UNL     1      34.092   6.456  23.583  1.00  0.00     0.353 A 
ATOM     30  H5  UNL     1      33.427   6.150  25.570  1.00  0.00     0.192 HD
HETATM   31  O1  UNL     1      33.548   7.570  23.266  1.00  0.00    -0.245 OA
HETATM   32  N6  UNL     1      34.884   5.687  22.830  1.00  0.00    -0.137 N 
ATOM     33  H6  UNL     1      35.167   5.895  21.872  1.00  0.00     0.189 HD
ENDBRANCH  23  25
ENDBRANCH   4  23
TORSDOF 6
ENDMDL
MODEL 5
REMARK VINA RESULT: -7.298913226      2.056      9.175
REMARK  6 active torsions:
REMARK  status: ('A' for Active; 'I' for Inactive)
REMARK    1  A    between atoms: C2_3  and  N7_17 
REMARK    2  A    between atoms: N2_4  and  N3_6 
REMARK    3  A    between atoms: N3_6  and  C3_8 
REMARK    4  A    between atoms: N7_17  and  N8_19 
REMARK    5  A    between atoms: C5_21  and  C6_22 
REMARK    6  A    between atoms: C7_23  and  O2_24 
ROOT
HETATM    1  N1  UNL     1      34.761   2.184  25.794  1.00  0.00    -0.188 NA
HETATM    2  C1  UNL     1      35.460   2.555  24.954  1.00  0.00     0.139 C 
HETATM    3  C2  UNL     1      36.350   2.996  23.875  1.00  0.00     0.218 C 
HETATM    4  N2  UNL     1      36.772   4.140  23.716  1.00  0.00    -0.261 N 
ATOM      5  H2  UNL     1      37.383   4.222  22.904  1.00  0.00     0.190 HD
ENDROOT
BRANCH   3   6
HETATM    6  N7  UNL     1      36.757   1.985  22.933  1.00  0.00    -0.276 N 
ATOM      7  H7  UNL     1      36.890   2.206  21.946  1.00  0.00     0.189 HD
BRANCH   6   8
HETATM    8  N8  UNL     1      36.961   0.702  23.415  1.00  0.00    -0.309 N 
HETATM    9  C5  UNL     1      37.838  -0.094  22.899  1.00  0.00     0.128 C 
ATOM     10  H8  UNL     1      36.402   0.376  24.203  1.00  0.00     0.186 HD
BRANCH   9  11
HETATM   11  C6  UNL     1      38.013  -1.426  23.442  1.00  0.00     0.100 A 
HETATM   12  C7  UNL     1      39.210  -1.889  23.929  1.00  0.00     0.161 A 
HETATM   13  N9  UNL     1      39.342  -3.122  24.416  1.00  0.00    -0.288 N 
HETATM   14  C8  UNL     1      38.265  -3.941  24.431  1.00  0.00     0.329 A 
ATOM     15  H9  UNL     1      40.241  -3.444  24.773  1.00  0.00     0.172 HD
HETATM   16  O3  UNL     1      38.392  -5.093  24.887  1.00  0.00    -0.247 OA
HETATM   17  N10 UNL     1      37.066  -3.565  23.977  1.00  0.00    -0.275 N 
HETATM   18  C9  UNL     1      36.942  -2.323  23.488  1.00  0.00     0.265 A 
ATOM     19  H10 UNL     1      36.270  -4.203  24.001  1.00  0.00     0.173 HD
HETATM   20  O4  UNL     1      35.824  -1.939  23.052  1.00  0.00    -0.267 OA
BRANCH  12  21
HETATM   21  O2  UNL     1      40.277  -0.976  23.878  1.00  0.00    -0.345 OA
ATOM     22  H2  UNL     1      40.811  -1.014  23.093  1.00  0.00     0.219 HD
ENDBRANCH  12  21
ENDBRANCH   9  11
ENDBRANCH   6   8
ENDBRANCH   3   6
BRANCH   4  23
HETATM   23  N3  UNL     1      36.616   5.301  24.360  1.00  0.00    -0.128 N 
ATOM     24  H3  UNL     1      37.375   5.659  24.940  1.00  0.00     0.205 HD
BRANCH  23  25
HETATM   25  C3  UNL     1      35.394   6.057  24.247  1.00  0.00     0.715 A 
HETATM   26  N4  UNL     1      34.288   5.885  24.985  1.00  0.00    -0.127 N 
HETATM   27  N5  UNL     1      33.368   6.742  24.579  1.00  0.00    -0.237 N 
ATOM     28  H4  UNL     1      34.175   5.204  25.735  1.00  0.00     0.206 HD
HETATM   29  C4  UNL     1      33.879   7.482  23.566  1.00  0.00     0.353 A 
ATOM     30  H5  UNL     1      32.428   6.832  24.966  1.00  0.00     0.192 HD
HETATM   31  O1  UNL     1      33.270   8.410  22.930  1.00  0.00    -0.245 OA
HETATM   32  N6  UNL     1      35.128   7.042  23.379  1.00  0.00    -0.137 N 
ATOM     33  H6  UNL     1      35.779   7.402  22.681  1.00  0.00     0.189 HD
ENDBRANCH  23  25
ENDBRANCH   4  23
TORSDOF 6
ENDMDL
