MODEL 1
REMARK VINA RESULT: -6.292867353      0.000      0.000
REMARK  6 active torsions:
REMARK  status: ('A' for Active; 'I' for Inactive)
REMARK    1  A    between atoms: C2_2  and  C3_3 
REMARK    2  A    between atoms: C2_2  and  C11_30 
REMARK    3  A    between atoms: C3_3  and  N1_4 
REMARK    4  A    between atoms: N3_10  and  N4_11 
REMARK    5  A    between atoms: N5_15  and  N6_17 
REMARK    6  A    between atoms: C8_20  and  N7_21 
REMARK       I    between atoms: N7_21  and  C9_23 
ROOT
HETATM    1  N1  UNL     1      35.708   5.398  23.637  1.00  0.00    -0.320 N 
HETATM    2  C4  UNL     1      34.916   5.744  24.711  1.00  0.00     0.186 A 
HETATM    3  N2  UNL     1      34.911   4.738  25.584  1.00  0.00    -0.335 N 
ATOM      4  H2  UNL     1      34.409   4.717  26.472  1.00  0.00     0.168 HD
HETATM    5  C5  UNL     1      35.682   3.757  25.091  1.00  0.00     0.154 A 
HETATM    6  C6  UNL     1      36.191   4.172  23.853  1.00  0.00     0.176 A 
HETATM    7  N3  UNL     1      37.062   3.446  23.000  1.00  0.00    -0.222 N 
HETATM    8  C7  UNL     1      37.726   2.179  23.294  1.00  0.00     0.173 C 
HETATM    9  N5  UNL     1      38.855   2.087  22.838  1.00  0.00    -0.289 N 
ATOM     10  H5  UNL     1      39.053   2.958  22.345  1.00  0.00     0.188 HD
HETATM   11  C8  UNL     1      37.133   1.038  24.104  1.00  0.00     0.125 C 
HETATM   12  C10 UNL     1      36.379   1.261  25.151  1.00  0.00     0.148 C 
HETATM   13  N9  UNL     1      35.867   0.170  25.857  1.00  0.00    -0.080 NA
HETATM   14  N10 UNL     1      35.937   2.517  25.708  1.00  0.00    -0.326 N 
ATOM     15  H10 UNL     1      35.784   2.504  26.717  1.00  0.00     0.168 HD
ENDROOT
BRANCH   1  16
HETATM   16  C3  UNL     1      35.902   6.269  22.531  1.00  0.00     0.176 C 
BRANCH  16  17
HETATM   17  C2  UNL     1      36.816   7.394  22.958  1.00  0.00     0.027 C 
HETATM   18  C1  UNL     1      36.467   8.660  22.831  1.00  0.00     0.027 C 
BRANCH  17  19
HETATM   19  C11 UNL     1      38.122   7.088  23.528  1.00  0.00     0.206 C 
HETATM   20  O2  UNL     1      38.428   7.521  24.648  1.00  0.00    -0.644 OA
HETATM   21  O3  UNL     1      39.005   6.317  22.815  1.00  0.00    -0.644 OA
ENDBRANCH  17  19
ENDBRANCH  16  17
ENDBRANCH   1  16
BRANCH   7  22
HETATM   22  N4  UNL     1      37.319   3.997  21.768  1.00  0.00    -0.335 N 
ATOM     23  H42 UNL     1      36.517   4.379  21.266  1.00  0.00     0.177 HD
ATOM     24  H41 UNL     1      38.288   3.975  21.450  1.00  0.00     0.177 HD
ENDBRANCH   7  22
BRANCH   9  25
HETATM   25  N6  UNL     1      39.933   1.315  22.722  1.00  0.00    -0.344 N 
ATOM     26  H62 UNL     1      39.590   0.424  22.364  1.00  0.00     0.176 HD
ATOM     27  H61 UNL     1      40.944   1.257  22.845  1.00  0.00     0.176 HD
ENDBRANCH   9  25
BRANCH  11  28
HETATM   28  N7  UNL     1      37.473  -0.214  23.617  1.00  0.00    -0.305 N 
HETATM   29  C9  UNL     1      36.923  -1.399  23.212  1.00  0.00     0.333 C 
HETATM   30  N8  UNL     1      37.873  -2.448  22.762  1.00  0.00    -0.040 NA
HETATM   31  O1  UNL     1      35.771  -1.783  23.143  1.00  0.00    -0.251 OA
ATOM     32  H7  UNL     1      38.488  -0.272  23.531  1.00  0.00     0.170 HD
ENDBRANCH  11  28
TORSDOF 6
ENDMDL
MODEL 2
REMARK VINA RESULT: -6.135602149      1.866      7.175
REMARK  6 active torsions:
REMARK  status: ('A' for Active; 'I' for Inactive)
REMARK    1  A    between atoms: C2_2  and  C3_3 
REMARK    2  A    between atoms: C2_2  and  C11_30 
REMARK    3  A    between atoms: C3_3  and  N1_4 
REMARK    4  A    between atoms: N3_10  and  N4_11 
REMARK    5  A    between atoms: N5_15  and  N6_17 
REMARK    6  A    between atoms: C8_20  and  N7_21 
REMARK       I    between atoms: N7_21  and  C9_23 
ROOT
HETATM    1  N1  UNL     1      37.845   1.278  24.145  1.00  0.00    -0.320 N 
HETATM    2  C4  UNL     1      39.183   1.135  23.850  1.00  0.00     0.186 A 
HETATM    3  N2  UNL     1      39.672   2.320  23.487  1.00  0.00    -0.335 N 
ATOM      4  H2  UNL     1      40.636   2.513  23.213  1.00  0.00     0.168 HD
HETATM    5  C5  UNL     1      38.675   3.215  23.543  1.00  0.00     0.154 A 
HETATM    6  C6  UNL     1      37.510   2.557  23.962  1.00  0.00     0.176 A 
HETATM    7  N3  UNL     1      36.230   3.132  24.168  1.00  0.00    -0.222 N 
HETATM    8  C7  UNL     1      35.888   4.551  24.130  1.00  0.00     0.173 C 
HETATM    9  N5  UNL     1      35.047   4.887  24.949  1.00  0.00    -0.289 N 
ATOM     10  H5  UNL     1      34.786   4.051  25.473  1.00  0.00     0.188 HD
HETATM   11  C8  UNL     1      36.496   5.582  23.192  1.00  0.00     0.125 C 
HETATM   12  C10 UNL     1      37.762   5.543  22.860  1.00  0.00     0.148 C 
HETATM   13  N9  UNL     1      38.263   6.521  21.998  1.00  0.00    -0.080 NA
HETATM   14  N10 UNL     1      38.775   4.585  23.232  1.00  0.00    -0.326 N 
ATOM     15  H10 UNL     1      39.722   4.964  23.278  1.00  0.00     0.168 HD
ENDROOT
BRANCH   1  16
HETATM   16  C3  UNL     1      37.042   0.179  24.557  1.00  0.00     0.176 C 
BRANCH  16  17
HETATM   17  C2  UNL     1      37.292  -0.980  23.619  1.00  0.00     0.027 C 
HETATM   18  C1  UNL     1      38.251  -0.947  22.713  1.00  0.00     0.027 C 
BRANCH  17  19
HETATM   19  C11 UNL     1      36.460  -2.172  23.707  1.00  0.00     0.206 C 
HETATM   20  O2  UNL     1      35.574  -2.375  22.864  1.00  0.00    -0.644 OA
HETATM   21  O3  UNL     1      36.666  -3.065  24.728  1.00  0.00    -0.644 OA
ENDBRANCH  17  19
ENDBRANCH  16  17
ENDBRANCH   1  16
BRANCH   7  22
HETATM   22  N4  UNL     1      35.202   2.265  24.446  1.00  0.00    -0.335 N 
ATOM     23  H42 UNL     1      35.352   1.619  25.222  1.00  0.00     0.177 HD
ATOM     24  H41 UNL     1      34.376   2.329  23.852  1.00  0.00     0.177 HD
ENDBRANCH   7  22
BRANCH   9  25
HETATM   25  N6  UNL     1      34.332   5.897  25.438  1.00  0.00    -0.344 N 
ATOM     26  H62 UNL     1      33.832   5.512  26.239  1.00  0.00     0.176 HD
ATOM     27  H61 UNL     1      34.087   6.882  25.336  1.00  0.00     0.176 HD
ENDBRANCH   9  25
BRANCH  11  28
HETATM   28  N7  UNL     1      35.583   6.525  22.749  1.00  0.00    -0.305 N 
HETATM   29  C9  UNL     1      35.304   7.864  22.801  1.00  0.00     0.333 C 
HETATM   30  N8  UNL     1      34.092   8.314  22.070  1.00  0.00    -0.040 NA
HETATM   31  O1  UNL     1      35.868   8.795  23.344  1.00  0.00    -0.251 OA
ATOM     32  H7  UNL     1      34.870   6.059  22.189  1.00  0.00     0.170 HD
ENDBRANCH  11  28
TORSDOF 6
ENDMDL
MODEL 3
REMARK VINA RESULT: -6.126994459      2.428      3.140
REMARK  6 active torsions:
REMARK  status: ('A' for Active; 'I' for Inactive)
REMARK    1  A    between atoms: C2_2  and  C3_3 
REMARK    2  A    between atoms: C2_2  and  C11_30 
REMARK    3  A    between atoms: C3_3  and  N1_4 
REMARK    4  A    between atoms: N3_10  and  N4_11 
REMARK    5  A    between atoms: N5_15  and  N6_17 
REMARK    6  A    between atoms: C8_20  and  N7_21 
REMARK       I    between atoms: N7_21  and  C9_23 
ROOT
HETATM    1  N1  UNL     1      35.907   3.152  23.965  1.00  0.00    -0.320 N 
HETATM    2  C4  UNL     1      35.430   2.807  25.211  1.00  0.00     0.186 A 
HETATM    3  N2  UNL     1      36.189   1.831  25.708  1.00  0.00    -0.335 N 
ATOM      4  H2  UNL     1      36.069   1.379  26.615  1.00  0.00     0.168 HD
HETATM    5  C5  UNL     1      37.141   1.546  24.806  1.00  0.00     0.154 A 
HETATM    6  C6  UNL     1      36.965   2.384  23.696  1.00  0.00     0.176 A 
HETATM    7  N3  UNL     1      37.761   2.425  22.522  1.00  0.00    -0.222 N 
HETATM    8  C7  UNL     1      39.011   1.710  22.282  1.00  0.00     0.173 C 
HETATM    9  N5  UNL     1      39.833   2.340  21.636  1.00  0.00    -0.289 N 
ATOM     10  H5  UNL     1      39.416   3.245  21.418  1.00  0.00     0.188 HD
HETATM   11  C8  UNL     1      39.338   0.311  22.776  1.00  0.00     0.125 C 
HETATM   12  C10 UNL     1      38.942  -0.110  23.952  1.00  0.00     0.148 C 
HETATM   13  N9  UNL     1      39.277  -1.406  24.351  1.00  0.00    -0.080 NA
HETATM   14  N10 UNL     1      38.145   0.569  24.945  1.00  0.00    -0.326 N 
ATOM     15  H10 UNL     1      38.343   0.296  25.908  1.00  0.00     0.168 HD
ENDROOT
BRANCH   1  16
HETATM   16  C3  UNL     1      35.295   4.164  23.177  1.00  0.00     0.176 C 
BRANCH  16  17
HETATM   17  C2  UNL     1      35.490   5.496  23.864  1.00  0.00     0.027 C 
HETATM   18  C1  UNL     1      36.675   6.071  23.943  1.00  0.00     0.027 C 
BRANCH  17  19
HETATM   19  C11 UNL     1      34.347   6.175  24.460  1.00  0.00     0.206 C 
HETATM   20  O2  UNL     1      34.332   6.417  25.675  1.00  0.00    -0.644 OA
HETATM   21  O3  UNL     1      33.291   6.541  23.665  1.00  0.00    -0.644 OA
ENDBRANCH  17  19
ENDBRANCH  16  17
ENDBRANCH   1  16
BRANCH   7  22
HETATM   22  N4  UNL     1      37.316   3.234  21.504  1.00  0.00    -0.335 N 
ATOM     23  H42 UNL     1      36.372   3.606  21.602  1.00  0.00     0.177 HD
ATOM     24  H41 UNL     1      37.960   3.390  20.729  1.00  0.00     0.177 HD
ENDBRANCH   7  22
BRANCH   9  25
HETATM   25  N6  UNL     1      41.052   2.329  21.100  1.00  0.00    -0.344 N 
ATOM     26  H62 UNL     1      41.605   1.715  21.698  1.00  0.00     0.176 HD
ATOM     27  H61 UNL     1      41.643   2.680  20.347  1.00  0.00     0.176 HD
ENDBRANCH   9  25
BRANCH  11  28
HETATM   28  N7  UNL     1      40.071  -0.435  21.867  1.00  0.00    -0.305 N 
HETATM   29  C9  UNL     1      40.023  -1.585  21.127  1.00  0.00     0.333 C 
HETATM   30  N8  UNL     1      41.205  -1.870  20.274  1.00  0.00    -0.040 NA
HETATM   31  O1  UNL     1      39.179  -2.455  21.024  1.00  0.00    -0.251 OA
ATOM     32  H7  UNL     1      40.955   0.040  21.686  1.00  0.00     0.170 HD
ENDBRANCH  11  28
TORSDOF 6
ENDMDL
MODEL 4
REMARK VINA RESULT: -6.099919424      2.891      6.392
REMARK  6 active torsions:
REMARK  status: ('A' for Active; 'I' for Inactive)
REMARK    1  A    between atoms: C2_2  and  C3_3 
REMARK    2  A    between atoms: C2_2  and  C11_30 
REMARK    3  A    between atoms: C3_3  and  N1_4 
REMARK    4  A    between atoms: N3_10  and  N4_11 
REMARK    5  A    between atoms: N5_15  and  N6_17 
REMARK    6  A    between atoms: C8_20  and  N7_21 
REMARK       I    between atoms: N7_21  and  C9_23 
ROOT
HETATM    1  N1  UNL     1      39.039   3.439  21.069  1.00  0.00    -0.320 N 
HETATM    2  C4  UNL     1      40.058   4.253  20.622  1.00  0.00     0.186 A 
HETATM    3  N2  UNL     1      39.952   5.440  21.219  1.00  0.00    -0.335 N 
ATOM      4  H2  UNL     1      40.571   6.239  21.079  1.00  0.00     0.168 HD
HETATM    5  C5  UNL     1      38.889   5.401  22.036  1.00  0.00     0.154 A 
HETATM    6  C6  UNL     1      38.305   4.130  21.944  1.00  0.00     0.176 A 
HETATM    7  N3  UNL     1      37.169   3.658  22.650  1.00  0.00    -0.222 N 
HETATM    8  C7  UNL     1      36.456   4.341  23.725  1.00  0.00     0.173 C 
HETATM    9  N5  UNL     1      36.044   3.602  24.604  1.00  0.00    -0.289 N 
ATOM     10  H5  UNL     1      36.314   2.651  24.349  1.00  0.00     0.188 HD
HETATM   11  C8  UNL     1      36.224   5.841  23.818  1.00  0.00     0.125 C 
HETATM   12  C10 UNL     1      37.134   6.700  23.432  1.00  0.00     0.148 C 
HETATM   13  N9  UNL     1      36.863   8.065  23.546  1.00  0.00    -0.080 NA
HETATM   14  N10 UNL     1      38.430   6.457  22.847  1.00  0.00    -0.326 N 
ATOM     15  H10 UNL     1      39.132   7.167  23.056  1.00  0.00     0.168 HD
ENDROOT
BRANCH   1  16
HETATM   16  C3  UNL     1      38.881   2.105  20.603  1.00  0.00     0.176 C 
BRANCH  16  17
HETATM   17  C2  UNL     1      39.987   1.256  21.186  1.00  0.00     0.027 C 
HETATM   18  C1  UNL     1      40.844   0.609  20.421  1.00  0.00     0.027 C 
BRANCH  17  19
HETATM   19  C11 UNL     1      40.121   1.140  22.633  1.00  0.00     0.206 C 
HETATM   20  O2  UNL     1      41.205   1.391  23.179  1.00  0.00    -0.644 OA
HETATM   21  O3  UNL     1      39.039   0.750  23.381  1.00  0.00    -0.644 OA
ENDBRANCH  17  19
ENDBRANCH  16  17
ENDBRANCH   1  16
BRANCH   7  22
HETATM   22  N4  UNL     1      36.693   2.419  22.295  1.00  0.00    -0.335 N 
ATOM     23  H42 UNL     1      35.849   2.405  21.723  1.00  0.00     0.177 HD
ATOM     24  H41 UNL     1      37.215   1.613  22.638  1.00  0.00     0.177 HD
ENDBRANCH   7  22
BRANCH   9  25
HETATM   25  N6  UNL     1      35.386   3.527  25.759  1.00  0.00    -0.344 N 
ATOM     26  H62 UNL     1      34.727   2.756  25.646  1.00  0.00     0.176 HD
ATOM     27  H61 UNL     1      35.277   3.923  26.693  1.00  0.00     0.176 HD
ENDBRANCH   9  25
BRANCH  11  28
HETATM   28  N7  UNL     1      34.982   6.172  24.335  1.00  0.00    -0.305 N 
HETATM   29  C9  UNL     1      33.837   6.859  24.034  1.00  0.00     0.333 C 
HETATM   30  N8  UNL     1      32.773   6.853  25.071  1.00  0.00    -0.040 NA
HETATM   31  O1  UNL     1      33.501   7.498  23.055  1.00  0.00    -0.251 OA
ATOM     32  H7  UNL     1      34.888   5.761  25.263  1.00  0.00     0.170 HD
ENDBRANCH  11  28
TORSDOF 6
ENDMDL
MODEL 5
REMARK VINA RESULT: -6.030541233      2.193      3.145
REMARK  6 active torsions:
REMARK  status: ('A' for Active; 'I' for Inactive)
REMARK    1  A    between atoms: C2_2  and  C3_3 
REMARK    2  A    between atoms: C2_2  and  C11_30 
REMARK    3  A    between atoms: C3_3  and  N1_4 
REMARK    4  A    between atoms: N3_10  and  N4_11 
REMARK    5  A    between atoms: N5_15  and  N6_17 
REMARK    6  A    between atoms: C8_20  and  N7_21 
REMARK       I    between atoms: N7_21  and  C9_23 
ROOT
HETATM    1  N1  UNL     1      36.188   2.787  23.977  1.00  0.00    -0.320 N 
HETATM    2  C4  UNL     1      35.912   2.487  25.294  1.00  0.00     0.186 A 
HETATM    3  N2  UNL     1      36.766   1.552  25.710  1.00  0.00    -0.335 N 
ATOM      4  H2  UNL     1      36.796   1.139  26.643  1.00  0.00     0.168 HD
HETATM    5  C5  UNL     1      37.580   1.250  24.688  1.00  0.00     0.154 A 
HETATM    6  C6  UNL     1      37.216   2.033  23.584  1.00  0.00     0.176 A 
HETATM    7  N3  UNL     1      37.826   2.040  22.303  1.00  0.00    -0.222 N 
HETATM    8  C7  UNL     1      39.048   1.345  21.907  1.00  0.00     0.173 C 
HETATM    9  N5  UNL     1      39.745   1.964  21.120  1.00  0.00    -0.289 N 
ATOM     10  H5  UNL     1      39.273   2.849  20.931  1.00  0.00     0.188 HD
HETATM   11  C8  UNL     1      39.486  -0.023  22.404  1.00  0.00     0.125 C 
HETATM   12  C10 UNL     1      39.283  -0.400  23.641  1.00  0.00     0.148 C 
HETATM   13  N9  UNL     1      39.713  -1.668  24.039  1.00  0.00    -0.080 NA
HETATM   14  N10 UNL     1      38.623   0.304  24.714  1.00  0.00    -0.326 N 
ATOM     15  H10 UNL     1      38.971   0.080  25.647  1.00  0.00     0.168 HD
ENDROOT
BRANCH   1  16
HETATM   16  C3  UNL     1      35.434   3.747  23.249  1.00  0.00     0.176 C 
BRANCH  16  17
HETATM   17  C2  UNL     1      35.706   5.116  23.831  1.00  0.00     0.027 C 
HETATM   18  C1  UNL     1      34.883   5.681  24.693  1.00  0.00     0.027 C 
BRANCH  17  19
HETATM   19  C11 UNL     1      36.907   5.842  23.437  1.00  0.00     0.206 C 
HETATM   20  O2  UNL     1      37.476   5.569  22.370  1.00  0.00    -0.644 OA
HETATM   21  O3  UNL     1      37.398   6.826  24.256  1.00  0.00    -0.644 OA
ENDBRANCH  17  19
ENDBRANCH  16  17
ENDBRANCH   1  16
BRANCH   7  22
HETATM   22  N4  UNL     1      37.210   2.791  21.332  1.00  0.00    -0.335 N 
ATOM     23  H42 UNL     1      36.676   3.598  21.654  1.00  0.00     0.177 HD
ATOM     24  H41 UNL     1      37.328   2.478  20.368  1.00  0.00     0.177 HD
ENDBRANCH   7  22
BRANCH   9  25
HETATM   25  N6  UNL     1      40.869   1.958  20.408  1.00  0.00    -0.344 N 
ATOM     26  H62 UNL     1      40.577   2.091  19.439  1.00  0.00     0.176 HD
ATOM     27  H61 UNL     1      41.885   1.875  20.439  1.00  0.00     0.176 HD
ENDBRANCH   9  25
BRANCH  11  28
HETATM   28  N7  UNL     1      40.098  -0.791  21.426  1.00  0.00    -0.305 N 
HETATM   29  C9  UNL     1      39.967  -1.968  20.739  1.00  0.00     0.333 C 
HETATM   30  N8  UNL     1      41.022  -2.268  19.738  1.00  0.00    -0.040 NA
HETATM   31  O1  UNL     1      39.132  -2.851  20.785  1.00  0.00    -0.251 OA
ATOM     32  H7  UNL     1      40.940  -0.312  21.106  1.00  0.00     0.170 HD
ENDBRANCH  11  28
TORSDOF 6
ENDMDL
