MODEL 1
REMARK VINA RESULT: -5.126610884      0.000      0.000
REMARK  2 active torsions:
REMARK  status: ('A' for Active; 'I' for Inactive)
REMARK    1  A    between atoms: C2_2  and  O1_3 
REMARK    2  A    between atoms: N1_7  and  O2_9 
ROOT
HETATM    1  C1  UNL     1      -5.573 -37.593   1.866  1.00  0.00     0.079 C 
HETATM    2  C2  UNL     1      -4.745 -37.171   0.674  1.00  0.00     0.163 C 
HETATM    3  C3  UNL     1      -5.520 -37.543  -0.580  1.00  0.00     0.124 C 
HETATM    4  C4  UNL     1      -5.090 -36.475  -1.515  1.00  0.00     0.038 C 
HETATM    5  N1  UNL     1      -5.397 -36.239  -2.724  1.00  0.00    -0.275 N 
ATOM      6  H1  UNL     1      -4.955 -35.425  -3.152  1.00  0.00     0.193 HD
HETATM    7  C5  UNL     1      -4.148 -35.643  -0.726  1.00  0.00     0.226 C 
HETATM    8  O3  UNL     1      -4.632 -35.786   0.573  1.00  0.00    -0.350 OA
ENDROOT
BRANCH   5   9
HETATM    9  O2  UNL     1      -6.237 -36.938  -3.507  1.00  0.00    -0.290 OA
ATOM     10  H2  UNL     1      -7.050 -36.638  -3.896  1.00  0.00     0.244 HD
ENDBRANCH   5   9
BRANCH   2  11
HETATM   11  O1  UNL     1      -3.469 -37.696   0.685  1.00  0.00    -0.365 OA
ATOM     12  H1  UNL     1      -2.999 -37.554  -0.128  1.00  0.00     0.213 HD
ENDBRANCH   2  11
TORSDOF 2
ENDMDL
MODEL 2
REMARK VINA RESULT: -4.733637332      9.535     10.158
REMARK  2 active torsions:
REMARK  status: ('A' for Active; 'I' for Inactive)
REMARK    1  A    between atoms: C2_2  and  O1_3 
REMARK    2  A    between atoms: N1_7  and  O2_9 
ROOT
HETATM    1  C1  UNL     1      -0.960 -31.975   7.088  1.00  0.00     0.079 C 
HETATM    2  C2  UNL     1      -1.739 -30.856   6.438  1.00  0.00     0.163 C 
HETATM    3  C3  UNL     1      -3.218 -31.178   6.584  1.00  0.00     0.124 C 
HETATM    4  C4  UNL     1      -3.804 -29.819   6.673  1.00  0.00     0.038 C 
HETATM    5  N1  UNL     1      -5.004 -29.426   6.810  1.00  0.00    -0.275 N 
ATOM      6  H1  UNL     1      -5.147 -28.416   6.844  1.00  0.00     0.193 HD
HETATM    7  C5  UNL     1      -2.643 -28.902   6.567  1.00  0.00     0.226 C 
HETATM    8  O3  UNL     1      -1.612 -29.653   7.128  1.00  0.00    -0.350 OA
ENDROOT
BRANCH   5   9
HETATM    9  O2  UNL     1      -6.108 -30.186   6.913  1.00  0.00    -0.290 OA
ATOM     10  H2  UNL     1      -6.926 -30.084   6.441  1.00  0.00     0.244 HD
ENDBRANCH   5   9
BRANCH   2  11
HETATM   11  O1  UNL     1      -1.373 -30.629   5.127  1.00  0.00    -0.365 OA
ATOM     12  H1  UNL     1      -2.005 -30.107   4.647  1.00  0.00     0.213 HD
ENDBRANCH   2  11
TORSDOF 2
ENDMDL
MODEL 3
REMARK VINA RESULT: -4.650878941      1.323      1.402
REMARK  2 active torsions:
REMARK  status: ('A' for Active; 'I' for Inactive)
REMARK    1  A    between atoms: C2_2  and  O1_3 
REMARK    2  A    between atoms: N1_7  and  O2_9 
ROOT
HETATM    1  C1  UNL     1      -4.901 -37.393   1.070  1.00  0.00     0.079 C 
HETATM    2  C2  UNL     1      -4.739 -37.101  -0.404  1.00  0.00     0.163 C 
HETATM    3  C3  UNL     1      -5.901 -37.757  -1.134  1.00  0.00     0.124 C 
HETATM    4  C4  UNL     1      -6.091 -36.826  -2.273  1.00  0.00     0.038 C 
HETATM    5  N1  UNL     1      -6.917 -36.832  -3.238  1.00  0.00    -0.275 N 
ATOM      6  H1  UNL     1      -6.839 -36.063  -3.903  1.00  0.00     0.193 HD
HETATM    7  C5  UNL     1      -5.054 -35.782  -2.082  1.00  0.00     0.226 C 
HETATM    8  O3  UNL     1      -4.910 -35.749  -0.696  1.00  0.00    -0.350 OA
ENDROOT
BRANCH   5   9
HETATM    9  O2  UNL     1      -7.882 -37.735  -3.484  1.00  0.00    -0.290 OA
ATOM     10  H2  UNL     1      -7.986 -38.274  -4.259  1.00  0.00     0.244 HD
ENDBRANCH   5   9
BRANCH   2  11
HETATM   11  O1  UNL     1      -3.513 -37.487  -0.904  1.00  0.00    -0.365 OA
ATOM     12  H1  UNL     1      -3.559 -37.820  -1.793  1.00  0.00     0.213 HD
ENDBRANCH   2  11
TORSDOF 2
ENDMDL
MODEL 4
REMARK VINA RESULT: -4.632263057      1.526      2.501
REMARK  2 active torsions:
REMARK  status: ('A' for Active; 'I' for Inactive)
REMARK    1  A    between atoms: C2_2  and  O1_3 
REMARK    2  A    between atoms: N1_7  and  O2_9 
ROOT
HETATM    1  C1  UNL     1      -2.591 -35.535  -1.287  1.00  0.00     0.079 C 
HETATM    2  C2  UNL     1      -3.979 -35.992  -0.901  1.00  0.00     0.163 C 
HETATM    3  C3  UNL     1      -4.938 -35.515  -1.980  1.00  0.00     0.124 C 
HETATM    4  C4  UNL     1      -5.961 -36.588  -1.956  1.00  0.00     0.038 C 
HETATM    5  N1  UNL     1      -7.021 -36.759  -2.634  1.00  0.00    -0.275 N 
ATOM      6  H1  UNL     1      -7.564 -37.596  -2.420  1.00  0.00     0.193 HD
HETATM    7  C5  UNL     1      -5.497 -37.524  -0.902  1.00  0.00     0.226 C 
HETATM    8  O3  UNL     1      -4.112 -37.378  -0.955  1.00  0.00    -0.350 OA
ENDROOT
BRANCH   5   9
HETATM    9  O2  UNL     1      -7.510 -35.965  -3.602  1.00  0.00    -0.290 OA
ATOM     10  H2  UNL     1      -7.125 -35.783  -4.451  1.00  0.00     0.244 HD
ENDBRANCH   5   9
BRANCH   2  11
HETATM   11  O1  UNL     1      -4.355 -35.583   0.361  1.00  0.00    -0.365 OA
ATOM     12  H1  UNL     1      -4.665 -36.295   0.909  1.00  0.00     0.213 HD
ENDBRANCH   2  11
TORSDOF 2
ENDMDL
MODEL 5
REMARK VINA RESULT: -4.612290127      2.511      4.022
REMARK  2 active torsions:
REMARK  status: ('A' for Active; 'I' for Inactive)
REMARK    1  A    between atoms: C2_2  and  O1_3 
REMARK    2  A    between atoms: N1_7  and  O2_9 
ROOT
HETATM    1  C1  UNL     1      -6.073 -36.625  -2.350  1.00  0.00     0.079 C 
HETATM    2  C2  UNL     1      -6.147 -37.644  -1.236  1.00  0.00     0.163 C 
HETATM    3  C3  UNL     1      -5.032 -37.331  -0.251  1.00  0.00     0.124 C 
HETATM    4  C4  UNL     1      -5.639 -37.775   1.027  1.00  0.00     0.038 C 
HETATM    5  N1  UNL     1      -5.198 -37.768   2.218  1.00  0.00    -0.275 N 
ATOM      6  H1  UNL     1      -5.825 -38.136   2.934  1.00  0.00     0.193 HD
HETATM    7  C5  UNL     1      -6.983 -38.279   0.649  1.00  0.00     0.226 C 
HETATM    8  O3  UNL     1      -7.297 -37.499  -0.463  1.00  0.00    -0.350 OA
ENDROOT
BRANCH   5   9
HETATM    9  O2  UNL     1      -4.001 -37.331   2.645  1.00  0.00    -0.290 OA
ATOM     10  H2  UNL     1      -3.803 -36.501   3.062  1.00  0.00     0.244 HD
ENDBRANCH   5   9
BRANCH   2  11
HETATM   11  O1  UNL     1      -6.106 -38.947  -1.687  1.00  0.00    -0.365 OA
ATOM     12  H1  UNL     1      -5.893 -39.573  -1.005  1.00  0.00     0.213 HD
ENDBRANCH   2  11
TORSDOF 2
ENDMDL
