MODEL 1
REMARK VINA RESULT: -6.321700987      0.000      0.000
REMARK  7 active torsions:
REMARK  status: ('A' for Active; 'I' for Inactive)
REMARK    1  A    between atoms: N1_1  and  N2_4 
REMARK       I    between atoms: N2_4  and  C1_6 
REMARK    2  A    between atoms: C1_6  and  C2_8 
REMARK    3  A    between atoms: N4_11  and  C4_12 
REMARK    4  A    between atoms: C5_14  and  O3_15 
REMARK    5  A    between atoms: C6_17  and  C7_18 
REMARK    6  A    between atoms: C7_18  and  O4_19 
REMARK    7  A    between atoms: C7_18  and  C8_21 
ROOT
HETATM    1  C2  UNL     1      44.145 -19.311 122.393  1.00  0.00     0.143 A 
HETATM    2  C3  UNL     1      44.990 -18.813 121.387  1.00  0.00     0.147 A 
HETATM    3  N3  UNL     1      44.670 -19.078 120.021  1.00  0.00    -0.081 NA
HETATM    4  N4  UNL     1      46.061 -18.112 121.751  1.00  0.00    -0.235 N 
HETATM    5  C9  UNL     1      46.330 -17.882 123.047  1.00  0.00     0.334 A 
HETATM    6  O7  UNL     1      47.369 -17.204 123.339  1.00  0.00    -0.246 OA
HETATM    7  N6  UNL     1      45.569 -18.326 124.041  1.00  0.00    -0.274 N 
ATOM      8  H6  UNL     1      45.801 -18.135 125.016  1.00  0.00     0.173 HD
HETATM    9  C10 UNL     1      44.465 -19.048 123.700  1.00  0.00     0.268 A 
HETATM   10  O8  UNL     1      43.782 -19.442 124.673  1.00  0.00    -0.267 OA
ENDROOT
BRANCH   4  11
HETATM   11  C4  UNL     1      46.948 -17.588 120.727  1.00  0.00     0.385 C 
HETATM   12  O2  UNL     1      46.298 -16.849 119.769  1.00  0.00    -0.310 OA
HETATM   13  C5  UNL     1      46.356 -15.561 120.276  1.00  0.00     0.293 C 
HETATM   14  C6  UNL     1      47.756 -15.506 120.838  1.00  0.00     0.219 C 
HETATM   15  O6  UNL     1      47.915 -16.813 121.315  1.00  0.00    -0.330 OA
BRANCH  13  16
HETATM   16  O3  UNL     1      46.112 -14.587 119.340  1.00  0.00    -0.368 OA
ATOM     17  H3  UNL     1      45.978 -13.724 119.712  1.00  0.00     0.212 HD
ENDBRANCH  13  16
BRANCH  14  18
HETATM   18  C7  UNL     1      48.800 -15.318 119.763  1.00  0.00     0.241 C 
BRANCH  18  19
HETATM   19  O4  UNL     1      48.932 -14.023 119.339  1.00  0.00    -0.384 OA
ATOM     20  H4  UNL     1      49.315 -13.443 119.986  1.00  0.00     0.210 HD
ENDBRANCH  18  19
BRANCH  18  21
HETATM   21  C8  UNL     1      50.089 -15.846 120.341  1.00  0.00     0.262 C 
HETATM   22  N5  UNL     1      50.791 -16.928 119.745  1.00  0.00    -0.060 NA
HETATM   23  O5  UNL     1      50.577 -15.328 121.379  1.00  0.00    -0.274 OA
ENDBRANCH  18  21
ENDBRANCH  14  18
ENDBRANCH   4  11
BRANCH   1  24
HETATM   24  C1  UNL     1      42.978 -20.075 121.998  1.00  0.00     0.278 C 
HETATM   25  N2  UNL     1      41.923 -19.670 121.173  1.00  0.00    -0.272 N 
ATOM     26  H2  UNL     1      41.925 -18.731 120.774  1.00  0.00     0.189 HD
HETATM   27  O1  UNL     1      42.872 -21.279 122.449  1.00  0.00    -0.266 OA
BRANCH  25  28
HETATM   28  N1  UNL     1      40.847 -20.552 120.886  1.00  0.00    -0.342 N 
ATOM     29  H12 UNL     1      40.806 -20.991 119.965  1.00  0.00     0.176 HD
ATOM     30  H11 UNL     1      40.129 -20.743 121.585  1.00  0.00     0.176 HD
ENDBRANCH  25  28
ENDBRANCH   1  24
TORSDOF 7
ENDMDL
MODEL 2
REMARK VINA RESULT: -6.276948470      5.617      6.900
REMARK  7 active torsions:
REMARK  status: ('A' for Active; 'I' for Inactive)
REMARK    1  A    between atoms: N1_1  and  N2_4 
REMARK       I    between atoms: N2_4  and  C1_6 
REMARK    2  A    between atoms: C1_6  and  C2_8 
REMARK    3  A    between atoms: N4_11  and  C4_12 
REMARK    4  A    between atoms: C5_14  and  O3_15 
REMARK    5  A    between atoms: C6_17  and  C7_18 
REMARK    6  A    between atoms: C7_18  and  O4_19 
REMARK    7  A    between atoms: C7_18  and  C8_21 
ROOT
HETATM    1  C2  UNL     1      41.037 -19.630 117.213  1.00  0.00     0.143 A 
HETATM    2  C3  UNL     1      42.189 -19.331 116.467  1.00  0.00     0.147 A 
HETATM    3  N3  UNL     1      43.471 -19.538 117.061  1.00  0.00    -0.081 NA
HETATM    4  N4  UNL     1      42.037 -18.864 115.230  1.00  0.00    -0.235 N 
HETATM    5  C9  UNL     1      40.816 -18.682 114.704  1.00  0.00     0.334 A 
HETATM    6  O7  UNL     1      40.729 -18.233 113.514  1.00  0.00    -0.246 OA
HETATM    7  N6  UNL     1      39.691 -18.947 115.359  1.00  0.00    -0.274 N 
ATOM      8  H6  UNL     1      38.777 -18.797 114.932  1.00  0.00     0.173 HD
HETATM    9  C10 UNL     1      39.813 -19.427 116.629  1.00  0.00     0.268 A 
HETATM   10  O8  UNL     1      38.724 -19.659 117.202  1.00  0.00    -0.267 OA
ENDROOT
BRANCH   4  11
HETATM   11  C4  UNL     1      43.217 -18.549 114.442  1.00  0.00     0.385 C 
HETATM   12  O2  UNL     1      43.227 -17.260 113.970  1.00  0.00    -0.310 OA
HETATM   13  C5  UNL     1      43.887 -16.566 114.971  1.00  0.00     0.293 C 
HETATM   14  C6  UNL     1      44.987 -17.528 115.350  1.00  0.00     0.219 C 
HETATM   15  O6  UNL     1      44.340 -18.761 115.200  1.00  0.00    -0.330 OA
BRANCH  13  16
HETATM   16  O3  UNL     1      44.357 -15.339 114.577  1.00  0.00    -0.368 OA
ATOM     17  H3  UNL     1      44.309 -14.674 115.254  1.00  0.00     0.212 HD
ENDBRANCH  13  16
BRANCH  14  18
HETATM   18  C7  UNL     1      46.123 -17.523 114.356  1.00  0.00     0.241 C 
BRANCH  18  19
HETATM   19  O4  UNL     1      46.300 -16.321 113.724  1.00  0.00    -0.384 OA
ATOM     20  H4  UNL     1      45.489 -15.868 113.524  1.00  0.00     0.210 HD
ENDBRANCH  18  19
BRANCH  18  21
HETATM   21  C8  UNL     1      47.353 -17.929 115.129  1.00  0.00     0.262 C 
HETATM   22  N5  UNL     1      47.951 -17.072 116.092  1.00  0.00    -0.060 NA
HETATM   23  O5  UNL     1      47.881 -19.054 114.932  1.00  0.00    -0.274 OA
ENDBRANCH  18  21
ENDBRANCH  14  18
ENDBRANCH   4  11
BRANCH   1  24
HETATM   24  C1  UNL     1      41.199 -20.139 118.561  1.00  0.00     0.278 C 
HETATM   25  N2  UNL     1      41.439 -19.410 119.732  1.00  0.00    -0.272 N 
ATOM     26  H2  UNL     1      41.518 -18.394 119.687  1.00  0.00     0.189 HD
HETATM   27  O1  UNL     1      41.119 -21.415 118.732  1.00  0.00    -0.266 OA
BRANCH  25  28
HETATM   28  N1  UNL     1      41.574 -20.071 120.982  1.00  0.00    -0.342 N 
ATOM     29  H12 UNL     1      41.401 -19.541 121.837  1.00  0.00     0.176 HD
ATOM     30  H11 UNL     1      41.838 -21.055 121.024  1.00  0.00     0.176 HD
ENDBRANCH  25  28
ENDBRANCH   1  24
TORSDOF 7
ENDMDL
MODEL 3
REMARK VINA RESULT: -6.149024691      6.196      9.255
REMARK  7 active torsions:
REMARK  status: ('A' for Active; 'I' for Inactive)
REMARK    1  A    between atoms: N1_1  and  N2_4 
REMARK       I    between atoms: N2_4  and  C1_6 
REMARK    2  A    between atoms: C1_6  and  C2_8 
REMARK    3  A    between atoms: N4_11  and  C4_12 
REMARK    4  A    between atoms: C5_14  and  O3_15 
REMARK    5  A    between atoms: C6_17  and  C7_18 
REMARK    6  A    between atoms: C7_18  and  O4_19 
REMARK    7  A    between atoms: C7_18  and  C8_21 
ROOT
HETATM    1  C2  UNL     1      46.210 -18.591 115.004  1.00  0.00     0.143 A 
HETATM    2  C3  UNL     1      44.996 -18.279 115.636  1.00  0.00     0.147 A 
HETATM    3  N3  UNL     1      44.561 -16.919 115.666  1.00  0.00    -0.081 NA
HETATM    4  N4  UNL     1      44.296 -19.269 116.185  1.00  0.00    -0.235 N 
HETATM    5  C9  UNL     1      44.736 -20.536 116.138  1.00  0.00     0.334 A 
HETATM    6  O7  UNL     1      44.025 -21.446 116.680  1.00  0.00    -0.246 OA
HETATM    7  N6  UNL     1      45.875 -20.893 115.555  1.00  0.00    -0.274 N 
ATOM      8  H6  UNL     1      46.182 -21.866 115.536  1.00  0.00     0.173 HD
HETATM    9  C10 UNL     1      46.614 -19.901 114.983  1.00  0.00     0.268 A 
HETATM   10  O8  UNL     1      47.677 -20.291 114.447  1.00  0.00    -0.267 OA
ENDROOT
BRANCH   4  11
HETATM   11  C4  UNL     1      43.037 -18.967 116.844  1.00  0.00     0.385 C 
HETATM   12  O2  UNL     1      42.228 -18.130 116.116  1.00  0.00    -0.310 OA
HETATM   13  C5  UNL     1      41.462 -19.009 115.368  1.00  0.00     0.293 C 
HETATM   14  C6  UNL     1      41.170 -20.102 116.368  1.00  0.00     0.219 C 
HETATM   15  O6  UNL     1      42.365 -20.135 117.098  1.00  0.00    -0.330 OA
BRANCH  13  16
HETATM   16  O3  UNL     1      40.327 -18.444 114.842  1.00  0.00    -0.368 OA
ATOM     17  H3  UNL     1      39.657 -18.256 115.488  1.00  0.00     0.212 HD
ENDBRANCH  13  16
BRANCH  14  18
HETATM   18  C7  UNL     1      40.087 -19.714 117.346  1.00  0.00     0.241 C 
BRANCH  18  19
HETATM   19  O4  UNL     1      39.972 -18.363 117.537  1.00  0.00    -0.384 OA
ATOM     20  H4  UNL     1      39.234 -18.113 118.082  1.00  0.00     0.210 HD
ENDBRANCH  18  19
BRANCH  18  21
HETATM   21  C8  UNL     1      38.810 -20.309 116.809  1.00  0.00     0.262 C 
HETATM   22  N5  UNL     1      38.576 -21.711 116.810  1.00  0.00    -0.060 NA
HETATM   23  O5  UNL     1      37.911 -19.562 116.342  1.00  0.00    -0.274 OA
ENDBRANCH  18  21
ENDBRANCH  14  18
ENDBRANCH   4  11
BRANCH   1  24
HETATM   24  C1  UNL     1      46.974 -17.515 114.405  1.00  0.00     0.278 C 
HETATM   25  N2  UNL     1      46.803 -16.938 113.141  1.00  0.00    -0.272 N 
ATOM     26  H2  UNL     1      46.065 -17.280 112.526  1.00  0.00     0.189 HD
HETATM   27  O1  UNL     1      47.937 -17.008 115.099  1.00  0.00    -0.266 OA
BRANCH  25  28
HETATM   28  N1  UNL     1      47.648 -15.881 112.706  1.00  0.00    -0.342 N 
ATOM     29  H12 UNL     1      48.285 -15.455 113.380  1.00  0.00     0.176 HD
ATOM     30  H11 UNL     1      47.617 -15.555 111.740  1.00  0.00     0.176 HD
ENDBRANCH  25  28
ENDBRANCH   1  24
TORSDOF 7
ENDMDL
MODEL 4
REMARK VINA RESULT: -5.948889736      8.161     10.571
REMARK  7 active torsions:
REMARK  status: ('A' for Active; 'I' for Inactive)
REMARK    1  A    between atoms: N1_1  and  N2_4 
REMARK       I    between atoms: N2_4  and  C1_6 
REMARK    2  A    between atoms: C1_6  and  C2_8 
REMARK    3  A    between atoms: N4_11  and  C4_12 
REMARK    4  A    between atoms: C5_14  and  O3_15 
REMARK    5  A    between atoms: C6_17  and  C7_18 
REMARK    6  A    between atoms: C7_18  and  O4_19 
REMARK    7  A    between atoms: C7_18  and  C8_21 
ROOT
HETATM    1  C2  UNL     1      38.641 -22.572 112.822  1.00  0.00     0.143 A 
HETATM    2  C3  UNL     1      39.405 -21.572 113.446  1.00  0.00     0.147 A 
HETATM    3  N3  UNL     1      39.810 -20.433 112.685  1.00  0.00    -0.081 NA
HETATM    4  N4  UNL     1      39.722 -21.728 114.729  1.00  0.00    -0.235 N 
HETATM    5  C9  UNL     1      39.324 -22.812 115.414  1.00  0.00     0.334 A 
HETATM    6  O7  UNL     1      39.655 -22.910 116.641  1.00  0.00    -0.246 OA
HETATM    7  N6  UNL     1      38.601 -23.789 114.879  1.00  0.00    -0.274 N 
ATOM      8  H6  UNL     1      38.314 -24.601 115.425  1.00  0.00     0.173 HD
HETATM    9  C10 UNL     1      38.260 -23.659 113.566  1.00  0.00     0.268 A 
HETATM   10  O8  UNL     1      37.579 -24.606 113.110  1.00  0.00    -0.267 OA
ENDROOT
BRANCH   4  11
HETATM   11  C4  UNL     1      40.511 -20.705 115.394  1.00  0.00     0.385 C 
HETATM   12  O2  UNL     1      39.858 -19.503 115.510  1.00  0.00    -0.310 OA
HETATM   13  C5  UNL     1      39.224 -19.608 116.737  1.00  0.00     0.293 C 
HETATM   14  C6  UNL     1      40.276 -20.288 117.579  1.00  0.00     0.219 C 
HETATM   15  O6  UNL     1      40.868 -21.146 116.643  1.00  0.00    -0.330 OA
BRANCH  13  16
HETATM   16  O3  UNL     1      38.815 -18.405 117.254  1.00  0.00    -0.368 OA
ATOM     17  H3  UNL     1      37.880 -18.255 117.182  1.00  0.00     0.212 HD
ENDBRANCH  13  16
BRANCH  14  18
HETATM   18  C7  UNL     1      41.360 -19.336 118.024  1.00  0.00     0.241 C 
BRANCH  18  19
HETATM   19  O4  UNL     1      40.913 -18.066 118.274  1.00  0.00    -0.384 OA
ATOM     20  H4  UNL     1      41.561 -17.390 118.107  1.00  0.00     0.210 HD
ENDBRANCH  18  19
BRANCH  18  21
HETATM   21  C8  UNL     1      41.980 -19.957 119.250  1.00  0.00     0.262 C 
HETATM   22  N5  UNL     1      43.300 -19.637 119.667  1.00  0.00    -0.060 NA
HETATM   23  O5  UNL     1      41.329 -20.784 119.940  1.00  0.00    -0.274 OA
ENDBRANCH  18  21
ENDBRANCH  14  18
ENDBRANCH   4  11
BRANCH   1  24
HETATM   24  C1  UNL     1      38.295 -22.404 111.424  1.00  0.00     0.278 C 
HETATM   25  N2  UNL     1      37.406 -21.480 110.863  1.00  0.00    -0.272 N 
ATOM     26  H2  UNL     1      36.915 -20.820 111.467  1.00  0.00     0.189 HD
HETATM   27  O1  UNL     1      38.858 -23.191 110.571  1.00  0.00    -0.266 OA
BRANCH  25  28
HETATM   28  N1  UNL     1      37.179 -21.451 109.461  1.00  0.00    -0.342 N 
ATOM     29  H12 UNL     1      37.977 -21.312 108.839  1.00  0.00     0.176 HD
ATOM     30  H11 UNL     1      36.239 -21.566 109.083  1.00  0.00     0.176 HD
ENDBRANCH  25  28
ENDBRANCH   1  24
TORSDOF 7
ENDMDL
MODEL 5
REMARK VINA RESULT: -5.879249768      7.533      9.800
REMARK  7 active torsions:
REMARK  status: ('A' for Active; 'I' for Inactive)
REMARK    1  A    between atoms: N1_1  and  N2_4 
REMARK       I    between atoms: N2_4  and  C1_6 
REMARK    2  A    between atoms: C1_6  and  C2_8 
REMARK    3  A    between atoms: N4_11  and  C4_12 
REMARK    4  A    between atoms: C5_14  and  O3_15 
REMARK    5  A    between atoms: C6_17  and  C7_18 
REMARK    6  A    between atoms: C7_18  and  O4_19 
REMARK    7  A    between atoms: C7_18  and  C8_21 
ROOT
HETATM    1  C2  UNL     1      41.314 -18.941 112.122  1.00  0.00     0.143 A 
HETATM    2  C3  UNL     1      40.837 -19.245 113.408  1.00  0.00     0.147 A 
HETATM    3  N3  UNL     1      39.717 -20.121 113.542  1.00  0.00    -0.081 NA
HETATM    4  N4  UNL     1      41.451 -18.698 114.455  1.00  0.00    -0.235 N 
HETATM    5  C9  UNL     1      42.500 -17.878 114.291  1.00  0.00     0.334 A 
HETATM    6  O7  UNL     1      43.051 -17.383 115.329  1.00  0.00    -0.246 OA
HETATM    7  N6  UNL     1      42.996 -17.554 113.102  1.00  0.00    -0.274 N 
ATOM      8  H6  UNL     1      43.795 -16.927 113.010  1.00  0.00     0.173 HD
HETATM    9  C10 UNL     1      42.389 -18.098 112.010  1.00  0.00     0.268 A 
HETATM   10  O8  UNL     1      42.895 -17.762 110.915  1.00  0.00    -0.267 OA
ENDROOT
BRANCH   4  11
HETATM   11  C4  UNL     1      40.972 -18.999 115.794  1.00  0.00     0.385 C 
HETATM   12  O2  UNL     1      40.748 -20.337 116.004  1.00  0.00    -0.310 OA
HETATM   13  C5  UNL     1      41.965 -20.785 116.493  1.00  0.00     0.293 C 
HETATM   14  C6  UNL     1      42.371 -19.657 117.411  1.00  0.00     0.219 C 
HETATM   15  O6  UNL     1      41.882 -18.544 116.714  1.00  0.00    -0.330 OA
BRANCH  13  16
HETATM   16  O3  UNL     1      41.893 -21.998 117.130  1.00  0.00    -0.368 OA
ATOM     17  H3  UNL     1      42.131 -22.735 116.579  1.00  0.00     0.212 HD
ENDBRANCH  13  16
BRANCH  14  18
HETATM   18  C7  UNL     1      41.631 -19.691 118.726  1.00  0.00     0.241 C 
BRANCH  18  19
HETATM   19  O4  UNL     1      40.482 -20.435 118.696  1.00  0.00    -0.384 OA
ATOM     20  H4  UNL     1      40.134 -20.640 119.556  1.00  0.00     0.210 HD
ENDBRANCH  18  19
BRANCH  18  21
HETATM   21  C8  UNL     1      42.611 -20.226 119.740  1.00  0.00     0.262 C 
HETATM   22  N5  UNL     1      42.542 -21.563 120.217  1.00  0.00    -0.060 NA
HETATM   23  O5  UNL     1      43.524 -19.486 120.190  1.00  0.00    -0.274 OA
ENDBRANCH  18  21
ENDBRANCH  14  18
ENDBRANCH   4  11
BRANCH   1  24
HETATM   24  C1  UNL     1      40.647 -19.535 110.980  1.00  0.00     0.278 C 
HETATM   25  N2  UNL     1      39.465 -19.113 110.360  1.00  0.00    -0.272 N 
ATOM     26  H2  UNL     1      38.973 -18.294 110.715  1.00  0.00     0.189 HD
HETATM   27  O1  UNL     1      41.185 -20.581 110.451  1.00  0.00    -0.266 OA
BRANCH  25  28
HETATM   28  N1  UNL     1      38.943 -19.816 109.240  1.00  0.00    -0.342 N 
ATOM     29  H12 UNL     1      38.255 -20.552 109.402  1.00  0.00     0.176 HD
ATOM     30  H11 UNL     1      39.251 -19.589 108.295  1.00  0.00     0.176 HD
ENDBRANCH  25  28
ENDBRANCH   1  24
TORSDOF 7
ENDMDL
