MODEL 1
REMARK VINA RESULT: -7.515103715      0.000      0.000
REMARK  10 active torsions:
REMARK  status: ('A' for Active; 'I' for Inactive)
REMARK    1  A    between atoms: C2_2  and  C3_3 
REMARK    2  A    between atoms: C5_7  and  C6_8 
REMARK    3  A    between atoms: C9_13  and  C10_14 
REMARK    4  A    between atoms: C10_14  and  N3_15 
REMARK    5  A    between atoms: C19_27  and  C20_28 
REMARK    6  A    between atoms: C20_28  and  C21_29 
REMARK    7  A    between atoms: C21_29  and  C22_30 
REMARK    8  A    between atoms: C22_30  and  C23_31 
REMARK    9  A    between atoms: C23_31  and  N5_32 
REMARK       I    between atoms: N5_32  and  C24_34 
REMARK   10  A    between atoms: N6_39  and  O4_40 
ROOT
HETATM    1  C6  UNL     1      -1.161  19.402  19.428  1.00  0.00     0.012 A 
HETATM    2  C7  UNL     1      -1.005  19.487  20.812  1.00  0.00     0.060 A 
HETATM    3  C8  UNL     1      -1.800  20.554  21.214  1.00  0.00     0.099 A 
HETATM    4  N2  UNL     1      -2.394  21.077  20.148  1.00  0.00    -0.350 N 
ATOM      5  H2  UNL     1      -3.031  21.873  20.182  1.00  0.00     0.166 HD
HETATM    6  C9  UNL     1      -2.059  20.438  19.035  1.00  0.00     0.067 A 
HETATM    7  C14 UNL     1      -1.855  20.907  22.627  1.00  0.00     0.212 A 
HETATM    8  O1  UNL     1      -2.582  21.878  22.981  1.00  0.00    -0.285 OA
HETATM    9  C15 UNL     1      -1.089  20.155  23.606  1.00  0.00     0.055 A 
HETATM   10  C16 UNL     1      -0.298  19.096  23.235  1.00  0.00     0.099 A 
HETATM   11  N4  UNL     1       0.274  18.592  24.324  1.00  0.00    -0.355 N 
ATOM     12  H4  UNL     1       0.912  17.797  24.334  1.00  0.00     0.166 HD
HETATM   13  C17 UNL     1      -0.113  19.284  25.414  1.00  0.00     0.013 A 
HETATM   14  C18 UNL     1       0.314  19.022  26.818  1.00  0.00     0.068 C 
HETATM   15  C19 UNL     1      -0.971  20.274  24.973  1.00  0.00    -0.019 A 
HETATM   16  C26 UNL     1      -0.247  18.744  21.802  1.00  0.00     0.213 A 
HETATM   17  O3  UNL     1       0.469  17.795  21.502  1.00  0.00    -0.285 OA
ENDROOT
BRANCH   1  18
HETATM   18  C5  UNL     1      -0.647  18.595  18.580  1.00  0.00     0.065 C 
HETATM   19  C4  UNL     1      -0.969  17.295  18.049  1.00  0.00     0.134 A 
HETATM   20  N1  UNL     1      -1.678  17.003  16.948  1.00  0.00    -0.339 N 
HETATM   21  N6  UNL     1      -0.539  16.086  18.520  1.00  0.00    -0.210 N 
HETATM   22  C3  UNL     1      -1.698  15.661  16.725  1.00  0.00     0.058 A 
ATOM     23  H1  UNL     1      -2.139  17.695  16.357  1.00  0.00     0.167 HD
HETATM   24  C27 UNL     1      -0.973  15.081  17.727  1.00  0.00     0.065 A 
HETATM   25  C28 UNL     1      -0.684  13.633  17.974  1.00  0.00     0.073 C 
BRANCH  22  26
HETATM   26  C2  UNL     1      -2.380  15.001  15.630  1.00  0.00     0.021 C 
HETATM   27  C1  UNL     1      -1.985  13.966  14.961  1.00  0.00     0.013 C 
ENDBRANCH  22  26
BRANCH  21  28
HETATM   28  O4  UNL     1       0.227  15.915  19.638  1.00  0.00    -0.281 OA
ATOM     29  H4  UNL     1       1.126  15.609  19.638  1.00  0.00     0.245 HD
ENDBRANCH  21  28
ENDBRANCH   1  18
BRANCH   6  30
HETATM   30  C10 UNL     1      -2.463  20.694  17.805  1.00  0.00     0.231 C 
BRANCH  30  31
HETATM   31  N3  UNL     1      -3.770  20.352  17.353  1.00  0.00    -0.057 N 
HETATM   32  C11 UNL     1      -4.569  21.547  17.346  1.00  0.00     0.277 C 
HETATM   33  C12 UNL     1      -3.656  19.941  15.943  1.00  0.00     0.277 C 
HETATM   34  C13 UNL     1      -4.351  19.239  18.039  1.00  0.00     0.277 C 
ENDBRANCH  30  31
ENDBRANCH   6  30
BRANCH  15  35
HETATM   35  C20 UNL     1      -1.578  21.267  25.867  1.00  0.00     0.042 C 
BRANCH  35  36
HETATM   36  C21 UNL     1      -2.945  20.820  26.266  1.00  0.00     0.006 C 
BRANCH  36  37
HETATM   37  C22 UNL     1      -3.011  20.321  27.692  1.00  0.00     0.020 C 
BRANCH  37  38
HETATM   38  C23 UNL     1      -3.350  18.865  27.790  1.00  0.00     0.122 C 
BRANCH  38  39
HETATM   39  N5  UNL     1      -4.736  18.621  28.087  1.00  0.00    -0.361 N 
HETATM   40  C24 UNL     1      -5.396  17.536  27.481  1.00  0.00     0.213 C 
HETATM   41  C25 UNL     1      -6.823  17.293  27.792  1.00  0.00     0.117 C 
HETATM   42  O2  UNL     1      -4.774  16.768  26.669  1.00  0.00    -0.274 OA
ATOM     43  H5  UNL     1      -5.237  19.230  28.734  1.00  0.00     0.162 HD
ENDBRANCH  38  39
ENDBRANCH  37  38
ENDBRANCH  36  37
ENDBRANCH  35  36
ENDBRANCH  15  35
TORSDOF 10
ENDMDL
MODEL 2
REMARK VINA RESULT: -7.121218101      1.700      2.069
REMARK  10 active torsions:
REMARK  status: ('A' for Active; 'I' for Inactive)
REMARK    1  A    between atoms: C2_2  and  C3_3 
REMARK    2  A    between atoms: C5_7  and  C6_8 
REMARK    3  A    between atoms: C9_13  and  C10_14 
REMARK    4  A    between atoms: C10_14  and  N3_15 
REMARK    5  A    between atoms: C19_27  and  C20_28 
REMARK    6  A    between atoms: C20_28  and  C21_29 
REMARK    7  A    between atoms: C21_29  and  C22_30 
REMARK    8  A    between atoms: C22_30  and  C23_31 
REMARK    9  A    between atoms: C23_31  and  N5_32 
REMARK       I    between atoms: N5_32  and  C24_34 
REMARK   10  A    between atoms: N6_39  and  O4_40 
ROOT
HETATM    1  C6  UNL     1      -1.270  19.485  19.450  1.00  0.00     0.012 A 
HETATM    2  C7  UNL     1      -1.088  19.600  20.829  1.00  0.00     0.060 A 
HETATM    3  C8  UNL     1      -1.922  20.636  21.231  1.00  0.00     0.099 A 
HETATM    4  N2  UNL     1      -2.563  21.114  20.171  1.00  0.00    -0.350 N 
ATOM      5  H2  UNL     1      -3.235  21.880  20.206  1.00  0.00     0.166 HD
HETATM    6  C9  UNL     1      -2.223  20.471  19.061  1.00  0.00     0.067 A 
HETATM    7  C14 UNL     1      -1.962  21.010  22.640  1.00  0.00     0.212 A 
HETATM    8  O1  UNL     1      -2.725  21.952  22.994  1.00  0.00    -0.285 OA
HETATM    9  C15 UNL     1      -1.141  20.310  23.613  1.00  0.00     0.055 A 
HETATM   10  C16 UNL     1      -0.311  19.282  23.241  1.00  0.00     0.099 A 
HETATM   11  N4  UNL     1       0.307  18.823  24.325  1.00  0.00    -0.355 N 
ATOM     12  H4  UNL     1       0.981  18.058  24.333  1.00  0.00     0.166 HD
HETATM   13  C17 UNL     1      -0.087  19.516  25.412  1.00  0.00     0.013 A 
HETATM   14  C18 UNL     1       0.381  19.297  26.810  1.00  0.00     0.068 C 
HETATM   15  C19 UNL     1      -1.000  20.457  24.975  1.00  0.00    -0.019 A 
HETATM   16  C26 UNL     1      -0.275  18.909  21.813  1.00  0.00     0.213 A 
HETATM   17  O3  UNL     1       0.476  17.988  21.512  1.00  0.00    -0.285 OA
ENDROOT
BRANCH   1  18
HETATM   18  C5  UNL     1      -0.738  18.687  18.603  1.00  0.00     0.065 C 
HETATM   19  C4  UNL     1      -1.006  17.361  18.108  1.00  0.00     0.134 A 
HETATM   20  N1  UNL     1      -1.728  17.010  17.033  1.00  0.00    -0.339 N 
HETATM   21  N6  UNL     1      -0.500  16.187  18.590  1.00  0.00    -0.210 N 
HETATM   22  C3  UNL     1      -1.684  15.665  16.837  1.00  0.00     0.058 A 
ATOM     23  H1  UNL     1      -2.242  17.664  16.442  1.00  0.00     0.167 HD
HETATM   24  C27 UNL     1      -0.902  15.144  17.830  1.00  0.00     0.065 A 
HETATM   25  C28 UNL     1      -0.531  13.718  18.096  1.00  0.00     0.073 C 
BRANCH  22  26
HETATM   26  C2  UNL     1      -2.361  14.946  15.776  1.00  0.00     0.021 C 
HETATM   27  C1  UNL     1      -1.910  13.953  15.080  1.00  0.00     0.013 C 
ENDBRANCH  22  26
BRANCH  21  28
HETATM   28  O4  UNL     1       0.304  16.079  19.689  1.00  0.00    -0.281 OA
ATOM     29  H4  UNL     1       0.630  15.261  20.044  1.00  0.00     0.245 HD
ENDBRANCH  21  28
ENDBRANCH   1  18
BRANCH   6  30
HETATM   30  C10 UNL     1      -2.665  20.688  17.836  1.00  0.00     0.231 C 
BRANCH  30  31
HETATM   31  N3  UNL     1      -3.974  20.304  17.427  1.00  0.00    -0.057 N 
HETATM   32  C11 UNL     1      -4.819  21.466  17.478  1.00  0.00     0.277 C 
HETATM   33  C12 UNL     1      -3.900  19.927  16.005  1.00  0.00     0.277 C 
HETATM   34  C13 UNL     1      -4.484  19.154  18.109  1.00  0.00     0.277 C 
ENDBRANCH  30  31
ENDBRANCH   6  30
BRANCH  15  35
HETATM   35  C20 UNL     1      -1.632  21.437  25.866  1.00  0.00     0.042 C 
BRANCH  35  36
HETATM   36  C21 UNL     1      -2.949  20.915  26.339  1.00  0.00     0.006 C 
BRANCH  36  37
HETATM   37  C22 UNL     1      -4.067  21.922  26.201  1.00  0.00     0.020 C 
BRANCH  37  38
HETATM   38  C23 UNL     1      -5.293  21.354  25.552  1.00  0.00     0.122 C 
BRANCH  38  39
HETATM   39  N5  UNL     1      -5.495  21.823  24.208  1.00  0.00    -0.361 N 
HETATM   40  C24 UNL     1      -6.625  21.396  23.486  1.00  0.00     0.213 C 
HETATM   41  C25 UNL     1      -6.825  21.884  22.102  1.00  0.00     0.117 C 
HETATM   42  O2  UNL     1      -7.471  20.596  24.015  1.00  0.00    -0.274 OA
ATOM     43  H5  UNL     1      -4.824  22.462  23.781  1.00  0.00     0.162 HD
ENDBRANCH  38  39
ENDBRANCH  37  38
ENDBRANCH  36  37
ENDBRANCH  35  36
ENDBRANCH  15  35
TORSDOF 10
ENDMDL
MODEL 3
REMARK VINA RESULT: -7.101936170      6.746     10.881
REMARK  10 active torsions:
REMARK  status: ('A' for Active; 'I' for Inactive)
REMARK    1  A    between atoms: C2_2  and  C3_3 
REMARK    2  A    between atoms: C5_7  and  C6_8 
REMARK    3  A    between atoms: C9_13  and  C10_14 
REMARK    4  A    between atoms: C10_14  and  N3_15 
REMARK    5  A    between atoms: C19_27  and  C20_28 
REMARK    6  A    between atoms: C20_28  and  C21_29 
REMARK    7  A    between atoms: C21_29  and  C22_30 
REMARK    8  A    between atoms: C22_30  and  C23_31 
REMARK    9  A    between atoms: C23_31  and  N5_32 
REMARK       I    between atoms: N5_32  and  C24_34 
REMARK   10  A    between atoms: N6_39  and  O4_40 
ROOT
HETATM    1  C6  UNL     1       3.838  20.984  19.844  1.00  0.00     0.012 A 
HETATM    2  C7  UNL     1       3.814  21.529  18.558  1.00  0.00     0.060 A 
HETATM    3  C8  UNL     1       4.486  22.742  18.653  1.00  0.00     0.099 A 
HETATM    4  N2  UNL     1       4.887  22.918  19.906  1.00  0.00    -0.350 N 
ATOM      5  H2  UNL     1       5.405  23.735  20.231  1.00  0.00     0.166 HD
HETATM    6  C9  UNL     1       4.534  21.902  20.683  1.00  0.00     0.067 A 
HETATM    7  C14 UNL     1       4.635  23.567  17.461  1.00  0.00     0.212 A 
HETATM    8  O1  UNL     1       5.249  24.666  17.558  1.00  0.00    -0.285 OA
HETATM    9  C15 UNL     1       4.088  23.130  16.187  1.00  0.00     0.055 A 
HETATM   10  C16 UNL     1       3.422  21.935  16.068  1.00  0.00     0.099 A 
HETATM   11  N4  UNL     1       3.042  21.787  14.802  1.00  0.00    -0.355 N 
ATOM     12  H4  UNL     1       2.528  20.986  14.437  1.00  0.00     0.166 HD
HETATM   13  C17 UNL     1       3.436  22.850  14.072  1.00  0.00     0.013 A 
HETATM   14  C18 UNL     1       3.197  23.050  12.615  1.00  0.00     0.068 C 
HETATM   15  C19 UNL     1       4.095  23.703  14.935  1.00  0.00    -0.019 A 
HETATM   16  C26 UNL     1       3.275  21.104  17.279  1.00  0.00     0.213 A 
HETATM   17  O3  UNL     1       2.675  20.045  17.140  1.00  0.00    -0.285 OA
ENDROOT
BRANCH   1  18
HETATM   18  C5  UNL     1       3.360  19.886  20.292  1.00  0.00     0.065 C 
HETATM   19  C4  UNL     1       2.105  19.183  20.208  1.00  0.00     0.134 A 
HETATM   20  N1  UNL     1       1.739  18.247  19.319  1.00  0.00    -0.339 N 
HETATM   21  N6  UNL     1       1.056  19.269  21.081  1.00  0.00    -0.210 N 
HETATM   22  C3  UNL     1       0.505  17.754  19.614  1.00  0.00     0.058 A 
ATOM     23  H1  UNL     1       2.309  17.945  18.529  1.00  0.00     0.167 HD
HETATM   24  C27 UNL     1       0.074  18.407  20.735  1.00  0.00     0.065 A 
HETATM   25  C28 UNL     1      -1.216  18.263  21.479  1.00  0.00     0.073 C 
BRANCH  22  26
HETATM   26  C2  UNL     1      -0.198  16.740  18.856  1.00  0.00     0.021 C 
HETATM   27  C1  UNL     1      -0.869  16.894  17.760  1.00  0.00     0.013 C 
ENDBRANCH  22  26
BRANCH  21  28
HETATM   28  O4  UNL     1       1.007  20.108  22.157  1.00  0.00    -0.281 OA
ATOM     29  H4  UNL     1       1.002  21.057  22.104  1.00  0.00     0.245 HD
ENDBRANCH  21  28
ENDBRANCH   1  18
BRANCH   6  30
HETATM   30  C10 UNL     1       4.770  21.754  21.974  1.00  0.00     0.231 C 
BRANCH  30  31
HETATM   31  N3  UNL     1       4.042  22.475  22.962  1.00  0.00    -0.057 N 
HETATM   32  C11 UNL     1       3.860  21.617  24.101  1.00  0.00     0.277 C 
HETATM   33  C12 UNL     1       4.901  23.577  23.428  1.00  0.00     0.277 C 
HETATM   34  C13 UNL     1       2.848  23.092  22.472  1.00  0.00     0.277 C 
ENDBRANCH  30  31
ENDBRANCH   6  30
BRANCH  15  35
HETATM   35  C20 UNL     1       4.643  25.000  14.520  1.00  0.00     0.042 C 
BRANCH  35  36
HETATM   36  C21 UNL     1       6.125  24.897  14.365  1.00  0.00     0.006 C 
BRANCH  36  37
HETATM   37  C22 UNL     1       6.553  24.627  12.941  1.00  0.00     0.020 C 
BRANCH  37  38
HETATM   38  C23 UNL     1       7.507  23.478  12.822  1.00  0.00     0.122 C 
BRANCH  38  39
HETATM   39  N5  UNL     1       7.363  22.506  13.872  1.00  0.00    -0.361 N 
HETATM   40  C24 UNL     1       6.681  21.302  13.615  1.00  0.00     0.213 C 
HETATM   41  C25 UNL     1       6.537  20.307  14.702  1.00  0.00     0.117 C 
HETATM   42  O2  UNL     1       6.191  21.066  12.457  1.00  0.00    -0.274 OA
ATOM     43  H5  UNL     1       7.752  22.688  14.797  1.00  0.00     0.162 HD
ENDBRANCH  38  39
ENDBRANCH  37  38
ENDBRANCH  36  37
ENDBRANCH  35  36
ENDBRANCH  15  35
TORSDOF 10
ENDMDL
MODEL 4
REMARK VINA RESULT: -7.099597997      5.639      9.146
REMARK  10 active torsions:
REMARK  status: ('A' for Active; 'I' for Inactive)
REMARK    1  A    between atoms: C2_2  and  C3_3 
REMARK    2  A    between atoms: C5_7  and  C6_8 
REMARK    3  A    between atoms: C9_13  and  C10_14 
REMARK    4  A    between atoms: C10_14  and  N3_15 
REMARK    5  A    between atoms: C19_27  and  C20_28 
REMARK    6  A    between atoms: C20_28  and  C21_29 
REMARK    7  A    between atoms: C21_29  and  C22_30 
REMARK    8  A    between atoms: C22_30  and  C23_31 
REMARK    9  A    between atoms: C23_31  and  N5_32 
REMARK       I    between atoms: N5_32  and  C24_34 
REMARK   10  A    between atoms: N6_39  and  O4_40 
ROOT
HETATM    1  C6  UNL     1       3.401  21.730  18.176  1.00  0.00     0.012 A 
HETATM    2  C7  UNL     1       2.319  20.851  18.103  1.00  0.00     0.060 A 
HETATM    3  C8  UNL     1       2.365  20.104  19.274  1.00  0.00     0.099 A 
HETATM    4  N2  UNL     1       3.401  20.503  20.002  1.00  0.00    -0.350 N 
ATOM      5  H2  UNL     1       3.649  20.107  20.909  1.00  0.00     0.166 HD
HETATM    6  C9  UNL     1       4.074  21.479  19.407  1.00  0.00     0.067 A 
HETATM    7  C14 UNL     1       1.353  19.081  19.505  1.00  0.00     0.212 A 
HETATM    8  O1  UNL     1       1.403  18.409  20.573  1.00  0.00    -0.285 OA
HETATM    9  C15 UNL     1       0.307  18.842  18.524  1.00  0.00     0.055 A 
HETATM   10  C16 UNL     1       0.239  19.568  17.361  1.00  0.00     0.099 A 
HETATM   11  N4  UNL     1      -0.811  19.150  16.661  1.00  0.00    -0.355 N 
ATOM     12  H4  UNL     1      -1.094  19.521  15.755  1.00  0.00     0.166 HD
HETATM   13  C17 UNL     1      -1.448  18.164  17.325  1.00  0.00     0.013 A 
HETATM   14  C18 UNL     1      -2.667  17.441  16.864  1.00  0.00     0.068 C 
HETATM   15  C19 UNL     1      -0.750  17.961  18.500  1.00  0.00    -0.019 A 
HETATM   16  C26 UNL     1       1.268  20.603  17.133  1.00  0.00     0.213 A 
HETATM   17  O3  UNL     1       1.180  21.233  16.086  1.00  0.00    -0.285 OA
ENDROOT
BRANCH   1  18
HETATM   18  C5  UNL     1       3.803  22.625  17.355  1.00  0.00     0.065 C 
HETATM   19  C4  UNL     1       4.294  22.655  16.001  1.00  0.00     0.134 A 
HETATM   20  N1  UNL     1       3.593  22.832  14.871  1.00  0.00    -0.339 N 
HETATM   21  N6  UNL     1       5.599  22.593  15.600  1.00  0.00    -0.210 N 
HETATM   22  C3  UNL     1       4.419  22.883  13.791  1.00  0.00     0.058 A 
ATOM     23  H1  UNL     1       2.578  22.918  14.827  1.00  0.00     0.167 HD
HETATM   24  C27 UNL     1       5.694  22.729  14.259  1.00  0.00     0.065 A 
HETATM   25  C28 UNL     1       6.985  22.695  13.501  1.00  0.00     0.073 C 
BRANCH  22  26
HETATM   26  C2  UNL     1       3.997  23.053  12.416  1.00  0.00     0.021 C 
HETATM   27  C1  UNL     1       2.966  22.530  11.833  1.00  0.00     0.013 C 
ENDBRANCH  22  26
BRANCH  21  28
HETATM   28  O4  UNL     1       6.663  22.419  16.438  1.00  0.00    -0.281 OA
ATOM     29  H4  UNL     1       6.849  22.960  17.196  1.00  0.00     0.245 HD
ENDBRANCH  21  28
ENDBRANCH   1  18
BRANCH   6  30
HETATM   30  C10 UNL     1       5.150  22.103  19.849  1.00  0.00     0.231 C 
BRANCH  30  31
HETATM   31  N3  UNL     1       5.081  23.104  20.860  1.00  0.00    -0.057 N 
HETATM   32  C11 UNL     1       5.992  22.743  21.911  1.00  0.00     0.277 C 
HETATM   33  C12 UNL     1       5.610  24.352  20.284  1.00  0.00     0.277 C 
HETATM   34  C13 UNL     1       3.750  23.406  21.290  1.00  0.00     0.277 C 
ENDBRANCH  30  31
ENDBRANCH   6  30
BRANCH  15  35
HETATM   35  C20 UNL     1      -1.114  16.933  19.482  1.00  0.00     0.042 C 
BRANCH  35  36
HETATM   36  C21 UNL     1      -0.283  15.711  19.267  1.00  0.00     0.006 C 
BRANCH  36  37
HETATM   37  C22 UNL     1      -1.108  14.475  18.994  1.00  0.00     0.020 C 
BRANCH  37  38
HETATM   38  C23 UNL     1      -0.771  13.819  17.689  1.00  0.00     0.122 C 
BRANCH  38  39
HETATM   39  N5  UNL     1      -1.479  14.381  16.570  1.00  0.00    -0.361 N 
HETATM   40  C24 UNL     1      -1.607  13.635  15.384  1.00  0.00     0.213 C 
HETATM   41  C25 UNL     1      -2.336  14.222  14.237  1.00  0.00     0.117 C 
HETATM   42  O2  UNL     1      -1.100  12.464  15.294  1.00  0.00    -0.274 OA
ATOM     43  H5  UNL     1      -1.885  15.315  16.636  1.00  0.00     0.162 HD
ENDBRANCH  38  39
ENDBRANCH  37  38
ENDBRANCH  36  37
ENDBRANCH  35  36
ENDBRANCH  15  35
TORSDOF 10
ENDMDL
MODEL 5
REMARK VINA RESULT: -7.048300907      3.891      7.083
REMARK  10 active torsions:
REMARK  status: ('A' for Active; 'I' for Inactive)
REMARK    1  A    between atoms: C2_2  and  C3_3 
REMARK    2  A    between atoms: C5_7  and  C6_8 
REMARK    3  A    between atoms: C9_13  and  C10_14 
REMARK    4  A    between atoms: C10_14  and  N3_15 
REMARK    5  A    between atoms: C19_27  and  C20_28 
REMARK    6  A    between atoms: C20_28  and  C21_29 
REMARK    7  A    between atoms: C21_29  and  C22_30 
REMARK    8  A    between atoms: C22_30  and  C23_31 
REMARK    9  A    between atoms: C23_31  and  N5_32 
REMARK       I    between atoms: N5_32  and  C24_34 
REMARK   10  A    between atoms: N6_39  and  O4_40 
ROOT
HETATM    1  C6  UNL     1      -2.191  19.387  18.444  1.00  0.00     0.012 A 
HETATM    2  C7  UNL     1      -3.310  20.057  17.947  1.00  0.00     0.060 A 
HETATM    3  C8  UNL     1      -3.698  20.934  18.952  1.00  0.00     0.099 A 
HETATM    4  N2  UNL     1      -2.872  20.804  19.984  1.00  0.00    -0.350 N 
ATOM      5  H2  UNL     1      -2.947  21.341  20.848  1.00  0.00     0.166 HD
HETATM    6  C9  UNL     1      -1.938  19.890  19.753  1.00  0.00     0.067 A 
HETATM    7  C14 UNL     1      -4.856  21.793  18.739  1.00  0.00     0.212 A 
HETATM    8  O1  UNL     1      -5.199  22.588  19.658  1.00  0.00    -0.285 OA
HETATM    9  C15 UNL     1      -5.598  21.734  17.490  1.00  0.00     0.055 A 
HETATM   10  C16 UNL     1      -5.234  20.877  16.482  1.00  0.00     0.099 A 
HETATM   11  N4  UNL     1      -6.074  21.040  15.464  1.00  0.00    -0.355 N 
ATOM     12  H4  UNL     1      -6.031  20.527  14.584  1.00  0.00     0.166 HD
HETATM   13  C17 UNL     1      -6.990  21.982  15.764  1.00  0.00     0.013 A 
HETATM   14  C18 UNL     1      -8.097  22.443  14.879  1.00  0.00     0.068 C 
HETATM   15  C19 UNL     1      -6.701  22.426  17.040  1.00  0.00    -0.019 A 
HETATM   16  C26 UNL     1      -4.060  20.010  16.705  1.00  0.00     0.213 A 
HETATM   17  O3  UNL     1      -3.760  19.256  15.786  1.00  0.00    -0.285 OA
ENDROOT
BRANCH   1  18
HETATM   18  C5  UNL     1      -1.460  18.480  17.915  1.00  0.00     0.065 C 
HETATM   19  C4  UNL     1      -1.615  17.095  17.551  1.00  0.00     0.134 A 
HETATM   20  N1  UNL     1      -1.998  16.588  16.370  1.00  0.00    -0.339 N 
HETATM   21  N6  UNL     1      -1.315  16.006  18.322  1.00  0.00    -0.210 N 
HETATM   22  C3  UNL     1      -1.944  15.228  16.385  1.00  0.00     0.058 A 
ATOM     23  H1  UNL     1      -2.290  17.146  15.568  1.00  0.00     0.167 HD
HETATM   24  C27 UNL     1      -1.510  14.862  17.629  1.00  0.00     0.065 A 
HETATM   25  C28 UNL     1      -1.285  13.492  18.189  1.00  0.00     0.073 C 
BRANCH  22  26
HETATM   26  C2  UNL     1      -2.300  14.360  15.282  1.00  0.00     0.021 C 
HETATM   27  C1  UNL     1      -1.601  13.396  14.775  1.00  0.00     0.013 C 
ENDBRANCH  22  26
BRANCH  21  28
HETATM   28  O4  UNL     1      -0.878  16.064  19.614  1.00  0.00    -0.281 OA
ATOM     29  H4  UNL     1      -1.053  16.779  20.213  1.00  0.00     0.245 HD
ENDBRANCH  21  28
ENDBRANCH   1  18
BRANCH   6  30
HETATM   30  C10 UNL     1      -0.965  19.511  20.561  1.00  0.00     0.231 C 
BRANCH  30  31
HETATM   31  N3  UNL     1       0.276  20.206  20.627  1.00  0.00    -0.057 N 
HETATM   32  C11 UNL     1       0.466  20.657  21.978  1.00  0.00     0.277 C 
HETATM   33  C12 UNL     1       1.346  19.225  20.380  1.00  0.00     0.277 C 
HETATM   34  C13 UNL     1       0.433  21.215  19.624  1.00  0.00     0.277 C 
ENDBRANCH  30  31
ENDBRANCH   6  30
BRANCH  15  35
HETATM   35  C20 UNL     1      -7.505  23.433  17.742  1.00  0.00     0.042 C 
BRANCH  35  36
HETATM   36  C21 UNL     1      -8.772  22.815  18.235  1.00  0.00     0.006 C 
BRANCH  36  37
HETATM   37  C22 UNL     1      -8.639  22.218  19.617  1.00  0.00     0.020 C 
BRANCH  37  38
HETATM   38  C23 UNL     1      -8.711  20.721  19.620  1.00  0.00     0.122 C 
BRANCH  38  39
HETATM   39  N5  UNL     1      -9.130  20.168  18.360  1.00  0.00    -0.361 N 
HETATM   40  C24 UNL     1      -8.359  19.160  17.753  1.00  0.00     0.213 C 
HETATM   41  C25 UNL     1      -8.798  18.597  16.456  1.00  0.00     0.117 C 
HETATM   42  O2  UNL     1      -7.290  18.733  18.312  1.00  0.00    -0.274 OA
ATOM     43  H5  UNL     1      -9.982  20.504  17.910  1.00  0.00     0.162 HD
ENDBRANCH  38  39
ENDBRANCH  37  38
ENDBRANCH  36  37
ENDBRANCH  35  36
ENDBRANCH  15  35
TORSDOF 10
ENDMDL
