MODEL 1
REMARK VINA RESULT: -7.374503900      0.000      0.000
REMARK  11 active torsions:
REMARK  status: ('A' for Active; 'I' for Inactive)
REMARK    1  A    between atoms: C2_2  and  C4_4 
REMARK    2  A    between atoms: C4_4  and  N1_5 
REMARK    3  A    between atoms: C4_4  and  C16_26 
REMARK       I    between atoms: N1_5  and  C5_7 
REMARK    4  A    between atoms: C5_7  and  C6_9 
REMARK    5  A    between atoms: C6_9  and  C7_10 
REMARK    6  A    between atoms: C7_10  and  N2_11 
REMARK       I    between atoms: C8_13  and  N3_14 
REMARK       I    between atoms: C8_13  and  N4_20 
REMARK    7  A    between atoms: N3_14  and  C9_16 
REMARK    8  A    between atoms: N4_20  and  N5_22 
REMARK    9  A    between atoms: C16_26  and  C17_28 
REMARK   10  A    between atoms: C17_28  and  O3_29 
REMARK   11  A    between atoms: C17_28  and  N6_31 
ROOT
HETATM    1  C4  UNL     1      -1.353   4.068  21.544  1.00  0.00     0.166 C 
ENDROOT
BRANCH   1   2
HETATM    2  C2  UNL     1      -2.047   5.291  21.042  1.00  0.00     0.008 C 
HETATM    3  C1  UNL     1      -1.141   6.220  20.273  1.00  0.00     0.012 C 
HETATM    4  C3  UNL     1      -3.279   4.992  20.230  1.00  0.00     0.012 C 
ENDBRANCH   1   2
BRANCH   1   5
HETATM    5  N1  UNL     1      -1.644   3.022  20.551  1.00  0.00    -0.349 N 
HETATM    6  C5  UNL     1      -0.705   2.015  20.250  1.00  0.00     0.219 C 
HETATM    7  O1  UNL     1       0.408   2.055  20.880  1.00  0.00    -0.274 OA
ATOM      8  H1  UNL     1      -2.544   3.027  20.071  1.00  0.00     0.163 HD
BRANCH   6   9
HETATM    9  C6  UNL     1      -0.944   0.931  19.257  1.00  0.00     0.123 C 
BRANCH   9  10
HETATM   10  C7  UNL     1       0.378   0.593  18.612  1.00  0.00     0.147 C 
BRANCH  10  11
HETATM   11  N2  UNL     1       0.744  -0.786  18.682  1.00  0.00    -0.225 N 
HETATM   12  C8  UNL     1       0.782  -1.623  17.706  1.00  0.00     0.695 C 
HETATM   13  N3  UNL     1       1.184  -2.952  18.037  1.00  0.00    -0.217 N 
HETATM   14  N4  UNL     1       0.449  -1.272  16.373  1.00  0.00    -0.049 N 
ATOM     15  H3  UNL     1       0.631  -3.732  17.683  1.00  0.00     0.178 HD
ATOM     16  H4  UNL     1       0.711  -0.352  16.018  1.00  0.00     0.212 HD
ATOM     17  H2  UNL     1       1.003  -1.144  19.602  1.00  0.00     0.177 HD
BRANCH  13  18
HETATM   18  C9  UNL     1       2.347  -3.241  18.856  1.00  0.00     0.036 C 
HETATM   19  C10 UNL     1       3.402  -2.182  18.746  1.00  0.00     0.038 C 
HETATM   20  C11 UNL     1       2.986  -4.550  18.368  1.00  0.00     0.038 C 
HETATM   21  C12 UNL     1       1.935  -3.458  20.284  1.00  0.00     0.038 C 
ENDBRANCH  13  18
BRANCH  14  22
HETATM   22  N5  UNL     1      -0.238  -2.170  15.526  1.00  0.00     0.014 N 
HETATM   23  C13 UNL     1      -0.433  -1.517  14.234  1.00  0.00     0.302 C 
HETATM   24  C14 UNL     1       0.575  -3.348  15.275  1.00  0.00     0.302 C 
HETATM   25  C15 UNL     1      -1.535  -2.514  16.044  1.00  0.00     0.302 C 
ENDBRANCH  14  22
ENDBRANCH  10  11
ENDBRANCH   9  10
ENDBRANCH   6   9
ENDBRANCH   1   5
BRANCH   1  26
HETATM   26  C16 UNL     1      -1.847   3.613  22.894  1.00  0.00     0.224 C 
HETATM   27  O2  UNL     1      -3.032   3.249  22.918  1.00  0.00    -0.286 OA
BRANCH  26  28
HETATM   28  C17 UNL     1      -0.995   3.609  24.043  1.00  0.00     0.207 C 
BRANCH  28  29
HETATM   29  O3  UNL     1       0.041   4.429  23.960  1.00  0.00    -0.342 OA
ATOM     30  H3  UNL     1       0.733   4.130  23.381  1.00  0.00     0.219 HD
ENDBRANCH  28  29
BRANCH  28  31
HETATM   31  N6  UNL     1      -1.000   2.921  25.246  1.00  0.00    -0.257 N 
HETATM   32  C18 UNL     1      -2.144   3.032  26.142  1.00  0.00     0.128 A 
HETATM   33  C19 UNL     1      -1.525   3.818  27.343  1.00  0.00     0.044 A 
HETATM   34  C24 UNL     1      -2.762   4.167  26.736  1.00  0.00    -0.015 A 
HETATM   35  C20 UNL     1      -1.133   2.814  28.311  1.00  0.00    -0.013 C 
HETATM   36  C21 UNL     1      -0.184   1.883  28.085  1.00  0.00     0.072 C 
HETATM   37  C22 UNL     1       0.623   1.699  26.847  1.00  0.00     0.261 C 
HETATM   38  O4  UNL     1       1.775   1.270  26.918  1.00  0.00    -0.267 OA
HETATM   39  N7  UNL     1       0.039   2.030  25.562  1.00  0.00    -0.258 N 
HETATM   40  C23 UNL     1       0.627   1.245  24.464  1.00  0.00     0.181 C 
HETATM   41  C25 UNL     1      -2.874   5.574  26.185  1.00  0.00     0.018 C 
HETATM   42  C26 UNL     1      -3.998   3.873  27.621  1.00  0.00     0.018 C 
ENDBRANCH  28  31
ENDBRANCH  26  28
ENDBRANCH   1  26
TORSDOF 11
ENDMDL
MODEL 2
REMARK VINA RESULT: -7.225181329      1.046      2.717
REMARK  11 active torsions:
REMARK  status: ('A' for Active; 'I' for Inactive)
REMARK    1  A    between atoms: C2_2  and  C4_4 
REMARK    2  A    between atoms: C4_4  and  N1_5 
REMARK    3  A    between atoms: C4_4  and  C16_26 
REMARK       I    between atoms: N1_5  and  C5_7 
REMARK    4  A    between atoms: C5_7  and  C6_9 
REMARK    5  A    between atoms: C6_9  and  C7_10 
REMARK    6  A    between atoms: C7_10  and  N2_11 
REMARK       I    between atoms: C8_13  and  N3_14 
REMARK       I    between atoms: C8_13  and  N4_20 
REMARK    7  A    between atoms: N3_14  and  C9_16 
REMARK    8  A    between atoms: N4_20  and  N5_22 
REMARK    9  A    between atoms: C16_26  and  C17_28 
REMARK   10  A    between atoms: C17_28  and  O3_29 
REMARK   11  A    between atoms: C17_28  and  N6_31 
ROOT
HETATM    1  C4  UNL     1      -2.111   4.551  22.028  1.00  0.00     0.166 C 
ENDROOT
BRANCH   1   2
HETATM    2  C2  UNL     1      -3.201   5.443  21.531  1.00  0.00     0.008 C 
HETATM    3  C1  UNL     1      -2.694   6.630  20.752  1.00  0.00     0.012 C 
HETATM    4  C3  UNL     1      -4.252   4.719  20.732  1.00  0.00     0.012 C 
ENDBRANCH   1   2
BRANCH   1   5
HETATM    5  N1  UNL     1      -2.192   3.341  21.196  1.00  0.00    -0.349 N 
HETATM    6  C5  UNL     1      -1.029   2.690  20.735  1.00  0.00     0.219 C 
HETATM    7  O1  UNL     1       0.094   3.201  21.076  1.00  0.00    -0.274 OA
ATOM      8  H1  UNL     1      -3.107   2.967  20.946  1.00  0.00     0.163 HD
BRANCH   6   9
HETATM    9  C6  UNL     1      -1.047   1.462  19.892  1.00  0.00     0.123 C 
BRANCH   9  10
HETATM   10  C7  UNL     1       0.321   1.301  19.277  1.00  0.00     0.147 C 
BRANCH  10  11
HETATM   11  N2  UNL     1       0.417   0.278  18.285  1.00  0.00    -0.225 N 
HETATM   12  C8  UNL     1       0.840  -0.925  18.457  1.00  0.00     0.695 C 
HETATM   13  N3  UNL     1       0.837  -1.761  17.301  1.00  0.00    -0.217 N 
HETATM   14  N4  UNL     1       1.287  -1.415  19.711  1.00  0.00    -0.049 N 
ATOM     15  H3  UNL     1       1.670  -2.311  17.094  1.00  0.00     0.178 HD
ATOM     16  H4  UNL     1       0.813  -1.115  20.563  1.00  0.00     0.212 HD
ATOM     17  H2  UNL     1       0.119   0.527  17.342  1.00  0.00     0.177 HD
BRANCH  13  18
HETATM   18  C9  UNL     1      -0.303  -1.862  16.408  1.00  0.00     0.036 C 
HETATM   19  C10 UNL     1      -1.530  -1.211  16.968  1.00  0.00     0.038 C 
HETATM   20  C11 UNL     1      -0.645  -3.347  16.205  1.00  0.00     0.038 C 
HETATM   21  C12 UNL     1       0.046  -1.304  15.057  1.00  0.00     0.038 C 
ENDBRANCH  13  18
BRANCH  14  22
HETATM   22  N5  UNL     1       2.377  -2.309  19.804  1.00  0.00     0.014 N 
HETATM   23  C13 UNL     1       2.926  -2.218  21.155  1.00  0.00     0.302 C 
HETATM   24  C14 UNL     1       1.921  -3.678  19.635  1.00  0.00     0.302 C 
HETATM   25  C15 UNL     1       3.429  -1.976  18.881  1.00  0.00     0.302 C 
ENDBRANCH  14  22
ENDBRANCH  10  11
ENDBRANCH   9  10
ENDBRANCH   6   9
ENDBRANCH   1   5
BRANCH   1  26
HETATM   26  C16 UNL     1      -2.273   4.161  23.476  1.00  0.00     0.224 C 
HETATM   27  O2  UNL     1      -3.444   4.147  23.882  1.00  0.00    -0.286 OA
BRANCH  26  28
HETATM   28  C17 UNL     1      -1.147   3.836  24.296  1.00  0.00     0.207 C 
BRANCH  28  29
HETATM   29  O3  UNL     1      -0.029   4.461  23.966  1.00  0.00    -0.342 OA
ATOM     30  H3  UNL     1       0.359   4.168  23.150  1.00  0.00     0.219 HD
ENDBRANCH  28  29
BRANCH  28  31
HETATM   31  N6  UNL     1      -0.953   2.988  25.375  1.00  0.00    -0.257 N 
HETATM   32  C18 UNL     1      -1.878   3.020  26.501  1.00  0.00     0.128 A 
HETATM   33  C19 UNL     1      -0.972   3.606  27.633  1.00  0.00     0.044 A 
HETATM   34  C24 UNL     1      -2.281   4.085  27.352  1.00  0.00    -0.015 A 
HETATM   35  C20 UNL     1      -0.460   2.462  28.359  1.00  0.00    -0.013 C 
HETATM   36  C21 UNL     1       0.357   1.534  27.820  1.00  0.00     0.072 C 
HETATM   37  C22 UNL     1       0.878   1.491  26.426  1.00  0.00     0.261 C 
HETATM   38  O4  UNL     1       1.987   1.010  26.195  1.00  0.00    -0.267 OA
HETATM   39  N7  UNL     1       0.066   2.020  25.347  1.00  0.00    -0.258 N 
HETATM   40  C23 UNL     1       0.361   1.372  24.058  1.00  0.00     0.181 C 
HETATM   41  C25 UNL     1      -2.407   5.558  27.021  1.00  0.00     0.018 C 
HETATM   42  C26 UNL     1      -3.326   3.721  28.435  1.00  0.00     0.018 C 
ENDBRANCH  28  31
ENDBRANCH  26  28
ENDBRANCH   1  26
TORSDOF 11
ENDMDL
MODEL 3
REMARK VINA RESULT: -7.160289986      2.014      3.918
REMARK  11 active torsions:
REMARK  status: ('A' for Active; 'I' for Inactive)
REMARK    1  A    between atoms: C2_2  and  C4_4 
REMARK    2  A    between atoms: C4_4  and  N1_5 
REMARK    3  A    between atoms: C4_4  and  C16_26 
REMARK       I    between atoms: N1_5  and  C5_7 
REMARK    4  A    between atoms: C5_7  and  C6_9 
REMARK    5  A    between atoms: C6_9  and  C7_10 
REMARK    6  A    between atoms: C7_10  and  N2_11 
REMARK       I    between atoms: C8_13  and  N3_14 
REMARK       I    between atoms: C8_13  and  N4_20 
REMARK    7  A    between atoms: N3_14  and  C9_16 
REMARK    8  A    between atoms: N4_20  and  N5_22 
REMARK    9  A    between atoms: C16_26  and  C17_28 
REMARK   10  A    between atoms: C17_28  and  O3_29 
REMARK   11  A    between atoms: C17_28  and  N6_31 
ROOT
HETATM    1  C4  UNL     1      -2.025   4.242  21.937  1.00  0.00     0.166 C 
ENDROOT
BRANCH   1   2
HETATM    2  C2  UNL     1      -2.462   5.441  21.161  1.00  0.00     0.008 C 
HETATM    3  C1  UNL     1      -1.325   6.160  20.481  1.00  0.00     0.012 C 
HETATM    4  C3  UNL     1      -3.549   5.146  20.162  1.00  0.00     0.012 C 
ENDBRANCH   1   2
BRANCH   1   5
HETATM    5  N1  UNL     1      -2.114   3.117  20.994  1.00  0.00    -0.349 N 
HETATM    6  C5  UNL     1      -0.958   2.447  20.542  1.00  0.00     0.219 C 
HETATM    7  O1  UNL     1       0.165   2.864  20.992  1.00  0.00    -0.274 OA
ATOM      8  H1  UNL     1      -3.029   2.816  20.660  1.00  0.00     0.163 HD
BRANCH   6   9
HETATM    9  C6  UNL     1      -0.985   1.302  19.590  1.00  0.00     0.123 C 
BRANCH   9  10
HETATM   10  C7  UNL     1       0.376   1.201  18.947  1.00  0.00     0.147 C 
BRANCH  10  11
HETATM   11  N2  UNL     1       0.532   0.108  18.041  1.00  0.00    -0.225 N 
HETATM   12  C8  UNL     1       0.955  -1.073  18.324  1.00  0.00     0.695 C 
HETATM   13  N3  UNL     1       1.020  -1.993  17.235  1.00  0.00    -0.217 N 
HETATM   14  N4  UNL     1       1.340  -1.463  19.632  1.00  0.00    -0.049 N 
ATOM     15  H3  UNL     1       1.867  -2.546  17.113  1.00  0.00     0.178 HD
ATOM     16  H4  UNL     1       0.819  -1.106  20.434  1.00  0.00     0.212 HD
ATOM     17  H2  UNL     1       0.282   0.283  17.067  1.00  0.00     0.177 HD
BRANCH  13  18
HETATM   18  C9  UNL     1      -0.070  -2.174  16.293  1.00  0.00     0.036 C 
HETATM   19  C10 UNL     1      -1.395  -1.771  16.866  1.00  0.00     0.038 C 
HETATM   20  C11 UNL     1      -0.179  -3.666  15.940  1.00  0.00     0.038 C 
HETATM   21  C12 UNL     1       0.221  -1.441  15.015  1.00  0.00     0.038 C 
ENDBRANCH  13  18
BRANCH  14  22
HETATM   22  N5  UNL     1       2.430  -2.335  19.848  1.00  0.00     0.014 N 
HETATM   23  C13 UNL     1       2.851  -2.200  21.241  1.00  0.00     0.302 C 
HETATM   24  C14 UNL     1       2.013  -3.716  19.675  1.00  0.00     0.302 C 
HETATM   25  C15 UNL     1       3.557  -2.006  19.017  1.00  0.00     0.302 C 
ENDBRANCH  14  22
ENDBRANCH  10  11
ENDBRANCH   9  10
ENDBRANCH   6   9
ENDBRANCH   1   5
BRANCH   1  26
HETATM   26  C16 UNL     1      -2.901   3.952  23.130  1.00  0.00     0.224 C 
HETATM   27  O2  UNL     1      -3.962   4.592  23.163  1.00  0.00    -0.286 OA
BRANCH  26  28
HETATM   28  C17 UNL     1      -2.517   3.005  24.132  1.00  0.00     0.207 C 
BRANCH  28  29
HETATM   29  O3  UNL     1      -2.698   3.420  25.375  1.00  0.00    -0.342 OA
ATOM     30  H3  UNL     1      -3.241   2.848  25.905  1.00  0.00     0.219 HD
ENDBRANCH  28  29
BRANCH  28  31
HETATM   31  N6  UNL     1      -1.978   1.730  24.097  1.00  0.00    -0.257 N 
HETATM   32  C18 UNL     1      -0.784   1.424  24.875  1.00  0.00     0.128 A 
HETATM   33  C19 UNL     1       0.274   1.196  23.747  1.00  0.00     0.044 A 
HETATM   34  C24 UNL     1       0.507   2.019  24.882  1.00  0.00    -0.015 A 
HETATM   35  C20 UNL     1       0.311  -0.235  23.525  1.00  0.00    -0.013 C 
HETATM   36  C21 UNL     1      -0.734  -0.949  23.058  1.00  0.00     0.072 C 
HETATM   37  C22 UNL     1      -2.084  -0.440  22.691  1.00  0.00     0.261 C 
HETATM   38  O4  UNL     1      -2.726  -0.981  21.791  1.00  0.00    -0.267 OA
HETATM   39  N7  UNL     1      -2.633   0.696  23.406  1.00  0.00    -0.258 N 
HETATM   40  C23 UNL     1      -4.105   0.687  23.420  1.00  0.00     0.181 C 
HETATM   41  C25 UNL     1       0.880   3.462  24.607  1.00  0.00     0.018 C 
HETATM   42  C26 UNL     1       1.518   1.422  25.891  1.00  0.00     0.018 C 
ENDBRANCH  28  31
ENDBRANCH  26  28
ENDBRANCH   1  26
TORSDOF 11
ENDMDL
MODEL 4
REMARK VINA RESULT: -7.117516407      1.990      2.982
REMARK  11 active torsions:
REMARK  status: ('A' for Active; 'I' for Inactive)
REMARK    1  A    between atoms: C2_2  and  C4_4 
REMARK    2  A    between atoms: C4_4  and  N1_5 
REMARK    3  A    between atoms: C4_4  and  C16_26 
REMARK       I    between atoms: N1_5  and  C5_7 
REMARK    4  A    between atoms: C5_7  and  C6_9 
REMARK    5  A    between atoms: C6_9  and  C7_10 
REMARK    6  A    between atoms: C7_10  and  N2_11 
REMARK       I    between atoms: C8_13  and  N3_14 
REMARK       I    between atoms: C8_13  and  N4_20 
REMARK    7  A    between atoms: N3_14  and  C9_16 
REMARK    8  A    between atoms: N4_20  and  N5_22 
REMARK    9  A    between atoms: C16_26  and  C17_28 
REMARK   10  A    between atoms: C17_28  and  O3_29 
REMARK   11  A    between atoms: C17_28  and  N6_31 
ROOT
HETATM    1  C4  UNL     1      -2.065   4.408  21.864  1.00  0.00     0.166 C 
ENDROOT
BRANCH   1   2
HETATM    2  C2  UNL     1      -2.522   5.596  21.081  1.00  0.00     0.008 C 
HETATM    3  C1  UNL     1      -1.392   6.356  20.434  1.00  0.00     0.012 C 
HETATM    4  C3  UNL     1      -3.572   5.269  20.053  1.00  0.00     0.012 C 
ENDBRANCH   1   2
BRANCH   1   5
HETATM    5  N1  UNL     1      -2.117   3.281  20.922  1.00  0.00    -0.349 N 
HETATM    6  C5  UNL     1      -0.950   2.576  20.558  1.00  0.00     0.219 C 
HETATM    7  O1  UNL     1       0.149   2.965  21.086  1.00  0.00    -0.274 OA
ATOM      8  H1  UNL     1      -3.013   3.003  20.523  1.00  0.00     0.163 HD
BRANCH   6   9
HETATM    9  C6  UNL     1      -0.939   1.427  19.612  1.00  0.00     0.123 C 
BRANCH   9  10
HETATM   10  C7  UNL     1       0.497   1.135  19.251  1.00  0.00     0.147 C 
BRANCH  10  11
HETATM   11  N2  UNL     1       0.904  -0.219  19.455  1.00  0.00    -0.225 N 
HETATM   12  C8  UNL     1       0.976  -1.143  18.563  1.00  0.00     0.695 C 
HETATM   13  N3  UNL     1       1.414  -2.422  19.022  1.00  0.00    -0.217 N 
HETATM   14  N4  UNL     1       0.645  -0.931  17.200  1.00  0.00    -0.049 N 
ATOM     15  H3  UNL     1       0.888  -3.248  18.740  1.00  0.00     0.178 HD
ATOM     16  H4  UNL     1       0.882  -0.041  16.761  1.00  0.00     0.212 HD
ATOM     17  H2  UNL     1       1.165  -0.479  20.406  1.00  0.00     0.177 HD
BRANCH  13  18
HETATM   18  C9  UNL     1       2.578  -2.595  19.872  1.00  0.00     0.036 C 
HETATM   19  C10 UNL     1       3.688  -1.651  19.523  1.00  0.00     0.038 C 
HETATM   20  C11 UNL     1       3.130  -4.015  19.674  1.00  0.00     0.038 C 
HETATM   21  C12 UNL     1       2.187  -2.473  21.317  1.00  0.00     0.038 C 
ENDBRANCH  13  18
BRANCH  14  22
HETATM   22  N5  UNL     1      -0.007  -1.926  16.439  1.00  0.00     0.014 N 
HETATM   23  C13 UNL     1      -0.161  -1.426  15.075  1.00  0.00     0.302 C 
HETATM   24  C14 UNL     1       0.821  -3.117  16.351  1.00  0.00     0.302 C 
HETATM   25  C15 UNL     1      -1.320  -2.221  16.947  1.00  0.00     0.302 C 
ENDBRANCH  14  22
ENDBRANCH  10  11
ENDBRANCH   9  10
ENDBRANCH   6   9
ENDBRANCH   1   5
BRANCH   1  26
HETATM   26  C16 UNL     1      -2.948   4.099  23.047  1.00  0.00     0.224 C 
HETATM   27  O2  UNL     1      -4.030   4.703  23.060  1.00  0.00    -0.286 OA
BRANCH  26  28
HETATM   28  C17 UNL     1      -2.546   3.175  24.062  1.00  0.00     0.207 C 
BRANCH  28  29
HETATM   29  O3  UNL     1      -2.676   3.629  25.299  1.00  0.00    -0.342 OA
ATOM     30  H3  UNL     1      -2.302   4.490  25.443  1.00  0.00     0.219 HD
ENDBRANCH  28  29
BRANCH  28  31
HETATM   31  N6  UNL     1      -2.031   1.889  24.047  1.00  0.00    -0.257 N 
HETATM   32  C18 UNL     1      -0.857   1.567  24.849  1.00  0.00     0.128 A 
HETATM   33  C19 UNL     1       0.216   1.310  23.741  1.00  0.00     0.044 A 
HETATM   34  C24 UNL     1       0.445   2.138  24.874  1.00  0.00    -0.015 A 
HETATM   35  C20 UNL     1       0.229  -0.123  23.531  1.00  0.00    -0.013 C 
HETATM   36  C21 UNL     1      -0.820  -0.821  23.050  1.00  0.00     0.072 C 
HETATM   37  C22 UNL     1      -2.154  -0.289  22.656  1.00  0.00     0.261 C 
HETATM   38  O4  UNL     1      -2.790  -0.824  21.748  1.00  0.00    -0.267 OA
HETATM   39  N7  UNL     1      -2.693   0.863  23.352  1.00  0.00    -0.258 N 
HETATM   40  C23 UNL     1      -4.166   0.882  23.340  1.00  0.00     0.181 C 
HETATM   41  C25 UNL     1       0.850   3.571  24.595  1.00  0.00     0.018 C 
HETATM   42  C26 UNL     1       1.426   1.529  25.905  1.00  0.00     0.018 C 
ENDBRANCH  28  31
ENDBRANCH  26  28
ENDBRANCH   1  26
TORSDOF 11
ENDMDL
MODEL 5
REMARK VINA RESULT: -7.113014031      1.022      2.397
REMARK  11 active torsions:
REMARK  status: ('A' for Active; 'I' for Inactive)
REMARK    1  A    between atoms: C2_2  and  C4_4 
REMARK    2  A    between atoms: C4_4  and  N1_5 
REMARK    3  A    between atoms: C4_4  and  C16_26 
REMARK       I    between atoms: N1_5  and  C5_7 
REMARK    4  A    between atoms: C5_7  and  C6_9 
REMARK    5  A    between atoms: C6_9  and  C7_10 
REMARK    6  A    between atoms: C7_10  and  N2_11 
REMARK       I    between atoms: C8_13  and  N3_14 
REMARK       I    between atoms: C8_13  and  N4_20 
REMARK    7  A    between atoms: N3_14  and  C9_16 
REMARK    8  A    between atoms: N4_20  and  N5_22 
REMARK    9  A    between atoms: C16_26  and  C17_28 
REMARK   10  A    between atoms: C17_28  and  O3_29 
REMARK   11  A    between atoms: C17_28  and  N6_31 
ROOT
HETATM    1  C4  UNL     1      -1.374   4.073  21.598  1.00  0.00     0.166 C 
ENDROOT
BRANCH   1   2
HETATM    2  C2  UNL     1      -2.141   5.261  21.116  1.00  0.00     0.008 C 
HETATM    3  C1  UNL     1      -1.294   6.254  20.361  1.00  0.00     0.012 C 
HETATM    4  C3  UNL     1      -3.355   4.902  20.302  1.00  0.00     0.012 C 
ENDBRANCH   1   2
BRANCH   1   5
HETATM    5  N1  UNL     1      -1.679   3.001  20.637  1.00  0.00    -0.349 N 
HETATM    6  C5  UNL     1      -0.707   2.046  20.274  1.00  0.00     0.219 C 
HETATM    7  O1  UNL     1       0.445   2.156  20.818  1.00  0.00    -0.274 OA
ATOM      8  H1  UNL     1      -2.610   2.949  20.226  1.00  0.00     0.163 HD
BRANCH   6   9
HETATM    9  C6  UNL     1      -0.957   0.938  19.310  1.00  0.00     0.123 C 
BRANCH   9  10
HETATM   10  C7  UNL     1       0.351   0.607  18.634  1.00  0.00     0.147 C 
BRANCH  10  11
HETATM   11  N2  UNL     1       0.732  -0.768  18.704  1.00  0.00    -0.225 N 
HETATM   12  C8  UNL     1       0.777  -1.605  17.729  1.00  0.00     0.695 C 
HETATM   13  N3  UNL     1       1.193  -2.930  18.060  1.00  0.00    -0.217 N 
HETATM   14  N4  UNL     1       0.440  -1.258  16.396  1.00  0.00    -0.049 N 
ATOM     15  H3  UNL     1       0.648  -3.715  17.707  1.00  0.00     0.178 HD
ATOM     16  H4  UNL     1       0.691  -0.336  16.040  1.00  0.00     0.212 HD
ATOM     17  H2  UNL     1       0.995  -1.122  19.624  1.00  0.00     0.177 HD
BRANCH  13  18
HETATM   18  C9  UNL     1       2.360  -3.206  18.879  1.00  0.00     0.036 C 
HETATM   19  C10 UNL     1       3.404  -2.137  18.766  1.00  0.00     0.038 C 
HETATM   20  C11 UNL     1       3.011  -4.510  18.392  1.00  0.00     0.038 C 
HETATM   21  C12 UNL     1       1.952  -3.425  20.307  1.00  0.00     0.038 C 
ENDBRANCH  13  18
BRANCH  14  22
HETATM   22  N5  UNL     1      -0.239  -2.164  15.550  1.00  0.00     0.014 N 
HETATM   23  C13 UNL     1      -0.421  -1.523  14.250  1.00  0.00     0.302 C 
HETATM   24  C14 UNL     1       0.576  -3.344  15.318  1.00  0.00     0.302 C 
HETATM   25  C15 UNL     1      -1.542  -2.503  16.057  1.00  0.00     0.302 C 
ENDBRANCH  14  22
ENDBRANCH  10  11
ENDBRANCH   9  10
ENDBRANCH   6   9
ENDBRANCH   1   5
BRANCH   1  26
HETATM   26  C16 UNL     1      -1.777   3.623  22.979  1.00  0.00     0.224 C 
HETATM   27  O2  UNL     1      -2.897   3.095  23.047  1.00  0.00    -0.286 OA
BRANCH  26  28
HETATM   28  C17 UNL     1      -0.915   3.798  24.107  1.00  0.00     0.207 C 
BRANCH  28  29
HETATM   29  O3  UNL     1       0.199   4.464  23.848  1.00  0.00    -0.342 OA
ATOM     30  H3  UNL     1       0.949   3.915  23.650  1.00  0.00     0.219 HD
ENDBRANCH  28  29
BRANCH  28  31
HETATM   31  N6  UNL     1      -0.975   3.412  25.436  1.00  0.00    -0.257 N 
HETATM   32  C18 UNL     1       0.119   2.648  26.022  1.00  0.00     0.128 A 
HETATM   33  C19 UNL     1      -0.563   1.263  26.267  1.00  0.00     0.044 A 
HETATM   34  C24 UNL     1       0.705   1.410  25.642  1.00  0.00    -0.015 A 
HETATM   35  C20 UNL     1      -1.007   1.281  27.645  1.00  0.00    -0.013 C 
HETATM   36  C21 UNL     1      -1.944   2.126  28.122  1.00  0.00     0.072 C 
HETATM   37  C22 UNL     1      -2.684   3.173  27.365  1.00  0.00     0.261 C 
HETATM   38  O4  UNL     1      -3.838   3.464  27.679  1.00  0.00    -0.267 OA
HETATM   39  N7  UNL     1      -2.031   3.844  26.258  1.00  0.00    -0.258 N 
HETATM   40  C23 UNL     1      -2.560   5.201  26.038  1.00  0.00     0.181 C 
HETATM   41  C25 UNL     1       0.848   0.824  24.252  1.00  0.00     0.018 C 
HETATM   42  C26 UNL     1       1.891   0.931  26.514  1.00  0.00     0.018 C 
ENDBRANCH  28  31
ENDBRANCH  26  28
ENDBRANCH   1  26
TORSDOF 11
ENDMDL
