MODEL 1
REMARK VINA RESULT: -7.131172221      0.000      0.000
REMARK  12 active torsions:
REMARK  status: ('A' for Active; 'I' for Inactive)
REMARK    1  A    between atoms: C3_3  and  C17_29 
REMARK    2  A    between atoms: C4_4  and  C5_5 
REMARK       I    between atoms: C5_5  and  N1_7 
REMARK    3  A    between atoms: N1_7  and  C6_9 
REMARK    4  A    between atoms: C6_9  and  C7_10 
REMARK    5  A    between atoms: C6_9  and  C8_18 
REMARK    6  A    between atoms: C7_10  and  N2_11 
REMARK    7  A    between atoms: N2_11  and  N3_13 
REMARK    8  A    between atoms: C8_18  and  C9_19 
REMARK    9  A    between atoms: C17_29  and  O2_30 
REMARK   10  A    between atoms: C17_29  and  C18_32 
REMARK   11  A    between atoms: C18_32  and  S1_33 
REMARK   12  A    between atoms: C20_35  and  C21_36 
ROOT
HETATM    1  C1  UNL     1      44.721  25.197  47.901  1.00  0.00     0.017 C 
HETATM    2  C2  UNL     1      44.257  24.667  48.892  1.00  0.00    -0.079 C 
HETATM    3  C3  UNL     1      43.754  24.017  50.057  1.00  0.00     0.029 C 
HETATM    4  C4  UNL     1      42.714  24.259  50.776  1.00  0.00     0.092 C 
ENDROOT
BRANCH   3   5
HETATM    5  C17 UNL     1      44.642  22.840  50.487  1.00  0.00     0.170 C 
BRANCH   5   6
HETATM    6  O2  UNL     1      44.858  22.043  49.390  1.00  0.00    -0.389 OA
ATOM      7  H2  UNL     1      45.731  22.222  49.061  1.00  0.00     0.210 HD
ENDBRANCH   5   6
BRANCH   5   8
HETATM    8  C18 UNL     1      43.833  22.136  51.555  1.00  0.00     0.129 C 
BRANCH   8   9
HETATM    9  S1  UNL     1      44.609  20.658  52.079  1.00  0.00    -0.082 SA
HETATM   10  C19 UNL     1      44.046  19.159  51.328  1.00  0.00     0.134 C 
HETATM   11  C20 UNL     1      45.538  18.832  51.462  1.00  0.00     0.236 C 
HETATM   12  O4  UNL     1      45.795  20.128  51.022  1.00  0.00    -0.316 OA
BRANCH  11  13
HETATM   13  C21 UNL     1      45.929  18.652  52.866  1.00  0.00     0.262 C 
HETATM   14  N6  UNL     1      45.317  17.726  53.749  1.00  0.00    -0.060 NA
HETATM   15  O3  UNL     1      46.869  19.366  53.317  1.00  0.00    -0.274 OA
ENDBRANCH  11  13
ENDBRANCH   8   9
ENDBRANCH   5   8
ENDBRANCH   3   5
BRANCH   4  16
HETATM   16  C5  UNL     1      41.675  25.257  50.691  1.00  0.00     0.242 C 
HETATM   17  O1  UNL     1      40.670  24.939  49.934  1.00  0.00    -0.269 OA
HETATM   18  N1  UNL     1      41.605  26.492  51.294  1.00  0.00    -0.351 N 
ATOM     19  H1  UNL     1      42.416  26.728  51.868  1.00  0.00     0.163 HD
BRANCH  18  20
HETATM   20  C6  UNL     1      40.599  27.493  51.257  1.00  0.00     0.108 C 
BRANCH  20  21
HETATM   21  C7  UNL     1      40.657  28.505  50.154  1.00  0.00     0.166 C 
BRANCH  21  22
HETATM   22  N2  UNL     1      39.736  28.232  49.093  1.00  0.00    -0.321 N 
ATOM     23  H2  UNL     1      39.837  28.656  48.171  1.00  0.00     0.181 HD
BRANCH  22  24
HETATM   24  N3  UNL     1      38.682  27.342  49.396  1.00  0.00    -0.254 N 
HETATM   25  N4  UNL     1      37.495  27.693  49.160  1.00  0.00    -0.331 N 
ATOM     26  H42 UNL     1      37.315  28.611  48.755  1.00  0.00     0.178 HD
ATOM     27  H41 UNL     1      36.733  27.051  49.378  1.00  0.00     0.178 HD
ATOM     28  H3  UNL     1      38.879  26.427  49.800  1.00  0.00     0.207 HD
ENDBRANCH  22  24
ENDBRANCH  21  22
ENDBRANCH  20  21
BRANCH  20  29
HETATM   29  C8  UNL     1      40.408  28.198  52.572  1.00  0.00     0.067 C 
BRANCH  29  30
HETATM   30  C9  UNL     1      39.235  27.672  53.295  1.00  0.00    -0.028 A 
HETATM   31  C10 UNL     1      38.005  28.305  53.301  1.00  0.00     0.096 A 
HETATM   32  N5  UNL     1      37.160  27.584  54.039  1.00  0.00    -0.365 N 
HETATM   33  C11 UNL     1      37.798  26.505  54.512  1.00  0.00     0.042 A 
ATOM     34  H5  UNL     1      36.182  27.817  54.215  1.00  0.00     0.165 HD
HETATM   35  C12 UNL     1      37.409  25.444  55.313  1.00  0.00     0.030 A 
HETATM   36  C16 UNL     1      39.117  26.535  54.056  1.00  0.00    -0.002 A 
HETATM   37  C13 UNL     1      38.275  24.447  55.655  1.00  0.00     0.002 A 
HETATM   38  C14 UNL     1      39.570  24.489  55.200  1.00  0.00     0.001 A 
HETATM   39  C15 UNL     1      39.997  25.543  54.391  1.00  0.00     0.014 A 
ENDBRANCH  29  30
ENDBRANCH  20  29
ENDBRANCH  18  20
ENDBRANCH   4  16
TORSDOF 12
ENDMDL
MODEL 2
REMARK VINA RESULT: -6.911926235      2.591      4.542
REMARK  12 active torsions:
REMARK  status: ('A' for Active; 'I' for Inactive)
REMARK    1  A    between atoms: C3_3  and  C17_29 
REMARK    2  A    between atoms: C4_4  and  C5_5 
REMARK       I    between atoms: C5_5  and  N1_7 
REMARK    3  A    between atoms: N1_7  and  C6_9 
REMARK    4  A    between atoms: C6_9  and  C7_10 
REMARK    5  A    between atoms: C6_9  and  C8_18 
REMARK    6  A    between atoms: C7_10  and  N2_11 
REMARK    7  A    between atoms: N2_11  and  N3_13 
REMARK    8  A    between atoms: C8_18  and  C9_19 
REMARK    9  A    between atoms: C17_29  and  O2_30 
REMARK   10  A    between atoms: C17_29  and  C18_32 
REMARK   11  A    between atoms: C18_32  and  S1_33 
REMARK   12  A    between atoms: C20_35  and  C21_36 
ROOT
HETATM    1  C1  UNL     1      41.338  24.409  50.758  1.00  0.00     0.017 C 
HETATM    2  C2  UNL     1      41.981  24.265  51.779  1.00  0.00    -0.079 C 
HETATM    3  C3  UNL     1      42.773  24.079  52.951  1.00  0.00     0.029 C 
HETATM    4  C4  UNL     1      42.545  24.384  54.180  1.00  0.00     0.092 C 
ENDROOT
BRANCH   3   5
HETATM    5  C17 UNL     1      44.116  23.404  52.635  1.00  0.00     0.170 C 
BRANCH   5   6
HETATM    6  O2  UNL     1      44.948  24.344  52.079  1.00  0.00    -0.389 OA
ATOM      7  H2  UNL     1      45.650  23.889  51.629  1.00  0.00     0.210 HD
ENDBRANCH   5   6
BRANCH   5   8
HETATM    8  C18 UNL     1      43.757  22.307  51.656  1.00  0.00     0.129 C 
BRANCH   8   9
HETATM    9  S1  UNL     1      44.542  20.798  52.067  1.00  0.00    -0.082 SA
HETATM   10  C19 UNL     1      44.010  19.361  51.183  1.00  0.00     0.134 C 
HETATM   11  C20 UNL     1      45.503  19.040  51.315  1.00  0.00     0.236 C 
HETATM   12  O4  UNL     1      45.751  20.370  50.989  1.00  0.00    -0.316 OA
BRANCH  11  13
HETATM   13  C21 UNL     1      45.874  18.747  52.704  1.00  0.00     0.262 C 
HETATM   14  N6  UNL     1      45.232  17.772  53.510  1.00  0.00    -0.060 NA
HETATM   15  O3  UNL     1      46.825  19.404  53.217  1.00  0.00    -0.274 OA
ENDBRANCH  11  13
ENDBRANCH   8   9
ENDBRANCH   5   8
ENDBRANCH   3   5
BRANCH   4  16
HETATM   16  C5  UNL     1      41.429  25.017  54.842  1.00  0.00     0.242 C 
HETATM   17  O1  UNL     1      41.584  26.282  55.087  1.00  0.00    -0.269 OA
HETATM   18  N1  UNL     1      40.236  24.467  55.249  1.00  0.00    -0.351 N 
ATOM     19  H1  UNL     1      40.146  23.468  55.064  1.00  0.00     0.163 HD
BRANCH  18  20
HETATM   20  C6  UNL     1      39.107  25.052  55.881  1.00  0.00     0.108 C 
BRANCH  20  21
HETATM   21  C7  UNL     1      38.445  24.285  56.985  1.00  0.00     0.166 C 
BRANCH  21  22
HETATM   22  N2  UNL     1      37.057  24.036  56.742  1.00  0.00    -0.321 N 
ATOM     23  H2  UNL     1      36.677  23.986  55.797  1.00  0.00     0.181 HD
BRANCH  22  24
HETATM   24  N3  UNL     1      36.245  23.863  57.885  1.00  0.00    -0.254 N 
HETATM   25  N4  UNL     1      35.363  22.962  57.881  1.00  0.00    -0.331 N 
ATOM     26  H42 UNL     1      35.250  22.375  57.055  1.00  0.00     0.178 HD
ATOM     27  H41 UNL     1      34.776  22.837  58.705  1.00  0.00     0.178 HD
ATOM     28  H3  UNL     1      36.370  24.459  58.703  1.00  0.00     0.207 HD
ENDBRANCH  22  24
ENDBRANCH  21  22
ENDBRANCH  20  21
BRANCH  20  29
HETATM   29  C8  UNL     1      38.062  25.534  54.913  1.00  0.00     0.067 C 
BRANCH  29  30
HETATM   30  C9  UNL     1      38.275  26.949  54.557  1.00  0.00    -0.028 A 
HETATM   31  C10 UNL     1      37.973  27.996  55.408  1.00  0.00     0.096 A 
HETATM   32  N5  UNL     1      38.279  29.142  54.798  1.00  0.00    -0.365 N 
HETATM   33  C11 UNL     1      38.769  28.875  53.580  1.00  0.00     0.042 A 
ATOM     34  H5  UNL     1      38.159  30.074  55.195  1.00  0.00     0.165 HD
HETATM   35  C12 UNL     1      39.235  29.670  52.546  1.00  0.00     0.030 A 
HETATM   36  C16 UNL     1      38.778  27.491  53.400  1.00  0.00    -0.002 A 
HETATM   37  C13 UNL     1      39.694  29.135  51.378  1.00  0.00     0.002 A 
HETATM   38  C14 UNL     1      39.698  27.772  51.214  1.00  0.00     0.001 A 
HETATM   39  C15 UNL     1      39.235  26.939  52.235  1.00  0.00     0.014 A 
ENDBRANCH  29  30
ENDBRANCH  20  29
ENDBRANCH  18  20
ENDBRANCH   4  16
TORSDOF 12
ENDMDL
MODEL 3
REMARK VINA RESULT: -6.794110124      2.982      4.678
REMARK  12 active torsions:
REMARK  status: ('A' for Active; 'I' for Inactive)
REMARK    1  A    between atoms: C3_3  and  C17_29 
REMARK    2  A    between atoms: C4_4  and  C5_5 
REMARK       I    between atoms: C5_5  and  N1_7 
REMARK    3  A    between atoms: N1_7  and  C6_9 
REMARK    4  A    between atoms: C6_9  and  C7_10 
REMARK    5  A    between atoms: C6_9  and  C8_18 
REMARK    6  A    between atoms: C7_10  and  N2_11 
REMARK    7  A    between atoms: N2_11  and  N3_13 
REMARK    8  A    between atoms: C8_18  and  C9_19 
REMARK    9  A    between atoms: C17_29  and  O2_30 
REMARK   10  A    between atoms: C17_29  and  C18_32 
REMARK   11  A    between atoms: C18_32  and  S1_33 
REMARK   12  A    between atoms: C20_35  and  C21_36 
ROOT
HETATM    1  C1  UNL     1      41.332  24.472  50.652  1.00  0.00     0.017 C 
HETATM    2  C2  UNL     1      42.204  24.281  51.478  1.00  0.00    -0.079 C 
HETATM    3  C3  UNL     1      43.256  24.041  52.410  1.00  0.00     0.029 C 
HETATM    4  C4  UNL     1      43.349  24.311  53.665  1.00  0.00     0.092 C 
ENDROOT
BRANCH   3   5
HETATM    5  C17 UNL     1      44.458  23.346  51.753  1.00  0.00     0.170 C 
BRANCH   5   6
HETATM    6  O2  UNL     1      45.001  24.209  50.833  1.00  0.00    -0.389 OA
ATOM      7  H2  UNL     1      44.367  24.339  50.138  1.00  0.00     0.210 HD
ENDBRANCH   5   6
BRANCH   5   8
HETATM    8  C18 UNL     1      43.864  22.116  51.102  1.00  0.00     0.129 C 
BRANCH   8   9
HETATM    9  S1  UNL     1      44.541  20.647  51.768  1.00  0.00    -0.082 SA
HETATM   10  C19 UNL     1      43.932  19.122  51.108  1.00  0.00     0.134 C 
HETATM   11  C20 UNL     1      45.399  18.735  51.331  1.00  0.00     0.236 C 
HETATM   12  O4  UNL     1      45.739  19.979  50.806  1.00  0.00    -0.316 OA
BRANCH  11  13
HETATM   13  C21 UNL     1      45.724  18.645  52.760  1.00  0.00     0.262 C 
HETATM   14  N6  UNL     1      46.649  19.495  53.420  1.00  0.00    -0.060 NA
HETATM   15  O3  UNL     1      45.146  17.755  53.446  1.00  0.00    -0.274 OA
ENDBRANCH  11  13
ENDBRANCH   8   9
ENDBRANCH   5   8
ENDBRANCH   3   5
BRANCH   4  16
HETATM   16  C5  UNL     1      42.452  24.947  54.600  1.00  0.00     0.242 C 
HETATM   17  O1  UNL     1      42.452  26.244  54.563  1.00  0.00    -0.269 OA
HETATM   18  N1  UNL     1      41.605  24.371  55.519  1.00  0.00    -0.351 N 
ATOM     19  H1  UNL     1      41.638  23.352  55.543  1.00  0.00     0.163 HD
BRANCH  18  20
HETATM   20  C6  UNL     1      40.694  24.952  56.439  1.00  0.00     0.108 C 
BRANCH  20  21
HETATM   21  C7  UNL     1      40.800  24.554  57.880  1.00  0.00     0.166 C 
BRANCH  21  22
HETATM   22  N2  UNL     1      42.023  23.877  58.186  1.00  0.00    -0.321 N 
ATOM     23  H2  UNL     1      42.141  22.877  58.022  1.00  0.00     0.181 HD
BRANCH  22  24
HETATM   24  N3  UNL     1      43.057  24.672  58.729  1.00  0.00    -0.254 N 
HETATM   25  N4  UNL     1      44.004  25.041  57.983  1.00  0.00    -0.331 N 
ATOM     26  H42 UNL     1      44.009  24.760  57.003  1.00  0.00     0.178 HD
ATOM     27  H41 UNL     1      44.750  25.615  58.375  1.00  0.00     0.178 HD
ATOM     28  H3  UNL     1      43.037  24.945  59.711  1.00  0.00     0.207 HD
ENDBRANCH  22  24
ENDBRANCH  21  22
ENDBRANCH  20  21
BRANCH  20  29
HETATM   29  C8  UNL     1      39.258  24.858  56.000  1.00  0.00     0.067 C 
BRANCH  29  30
HETATM   30  C9  UNL     1      38.738  26.175  55.586  1.00  0.00    -0.028 A 
HETATM   31  C10 UNL     1      38.058  27.022  56.442  1.00  0.00     0.096 A 
HETATM   32  N5  UNL     1      37.723  28.125  55.771  1.00  0.00    -0.365 N 
HETATM   33  C11 UNL     1      38.162  28.023  54.509  1.00  0.00     0.042 A 
ATOM     34  H5  UNL     1      37.214  28.920  56.157  1.00  0.00     0.165 HD
HETATM   35  C12 UNL     1      38.092  28.859  53.406  1.00  0.00     0.030 A 
HETATM   36  C16 UNL     1      38.810  26.795  54.363  1.00  0.00    -0.002 A 
HETATM   37  C13 UNL     1      38.635  28.510  52.205  1.00  0.00     0.002 A 
HETATM   38  C14 UNL     1      39.270  27.299  52.075  1.00  0.00     0.001 A 
HETATM   39  C15 UNL     1      39.360  26.431  53.165  1.00  0.00     0.014 A 
ENDBRANCH  29  30
ENDBRANCH  20  29
ENDBRANCH  18  20
ENDBRANCH   4  16
TORSDOF 12
ENDMDL
MODEL 4
REMARK VINA RESULT: -6.621760662      3.780      5.635
REMARK  12 active torsions:
REMARK  status: ('A' for Active; 'I' for Inactive)
REMARK    1  A    between atoms: C3_3  and  C17_29 
REMARK    2  A    between atoms: C4_4  and  C5_5 
REMARK       I    between atoms: C5_5  and  N1_7 
REMARK    3  A    between atoms: N1_7  and  C6_9 
REMARK    4  A    between atoms: C6_9  and  C7_10 
REMARK    5  A    between atoms: C6_9  and  C8_18 
REMARK    6  A    between atoms: C7_10  and  N2_11 
REMARK    7  A    between atoms: N2_11  and  N3_13 
REMARK    8  A    between atoms: C8_18  and  C9_19 
REMARK    9  A    between atoms: C17_29  and  O2_30 
REMARK   10  A    between atoms: C17_29  and  C18_32 
REMARK   11  A    between atoms: C18_32  and  S1_33 
REMARK   12  A    between atoms: C20_35  and  C21_36 
ROOT
HETATM    1  C1  UNL     1      39.674  26.922  52.138  1.00  0.00     0.017 C 
HETATM    2  C2  UNL     1      40.526  26.104  51.850  1.00  0.00    -0.079 C 
HETATM    3  C3  UNL     1      41.508  25.145  51.465  1.00  0.00     0.029 C 
HETATM    4  C4  UNL     1      42.495  24.638  52.119  1.00  0.00     0.092 C 
ENDROOT
BRANCH   3   5
HETATM    5  C17 UNL     1      41.316  24.674  50.016  1.00  0.00     0.170 C 
BRANCH   5   6
HETATM    6  O2  UNL     1      41.805  23.396  49.912  1.00  0.00    -0.389 OA
ATOM      7  H2  UNL     1      42.730  23.414  50.128  1.00  0.00     0.210 HD
ENDBRANCH   5   6
BRANCH   5   8
HETATM    8  C18 UNL     1      42.116  25.663  49.196  1.00  0.00     0.129 C 
BRANCH   8   9
HETATM    9  S1  UNL     1      43.586  24.942  48.577  1.00  0.00    -0.082 SA
HETATM   10  C19 UNL     1      44.702  26.022  47.730  1.00  0.00     0.134 C 
HETATM   11  C20 UNL     1      45.715  25.110  48.432  1.00  0.00     0.236 C 
HETATM   12  O4  UNL     1      44.913  25.202  49.566  1.00  0.00    -0.316 OA
BRANCH  11  13
HETATM   13  C21 UNL     1      45.701  23.753  47.871  1.00  0.00     0.262 C 
HETATM   14  N6  UNL     1      45.748  23.465  46.483  1.00  0.00    -0.060 NA
HETATM   15  O3  UNL     1      45.643  22.778  48.674  1.00  0.00    -0.274 OA
ENDBRANCH  11  13
ENDBRANCH   8   9
ENDBRANCH   5   8
ENDBRANCH   3   5
BRANCH   4  16
HETATM   16  C5  UNL     1      42.984  24.835  53.463  1.00  0.00     0.242 C 
HETATM   17  O1  UNL     1      43.076  23.755  54.176  1.00  0.00    -0.269 OA
HETATM   18  N1  UNL     1      43.359  26.001  54.088  1.00  0.00    -0.351 N 
ATOM     19  H1  UNL     1      43.258  26.839  53.514  1.00  0.00     0.163 HD
BRANCH  18  20
HETATM   20  C6  UNL     1      43.864  26.240  55.394  1.00  0.00     0.108 C 
BRANCH  20  21
HETATM   21  C7  UNL     1      45.252  25.771  55.707  1.00  0.00     0.166 C 
BRANCH  21  22
HETATM   22  N2  UNL     1      45.357  24.347  55.795  1.00  0.00    -0.321 N 
ATOM     23  H2  UNL     1      44.900  23.818  56.539  1.00  0.00     0.181 HD
BRANCH  22  24
HETATM   24  N3  UNL     1      46.129  23.715  54.795  1.00  0.00    -0.254 N 
HETATM   25  N4  UNL     1      45.810  22.557  54.412  1.00  0.00    -0.331 N 
ATOM     26  H42 UNL     1      45.001  22.097  54.829  1.00  0.00     0.178 HD
ATOM     27  H41 UNL     1      46.367  22.101  53.691  1.00  0.00     0.178 HD
ATOM     28  H3  UNL     1      46.935  24.189  54.389  1.00  0.00     0.207 HD
ENDBRANCH  22  24
ENDBRANCH  21  22
ENDBRANCH  20  21
BRANCH  20  29
HETATM   29  C8  UNL     1      42.929  25.796  56.486  1.00  0.00     0.067 C 
BRANCH  29  30
HETATM   30  C9  UNL     1      41.614  26.453  56.364  1.00  0.00    -0.028 A 
HETATM   31  C10 UNL     1      41.413  27.796  56.625  1.00  0.00     0.096 A 
HETATM   32  N5  UNL     1      40.126  28.080  56.424  1.00  0.00    -0.365 N 
HETATM   33  C11 UNL     1      39.484  26.968  56.042  1.00  0.00     0.042 A 
ATOM     34  H5  UNL     1      39.697  28.998  56.542  1.00  0.00     0.165 HD
HETATM   35  C12 UNL     1      38.167  26.695  55.709  1.00  0.00     0.030 A 
HETATM   36  C16 UNL     1      40.404  25.919  55.996  1.00  0.00    -0.002 A 
HETATM   37  C13 UNL     1      37.762  25.445  55.343  1.00  0.00     0.002 A 
HETATM   38  C14 UNL     1      38.678  24.423  55.301  1.00  0.00     0.001 A 
HETATM   39  C15 UNL     1      40.014  24.660  55.630  1.00  0.00     0.014 A 
ENDBRANCH  29  30
ENDBRANCH  20  29
ENDBRANCH  18  20
ENDBRANCH   4  16
TORSDOF 12
ENDMDL
MODEL 5
REMARK VINA RESULT: -6.569175693      3.646      5.924
REMARK  12 active torsions:
REMARK  status: ('A' for Active; 'I' for Inactive)
REMARK    1  A    between atoms: C3_3  and  C17_29 
REMARK    2  A    between atoms: C4_4  and  C5_5 
REMARK       I    between atoms: C5_5  and  N1_7 
REMARK    3  A    between atoms: N1_7  and  C6_9 
REMARK    4  A    between atoms: C6_9  and  C7_10 
REMARK    5  A    between atoms: C6_9  and  C8_18 
REMARK    6  A    between atoms: C7_10  and  N2_11 
REMARK    7  A    between atoms: N2_11  and  N3_13 
REMARK    8  A    between atoms: C8_18  and  C9_19 
REMARK    9  A    between atoms: C17_29  and  O2_30 
REMARK   10  A    between atoms: C17_29  and  C18_32 
REMARK   11  A    between atoms: C18_32  and  S1_33 
REMARK   12  A    between atoms: C20_35  and  C21_36 
ROOT
HETATM    1  C1  UNL     1      40.165  25.201  50.220  1.00  0.00     0.017 C 
HETATM    2  C2  UNL     1      41.275  24.707  50.182  1.00  0.00    -0.079 C 
HETATM    3  C3  UNL     1      42.567  24.103  50.178  1.00  0.00     0.029 C 
HETATM    4  C4  UNL     1      43.519  24.152  49.313  1.00  0.00     0.092 C 
ENDROOT
BRANCH   3   5
HETATM    5  C17 UNL     1      42.809  23.258  51.438  1.00  0.00     0.170 C 
BRANCH   5   6
HETATM    6  O2  UNL     1      42.560  24.044  52.536  1.00  0.00    -0.389 OA
ATOM      7  H2  UNL     1      43.319  24.007  53.106  1.00  0.00     0.210 HD
ENDBRANCH   5   6
BRANCH   5   8
HETATM    8  C18 UNL     1      44.266  22.858  51.340  1.00  0.00     0.129 C 
BRANCH   8   9
HETATM    9  S1  UNL     1      44.481  21.145  51.627  1.00  0.00    -0.082 SA
HETATM   10  C19 UNL     1      44.132  20.064  50.270  1.00  0.00     0.134 C 
HETATM   11  C20 UNL     1      45.319  19.318  50.891  1.00  0.00     0.236 C 
HETATM   12  O4  UNL     1      45.936  20.557  51.040  1.00  0.00    -0.316 OA
BRANCH  11  13
HETATM   13  C21 UNL     1      44.970  18.730  52.190  1.00  0.00     0.262 C 
HETATM   14  N6  UNL     1      45.568  19.106  53.420  1.00  0.00    -0.060 NA
HETATM   15  O3  UNL     1      44.081  17.832  52.217  1.00  0.00    -0.274 OA
ENDBRANCH  11  13
ENDBRANCH   8   9
ENDBRANCH   5   8
ENDBRANCH   3   5
BRANCH   4  16
HETATM   16  C5  UNL     1      43.652  24.818  48.040  1.00  0.00     0.242 C 
HETATM   17  O1  UNL     1      43.740  24.027  47.015  1.00  0.00    -0.269 OA
HETATM   18  N1  UNL     1      43.702  26.165  47.766  1.00  0.00    -0.351 N 
ATOM     19  H1  UNL     1      43.651  26.765  48.589  1.00  0.00     0.163 HD
BRANCH  18  20
HETATM   20  C6  UNL     1      43.810  26.863  46.534  1.00  0.00     0.108 C 
BRANCH  20  21
HETATM   21  C7  UNL     1      45.097  26.753  45.776  1.00  0.00     0.166 C 
BRANCH  21  22
HETATM   22  N2  UNL     1      45.079  25.719  44.787  1.00  0.00    -0.321 N 
ATOM     23  H2  UNL     1      44.432  25.738  43.999  1.00  0.00     0.181 HD
BRANCH  22  24
HETATM   24  N3  UNL     1      46.009  24.670  44.965  1.00  0.00    -0.254 N 
HETATM   25  N4  UNL     1      45.605  23.477  44.923  1.00  0.00    -0.331 N 
ATOM     26  H42 UNL     1      44.616  23.288  44.763  1.00  0.00     0.178 HD
ATOM     27  H41 UNL     1      46.276  22.720  45.051  1.00  0.00     0.178 HD
ATOM     28  H3  UNL     1      46.995  24.875  45.124  1.00  0.00     0.207 HD
ENDBRANCH  22  24
ENDBRANCH  21  22
ENDBRANCH  20  21
BRANCH  20  29
HETATM   29  C8  UNL     1      43.409  28.310  46.630  1.00  0.00     0.067 C 
BRANCH  29  30
HETATM   30  C9  UNL     1      42.003  28.503  46.227  1.00  0.00    -0.028 A 
HETATM   31  C10 UNL     1      41.614  28.704  44.915  1.00  0.00     0.096 A 
HETATM   32  N5  UNL     1      40.288  28.843  44.882  1.00  0.00    -0.365 N 
HETATM   33  C11 UNL     1      39.803  28.738  46.127  1.00  0.00     0.042 A 
ATOM     34  H5  UNL     1      39.730  29.002  44.043  1.00  0.00     0.165 HD
HETATM   35  C12 UNL     1      38.526  28.801  46.660  1.00  0.00     0.030 A 
HETATM   36  C16 UNL     1      40.870  28.522  47.001  1.00  0.00    -0.002 A 
HETATM   37  C13 UNL     1      38.297  28.657  47.997  1.00  0.00     0.002 A 
HETATM   38  C14 UNL     1      39.355  28.445  48.845  1.00  0.00     0.001 A 
HETATM   39  C15 UNL     1      40.656  28.376  48.344  1.00  0.00     0.014 A 
ENDBRANCH  29  30
ENDBRANCH  20  29
ENDBRANCH  18  20
ENDBRANCH   4  16
TORSDOF 12
ENDMDL
