MODEL 1
REMARK VINA RESULT: -6.557930268      0.000      0.000
REMARK  13 active torsions:
REMARK  status: ('A' for Active; 'I' for Inactive)
REMARK    1  A    between atoms: C2_2  and  C3_3 
REMARK    2  A    between atoms: C2_2  and  N2_11 
REMARK    3  A    between atoms: C3_3  and  C4_4 
REMARK       I    between atoms: N2_11  and  C10_13 
REMARK    4  A    between atoms: C10_13  and  C11_15 
REMARK    5  A    between atoms: C11_15  and  N3_17 
REMARK       I    between atoms: N3_17  and  C13_19 
REMARK    6  A    between atoms: C13_19  and  C14_21 
REMARK    7  A    between atoms: C14_21  and  N4_22 
REMARK    8  A    between atoms: N4_22  and  C15_24 
REMARK    9  A    between atoms: C15_24  and  C16_28 
REMARK   10  A    between atoms: C16_28  and  N6_29 
REMARK   11  A    between atoms: N7_32  and  C19_33 
REMARK   12  A    between atoms: C19_33  and  C20_34 
REMARK   13  A    between atoms: C20_34  and  N8_35 
ROOT
HETATM    1  C14 UNL     1      43.008  25.265  49.015  1.00  0.00     0.224 C 
ENDROOT
BRANCH   1   2
HETATM    2  C13 UNL     1      41.669  25.266  49.699  1.00  0.00     0.235 C 
HETATM    3  N3  UNL     1      41.029  26.488  50.018  1.00  0.00    -0.347 N 
ATOM      4  H3  UNL     1      41.482  27.370  49.781  1.00  0.00     0.163 HD
HETATM    5  O2  UNL     1      41.094  24.197  49.998  1.00  0.00    -0.272 OA
BRANCH   3   6
HETATM    6  C11 UNL     1      39.754  26.502  50.668  1.00  0.00     0.172 C 
HETATM    7  C12 UNL     1      38.814  27.521  50.014  1.00  0.00     0.042 C 
BRANCH   6   8
HETATM    8  C10 UNL     1      39.881  26.788  52.119  1.00  0.00     0.240 C 
HETATM    9  N2  UNL     1      39.208  27.882  52.685  1.00  0.00    -0.355 N 
ATOM     10  H2  UNL     1      38.638  28.476  52.084  1.00  0.00     0.162 HD
HETATM   11  O1  UNL     1      40.593  26.049  52.838  1.00  0.00    -0.271 OA
BRANCH   9  12
HETATM   12  C2  UNL     1      39.298  28.194  54.093  1.00  0.00     0.086 C 
HETATM   13  C1  UNL     1      39.875  29.581  54.346  1.00  0.00     0.032 C 
BRANCH  12  14
HETATM   14  C3  UNL     1      38.117  27.848  54.899  1.00  0.00     0.082 C 
BRANCH  14  15
HETATM   15  C4  UNL     1      38.011  26.569  55.543  1.00  0.00     0.012 A 
HETATM   16  C5  UNL     1      37.743  25.376  54.945  1.00  0.00     0.025 A 
HETATM   17  C6  UNL     1      37.656  24.176  55.661  1.00  0.00     0.003 A 
HETATM   18  C7  UNL     1      37.855  24.245  57.012  1.00  0.00     0.017 A 
HETATM   19  C8  UNL     1      38.127  25.449  57.624  1.00  0.00     0.090 A 
HETATM   20  N1  UNL     1      38.204  26.582  56.910  1.00  0.00    -0.364 N 
HETATM   21  C9  UNL     1      38.492  27.836  57.604  1.00  0.00     0.155 C 
ENDBRANCH  14  15
ENDBRANCH  12  14
ENDBRANCH   9  12
ENDBRANCH   6   8
ENDBRANCH   3   6
ENDBRANCH   1   2
BRANCH   1  22
HETATM   22  N4  UNL     1      43.515  23.903  48.883  1.00  0.00    -0.367 N 
ATOM     23  H4  UNL     1      43.011  23.226  48.311  1.00  0.00     0.161 HD
BRANCH  22  24
HETATM   24  C15 UNL     1      44.709  23.518  49.551  1.00  0.00     0.118 C 
HETATM   25  N5  UNL     1      45.374  24.446  50.158  1.00  0.00    -0.385 N 
ATOM     26  H52 UNL     1      45.033  25.408  50.145  1.00  0.00     0.157 HD
ATOM     27  H51 UNL     1      46.230  24.170  50.638  1.00  0.00     0.157 HD
BRANCH  24  28
HETATM   28  C16 UNL     1      45.193  22.152  49.570  1.00  0.00     0.252 C 
BRANCH  28  29
HETATM   29  N6  UNL     1      44.869  21.392  50.710  1.00  0.00    -0.016 N 
HETATM   30  C17 UNL     1      44.406  22.060  51.879  1.00  0.00     0.273 C 
HETATM   31  C18 UNL     1      44.730  21.083  53.029  1.00  0.00     0.268 C 
HETATM   32  N7  UNL     1      45.372  20.018  52.349  1.00  0.00    -0.038 N 
HETATM   33  C21 UNL     1      44.397  19.293  51.569  1.00  0.00     0.268 C 
HETATM   34  C23 UNL     1      46.069  20.716  51.267  1.00  0.00     0.479 C 
HETATM   35  C22 UNL     1      44.025  20.247  50.450  1.00  0.00     0.273 C 
BRANCH  32  36
HETATM   36  C19 UNL     1      46.283  19.222  53.100  1.00  0.00     0.266 C 
BRANCH  36  37
HETATM   37  C20 UNL     1      45.666  18.498  54.240  1.00  0.00     0.257 C 
BRANCH  37  38
HETATM   38  N8  UNL     1      45.894  17.059  54.024  1.00  0.00    -0.078 N 
ATOM     39  H83 UNL     1      46.591  16.870  53.304  1.00  0.00     0.274 HD
ATOM     40  H82 UNL     1      46.380  16.613  54.801  1.00  0.00     0.274 HD
ATOM     41  H81 UNL     1      44.989  16.633  53.824  1.00  0.00     0.274 HD
ENDBRANCH  37  38
ENDBRANCH  36  37
ENDBRANCH  32  36
ENDBRANCH  28  29
ENDBRANCH  24  28
ENDBRANCH  22  24
ENDBRANCH   1  22
TORSDOF 13
ENDMDL
MODEL 2
REMARK VINA RESULT: -6.113003315      2.698      5.344
REMARK  13 active torsions:
REMARK  status: ('A' for Active; 'I' for Inactive)
REMARK    1  A    between atoms: C2_2  and  C3_3 
REMARK    2  A    between atoms: C2_2  and  N2_11 
REMARK    3  A    between atoms: C3_3  and  C4_4 
REMARK       I    between atoms: N2_11  and  C10_13 
REMARK    4  A    between atoms: C10_13  and  C11_15 
REMARK    5  A    between atoms: C11_15  and  N3_17 
REMARK       I    between atoms: N3_17  and  C13_19 
REMARK    6  A    between atoms: C13_19  and  C14_21 
REMARK    7  A    between atoms: C14_21  and  N4_22 
REMARK    8  A    between atoms: N4_22  and  C15_24 
REMARK    9  A    between atoms: C15_24  and  C16_28 
REMARK   10  A    between atoms: C16_28  and  N6_29 
REMARK   11  A    between atoms: N7_32  and  C19_33 
REMARK   12  A    between atoms: C19_33  and  C20_34 
REMARK   13  A    between atoms: C20_34  and  N8_35 
ROOT
HETATM    1  C14 UNL     1      43.964  22.936  52.984  1.00  0.00     0.224 C 
ENDROOT
BRANCH   1   2
HETATM    2  C13 UNL     1      43.867  24.235  53.737  1.00  0.00     0.235 C 
HETATM    3  N3  UNL     1      42.835  24.437  54.685  1.00  0.00    -0.347 N 
ATOM      4  H3  UNL     1      42.156  23.696  54.855  1.00  0.00     0.163 HD
HETATM    5  O2  UNL     1      44.688  25.158  53.545  1.00  0.00    -0.272 OA
BRANCH   3   6
HETATM    6  C11 UNL     1      42.732  25.668  55.407  1.00  0.00     0.172 C 
HETATM    7  C12 UNL     1      42.391  25.415  56.880  1.00  0.00     0.042 C 
BRANCH   6   8
HETATM    8  C10 UNL     1      41.726  26.577  54.803  1.00  0.00     0.240 C 
HETATM    9  N2  UNL     1      40.654  26.052  54.064  1.00  0.00    -0.355 N 
ATOM     10  H2  UNL     1      40.582  25.041  53.947  1.00  0.00     0.162 HD
HETATM   11  O1  UNL     1      41.837  27.815  54.952  1.00  0.00    -0.271 OA
BRANCH   9  12
HETATM   12  C2  UNL     1      39.648  26.898  53.463  1.00  0.00     0.086 C 
HETATM   13  C1  UNL     1      39.645  26.808  51.942  1.00  0.00     0.032 C 
BRANCH  12  14
HETATM   14  C3  UNL     1      38.321  26.859  54.098  1.00  0.00     0.082 C 
BRANCH  14  15
HETATM   15  C4  UNL     1      38.062  25.996  55.216  1.00  0.00     0.012 A 
HETATM   16  C5  UNL     1      37.728  24.677  55.165  1.00  0.00     0.025 A 
HETATM   17  C6  UNL     1      37.491  23.916  56.316  1.00  0.00     0.003 A 
HETATM   18  C7  UNL     1      37.610  24.555  57.519  1.00  0.00     0.017 A 
HETATM   19  C8  UNL     1      37.948  25.889  57.576  1.00  0.00     0.090 A 
HETATM   20  N1  UNL     1      38.170  26.592  56.456  1.00  0.00    -0.364 N 
HETATM   21  C9  UNL     1      38.525  28.006  56.569  1.00  0.00     0.155 C 
ENDBRANCH  14  15
ENDBRANCH  12  14
ENDBRANCH   9  12
ENDBRANCH   6   8
ENDBRANCH   3   6
ENDBRANCH   1   2
BRANCH   1  22
HETATM   22  N4  UNL     1      44.545  23.152  51.663  1.00  0.00    -0.367 N 
ATOM     23  H4  UNL     1      45.502  23.494  51.578  1.00  0.00     0.161 HD
BRANCH  22  24
HETATM   24  C15 UNL     1      43.779  22.888  50.495  1.00  0.00     0.118 C 
HETATM   25  N5  UNL     1      43.423  21.663  50.285  1.00  0.00    -0.385 N 
ATOM     26  H52 UNL     1      43.691  20.935  50.948  1.00  0.00     0.157 HD
ATOM     27  H51 UNL     1      42.874  21.473  49.448  1.00  0.00     0.157 HD
BRANCH  24  28
HETATM   28  C16 UNL     1      43.399  23.923  49.554  1.00  0.00     0.252 C 
BRANCH  28  29
HETATM   29  N6  UNL     1      44.449  24.526  48.835  1.00  0.00    -0.016 N 
HETATM   30  C17 UNL     1      45.044  25.715  49.342  1.00  0.00     0.273 C 
HETATM   31  C18 UNL     1      45.659  26.393  48.100  1.00  0.00     0.268 C 
HETATM   32  N7  UNL     1      45.285  25.509  47.056  1.00  0.00    -0.038 N 
HETATM   33  C21 UNL     1      46.045  24.287  47.172  1.00  0.00     0.268 C 
HETATM   34  C23 UNL     1      43.983  25.023  47.515  1.00  0.00     0.479 C 
HETATM   35  C22 UNL     1      45.491  23.615  48.413  1.00  0.00     0.273 C 
BRANCH  32  36
HETATM   36  C19 UNL     1      45.184  26.056  45.746  1.00  0.00     0.266 C 
BRANCH  36  37
HETATM   37  C20 UNL     1      44.074  25.497  44.934  1.00  0.00     0.257 C 
BRANCH  37  38
HETATM   38  N8  UNL     1      44.544  25.415  43.541  1.00  0.00    -0.078 N 
ATOM     39  H83 UNL     1      44.022  26.023  42.909  1.00  0.00     0.274 HD
ATOM     40  H82 UNL     1      45.461  25.839  43.405  1.00  0.00     0.274 HD
ATOM     41  H81 UNL     1      44.514  24.434  43.266  1.00  0.00     0.274 HD
ENDBRANCH  37  38
ENDBRANCH  36  37
ENDBRANCH  32  36
ENDBRANCH  28  29
ENDBRANCH  24  28
ENDBRANCH  22  24
ENDBRANCH   1  22
TORSDOF 13
ENDMDL
MODEL 3
REMARK VINA RESULT: -6.057512731      2.467      3.343
REMARK  13 active torsions:
REMARK  status: ('A' for Active; 'I' for Inactive)
REMARK    1  A    between atoms: C2_2  and  C3_3 
REMARK    2  A    between atoms: C2_2  and  N2_11 
REMARK    3  A    between atoms: C3_3  and  C4_4 
REMARK       I    between atoms: N2_11  and  C10_13 
REMARK    4  A    between atoms: C10_13  and  C11_15 
REMARK    5  A    between atoms: C11_15  and  N3_17 
REMARK       I    between atoms: N3_17  and  C13_19 
REMARK    6  A    between atoms: C13_19  and  C14_21 
REMARK    7  A    between atoms: C14_21  and  N4_22 
REMARK    8  A    between atoms: N4_22  and  C15_24 
REMARK    9  A    between atoms: C15_24  and  C16_28 
REMARK   10  A    between atoms: C16_28  and  N6_29 
REMARK   11  A    between atoms: N7_32  and  C19_33 
REMARK   12  A    between atoms: C19_33  and  C20_34 
REMARK   13  A    between atoms: C20_34  and  N8_35 
ROOT
HETATM    1  C14 UNL     1      42.877  24.148  49.440  1.00  0.00     0.224 C 
ENDROOT
BRANCH   1   2
HETATM    2  C13 UNL     1      41.522  24.592  49.917  1.00  0.00     0.235 C 
HETATM    3  N3  UNL     1      41.204  25.970  49.986  1.00  0.00    -0.347 N 
ATOM      4  H3  UNL     1      41.901  26.661  49.710  1.00  0.00     0.163 HD
HETATM    5  O2  UNL     1      40.652  23.763  50.261  1.00  0.00    -0.272 OA
BRANCH   3   6
HETATM    6  C11 UNL     1      39.918  26.406  50.438  1.00  0.00     0.172 C 
HETATM    7  C12 UNL     1      39.294  27.399  49.450  1.00  0.00     0.042 C 
BRANCH   6   8
HETATM    8  C10 UNL     1      39.988  27.013  51.790  1.00  0.00     0.240 C 
HETATM    9  N2  UNL     1      38.858  27.634  52.345  1.00  0.00    -0.355 N 
ATOM     10  H2  UNL     1      37.995  27.665  51.803  1.00  0.00     0.162 HD
HETATM   11  O1  UNL     1      41.061  26.972  52.436  1.00  0.00    -0.271 OA
BRANCH   9  12
HETATM   12  C2  UNL     1      38.878  28.233  53.660  1.00  0.00     0.086 C 
HETATM   13  C1  UNL     1      39.149  29.731  53.614  1.00  0.00     0.032 C 
BRANCH  12  14
HETATM   14  C3  UNL     1      37.796  27.817  54.566  1.00  0.00     0.082 C 
BRANCH  14  15
HETATM   15  C4  UNL     1      37.903  26.612  55.340  1.00  0.00     0.012 A 
HETATM   16  C5  UNL     1      37.697  25.341  54.898  1.00  0.00     0.025 A 
HETATM   17  C6  UNL     1      37.823  24.224  55.733  1.00  0.00     0.003 A 
HETATM   18  C7  UNL     1      38.166  24.459  57.036  1.00  0.00     0.017 A 
HETATM   19  C8  UNL     1      38.375  25.743  57.488  1.00  0.00     0.090 A 
HETATM   20  N1  UNL     1      38.248  26.792  56.664  1.00  0.00    -0.364 N 
HETATM   21  C9  UNL     1      38.478  28.136  57.192  1.00  0.00     0.155 C 
ENDBRANCH  14  15
ENDBRANCH  12  14
ENDBRANCH   9  12
ENDBRANCH   6   8
ENDBRANCH   3   6
ENDBRANCH   1   2
BRANCH   1  22
HETATM   22  N4  UNL     1      43.147  22.779  49.867  1.00  0.00    -0.367 N 
ATOM     23  H4  UNL     1      42.521  22.025  49.583  1.00  0.00     0.161 HD
BRANCH  22  24
HETATM   24  C15 UNL     1      44.278  22.494  50.679  1.00  0.00     0.118 C 
HETATM   25  N5  UNL     1      45.396  22.257  50.074  1.00  0.00    -0.385 N 
ATOM     26  H52 UNL     1      45.438  22.282  49.055  1.00  0.00     0.157 HD
ATOM     27  H51 UNL     1      46.208  22.053  50.656  1.00  0.00     0.157 HD
BRANCH  24  28
HETATM   28  C16 UNL     1      44.218  22.459  52.126  1.00  0.00     0.252 C 
BRANCH  28  29
HETATM   29  N6  UNL     1      44.161  23.706  52.777  1.00  0.00    -0.016 N 
HETATM   30  C17 UNL     1      44.768  24.838  52.162  1.00  0.00     0.273 C 
HETATM   31  C18 UNL     1      45.051  25.801  53.333  1.00  0.00     0.268 C 
HETATM   32  N7  UNL     1      44.603  25.057  54.453  1.00  0.00    -0.038 N 
HETATM   33  C21 UNL     1      43.161  24.984  54.432  1.00  0.00     0.268 C 
HETATM   34  C23 UNL     1      44.915  23.683  54.057  1.00  0.00     0.479 C 
HETATM   35  C22 UNL     1      42.848  24.074  53.260  1.00  0.00     0.273 C 
BRANCH  32  36
HETATM   36  C19 UNL     1      45.191  25.361  55.714  1.00  0.00     0.266 C 
BRANCH  36  37
HETATM   37  C20 UNL     1      44.240  25.905  56.716  1.00  0.00     0.257 C 
BRANCH  37  38
HETATM   38  N8  UNL     1      44.244  24.990  57.870  1.00  0.00    -0.078 N 
ATOM     39  H83 UNL     1      45.027  24.337  57.857  1.00  0.00     0.274 HD
ATOM     40  H82 UNL     1      44.474  25.456  58.747  1.00  0.00     0.274 HD
ATOM     41  H81 UNL     1      43.337  24.525  57.894  1.00  0.00     0.274 HD
ENDBRANCH  37  38
ENDBRANCH  36  37
ENDBRANCH  32  36
ENDBRANCH  28  29
ENDBRANCH  24  28
ENDBRANCH  22  24
ENDBRANCH   1  22
TORSDOF 13
ENDMDL
MODEL 4
REMARK VINA RESULT: -6.057020018      3.266      5.970
REMARK  13 active torsions:
REMARK  status: ('A' for Active; 'I' for Inactive)
REMARK    1  A    between atoms: C2_2  and  C3_3 
REMARK    2  A    between atoms: C2_2  and  N2_11 
REMARK    3  A    between atoms: C3_3  and  C4_4 
REMARK       I    between atoms: N2_11  and  C10_13 
REMARK    4  A    between atoms: C10_13  and  C11_15 
REMARK    5  A    between atoms: C11_15  and  N3_17 
REMARK       I    between atoms: N3_17  and  C13_19 
REMARK    6  A    between atoms: C13_19  and  C14_21 
REMARK    7  A    between atoms: C14_21  and  N4_22 
REMARK    8  A    between atoms: N4_22  and  C15_24 
REMARK    9  A    between atoms: C15_24  and  C16_28 
REMARK   10  A    between atoms: C16_28  and  N6_29 
REMARK   11  A    between atoms: N7_32  and  C19_33 
REMARK   12  A    between atoms: C19_33  and  C20_34 
REMARK   13  A    between atoms: C20_34  and  N8_35 
ROOT
HETATM    1  C14 UNL     1      45.113  25.804  57.038  1.00  0.00     0.224 C 
ENDROOT
BRANCH   1   2
HETATM    2  C13 UNL     1      43.793  25.838  57.757  1.00  0.00     0.235 C 
HETATM    3  N3  UNL     1      43.047  24.648  57.940  1.00  0.00    -0.347 N 
ATOM      4  H3  UNL     1      43.411  23.767  57.580  1.00  0.00     0.163 HD
HETATM    5  O2  UNL     1      43.328  26.907  58.207  1.00  0.00    -0.272 OA
BRANCH   3   6
HETATM    6  C11 UNL     1      41.790  24.667  58.623  1.00  0.00     0.172 C 
HETATM    7  C12 UNL     1      41.674  23.488  59.596  1.00  0.00     0.042 C 
BRANCH   6   8
HETATM    8  C10 UNL     1      40.649  24.655  57.674  1.00  0.00     0.240 C 
HETATM    9  N2  UNL     1      39.334  24.774  58.149  1.00  0.00    -0.355 N 
ATOM     10  H2  UNL     1      39.177  24.864  59.153  1.00  0.00     0.162 HD
HETATM   11  O1  UNL     1      40.864  24.536  56.445  1.00  0.00    -0.271 OA
BRANCH   9  12
HETATM   12  C2  UNL     1      38.194  24.774  57.261  1.00  0.00     0.086 C 
HETATM   13  C1  UNL     1      37.130  23.767  57.681  1.00  0.00     0.032 C 
BRANCH  12  14
HETATM   14  C3  UNL     1      37.687  26.099  56.875  1.00  0.00     0.082 C 
BRANCH  14  15
HETATM   15  C4  UNL     1      38.221  26.791  55.735  1.00  0.00     0.012 A 
HETATM   16  C5  UNL     1      38.104  26.421  54.431  1.00  0.00     0.025 A 
HETATM   17  C6  UNL     1      38.665  27.163  53.384  1.00  0.00     0.003 A 
HETATM   18  C7  UNL     1      39.348  28.297  53.724  1.00  0.00     0.017 A 
HETATM   19  C8  UNL     1      39.470  28.677  55.042  1.00  0.00     0.090 A 
HETATM   20  N1  UNL     1      38.921  27.946  56.023  1.00  0.00    -0.364 N 
HETATM   21  C9  UNL     1      39.079  28.389  57.407  1.00  0.00     0.155 C 
ENDBRANCH  14  15
ENDBRANCH  12  14
ENDBRANCH   9  12
ENDBRANCH   6   8
ENDBRANCH   3   6
ENDBRANCH   1   2
BRANCH   1  22
HETATM   22  N4  UNL     1      45.230  24.590  56.238  1.00  0.00    -0.367 N 
ATOM     23  H4  UNL     1      44.900  23.701  56.612  1.00  0.00     0.161 HD
BRANCH  22  24
HETATM   24  C15 UNL     1      45.803  24.644  54.938  1.00  0.00     0.118 C 
HETATM   25  N5  UNL     1      46.998  24.172  54.797  1.00  0.00    -0.385 N 
ATOM     26  H52 UNL     1      47.488  23.779  55.602  1.00  0.00     0.157 HD
ATOM     27  H51 UNL     1      47.409  24.210  53.865  1.00  0.00     0.157 HD
BRANCH  24  28
HETATM   28  C16 UNL     1      45.106  25.201  53.795  1.00  0.00     0.252 C 
BRANCH  28  29
HETATM   29  N6  UNL     1      44.205  24.342  53.136  1.00  0.00    -0.016 N 
HETATM   30  C17 UNL     1      44.403  22.934  53.218  1.00  0.00     0.273 C 
HETATM   31  C18 UNL     1      43.684  22.376  51.973  1.00  0.00     0.268 C 
HETATM   32  N7  UNL     1      43.217  23.555  51.338  1.00  0.00    -0.038 N 
HETATM   33  C21 UNL     1      42.138  24.118  52.114  1.00  0.00     0.268 C 
HETATM   34  C23 UNL     1      44.270  24.518  51.663  1.00  0.00     0.479 C 
HETATM   35  C22 UNL     1      42.809  24.641  53.369  1.00  0.00     0.273 C 
BRANCH  32  36
HETATM   36  C19 UNL     1      43.007  23.496  49.931  1.00  0.00     0.266 C 
BRANCH  36  37
HETATM   37  C20 UNL     1      43.451  24.707  49.196  1.00  0.00     0.257 C 
BRANCH  37  38
HETATM   38  N8  UNL     1      43.898  24.274  47.861  1.00  0.00    -0.078 N 
ATOM     39  H83 UNL     1      44.843  24.584  47.638  1.00  0.00     0.274 HD
ATOM     40  H82 UNL     1      44.070  23.270  47.806  1.00  0.00     0.274 HD
ATOM     41  H81 UNL     1      43.203  24.596  47.187  1.00  0.00     0.274 HD
ENDBRANCH  37  38
ENDBRANCH  36  37
ENDBRANCH  32  36
ENDBRANCH  28  29
ENDBRANCH  24  28
ENDBRANCH  22  24
ENDBRANCH   1  22
TORSDOF 13
ENDMDL
MODEL 5
REMARK VINA RESULT: -6.043696764      3.347      9.973
REMARK  13 active torsions:
REMARK  status: ('A' for Active; 'I' for Inactive)
REMARK    1  A    between atoms: C2_2  and  C3_3 
REMARK    2  A    between atoms: C2_2  and  N2_11 
REMARK    3  A    between atoms: C3_3  and  C4_4 
REMARK       I    between atoms: N2_11  and  C10_13 
REMARK    4  A    between atoms: C10_13  and  C11_15 
REMARK    5  A    between atoms: C11_15  and  N3_17 
REMARK       I    between atoms: N3_17  and  C13_19 
REMARK    6  A    between atoms: C13_19  and  C14_21 
REMARK    7  A    between atoms: C14_21  and  N4_22 
REMARK    8  A    between atoms: N4_22  and  C15_24 
REMARK    9  A    between atoms: C15_24  and  C16_28 
REMARK   10  A    between atoms: C16_28  and  N6_29 
REMARK   11  A    between atoms: N7_32  and  C19_33 
REMARK   12  A    between atoms: C19_33  and  C20_34 
REMARK   13  A    between atoms: C20_34  and  N8_35 
ROOT
HETATM    1  C14 UNL     1      43.709  24.560  54.246  1.00  0.00     0.224 C 
ENDROOT
BRANCH   1   2
HETATM    2  C13 UNL     1      43.328  23.856  52.973  1.00  0.00     0.235 C 
HETATM    3  N3  UNL     1      44.278  23.071  52.277  1.00  0.00    -0.347 N 
ATOM      4  H3  UNL     1      45.225  22.985  52.645  1.00  0.00     0.163 HD
HETATM    5  O2  UNL     1      42.173  23.947  52.504  1.00  0.00    -0.272 OA
BRANCH   3   6
HETATM    6  C11 UNL     1      43.927  22.396  51.065  1.00  0.00     0.172 C 
HETATM    7  C12 UNL     1      44.822  21.172  50.837  1.00  0.00     0.042 C 
BRANCH   6   8
HETATM    8  C10 UNL     1      43.999  23.302  49.892  1.00  0.00     0.240 C 
HETATM    9  N2  UNL     1      45.192  23.978  49.593  1.00  0.00    -0.355 N 
ATOM     10  H2  UNL     1      46.003  23.839  50.196  1.00  0.00     0.162 HD
HETATM   11  O1  UNL     1      42.989  23.464  49.169  1.00  0.00    -0.271 OA
BRANCH   9  12
HETATM   12  C2  UNL     1      45.309  24.864  48.458  1.00  0.00     0.086 C 
HETATM   13  C1  UNL     1      45.919  26.210  48.831  1.00  0.00     0.032 C 
BRANCH  12  14
HETATM   14  C3  UNL     1      45.836  24.256  47.227  1.00  0.00     0.082 C 
BRANCH  14  15
HETATM   15  C4  UNL     1      45.744  24.940  45.967  1.00  0.00     0.012 A 
HETATM   16  C5  UNL     1      44.603  25.284  45.310  1.00  0.00     0.025 A 
HETATM   17  C6  UNL     1      44.615  25.951  44.078  1.00  0.00     0.003 A 
HETATM   18  C7  UNL     1      45.838  26.251  43.548  1.00  0.00     0.017 A 
HETATM   19  C8  UNL     1      46.996  25.906  44.208  1.00  0.00     0.090 A 
HETATM   20  N1  UNL     1      46.953  25.268  45.387  1.00  0.00    -0.364 N 
HETATM   21  C9  UNL     1      48.209  24.921  46.049  1.00  0.00     0.155 C 
ENDBRANCH  14  15
ENDBRANCH  12  14
ENDBRANCH   9  12
ENDBRANCH   6   8
ENDBRANCH   3   6
ENDBRANCH   1   2
BRANCH   1  22
HETATM   22  N4  UNL     1      42.617  25.409  54.709  1.00  0.00    -0.367 N 
ATOM     23  H4  UNL     1      42.099  25.981  54.042  1.00  0.00     0.161 HD
BRANCH  22  24
HETATM   24  C15 UNL     1      42.273  25.442  56.088  1.00  0.00     0.118 C 
HETATM   25  N5  UNL     1      42.980  26.204  56.856  1.00  0.00    -0.385 N 
ATOM     26  H52 UNL     1      43.746  26.752  56.464  1.00  0.00     0.157 HD
ATOM     27  H51 UNL     1      42.733  26.229  57.845  1.00  0.00     0.157 HD
BRANCH  24  28
HETATM   28  C16 UNL     1      41.184  24.665  56.644  1.00  0.00     0.252 C 
BRANCH  28  29
HETATM   29  N6  UNL     1      39.883  25.133  56.374  1.00  0.00    -0.016 N 
HETATM   30  C17 UNL     1      39.626  26.532  56.427  1.00  0.00     0.273 C 
HETATM   31  C18 UNL     1      38.109  26.630  56.690  1.00  0.00     0.268 C 
HETATM   32  N7  UNL     1      37.730  25.268  56.793  1.00  0.00    -0.038 N 
HETATM   33  C21 UNL     1      37.797  24.655  55.488  1.00  0.00     0.268 C 
HETATM   34  C23 UNL     1      38.916  24.663  57.400  1.00  0.00     0.479 C 
HETATM   35  C22 UNL     1      39.280  24.582  55.181  1.00  0.00     0.273 C 
BRANCH  32  36
HETATM   36  C19 UNL     1      36.568  24.973  57.560  1.00  0.00     0.266 C 
BRANCH  36  37
HETATM   37  C20 UNL     1      36.385  23.531  57.861  1.00  0.00     0.257 C 
BRANCH  37  38
HETATM   38  N8  UNL     1      34.968  23.328  58.208  1.00  0.00    -0.078 N 
ATOM     39  H83 UNL     1      34.743  23.631  59.155  1.00  0.00     0.274 HD
ATOM     40  H82 UNL     1      34.343  23.964  57.713  1.00  0.00     0.274 HD
ATOM     41  H81 UNL     1      34.750  22.346  58.041  1.00  0.00     0.274 HD
ENDBRANCH  37  38
ENDBRANCH  36  37
ENDBRANCH  32  36
ENDBRANCH  28  29
ENDBRANCH  24  28
ENDBRANCH  22  24
ENDBRANCH   1  22
TORSDOF 13
ENDMDL
