MODEL 1
REMARK VINA RESULT: -9.514420433      0.000      0.000
REMARK  6 active torsions:
REMARK  status: ('A' for Active; 'I' for Inactive)
REMARK       I    between atoms: C2_5  and  N3_6 
REMARK       I    between atoms: C2_5  and  N5_17 
REMARK    1  A    between atoms: N3_6  and  N4_8 
REMARK       I    between atoms: N4_8  and  C3_10 
REMARK    2  A    between atoms: C3_10  and  O2_12 
REMARK    3  A    between atoms: O2_12  and  C4_13 
REMARK    4  A    between atoms: C4_13  and  C5_14 
REMARK    5  A    between atoms: C5_14  and  O3_15 
REMARK       I    between atoms: N5_17  and  C6_19 
REMARK    6  A    between atoms: C6_19  and  C7_21 
ROOT
HETATM    1  N1  UNL     1      64.909  15.706  32.543  1.00  0.00    -0.171 NA
HETATM    2  C1  UNL     1      64.321  16.354  31.778  1.00  0.00     0.196 C 
HETATM    3  N2  UNL     1      63.608  17.145  30.884  1.00  0.00    -0.124 N 
ATOM      4  H2  UNL     1      63.768  18.152  30.907  1.00  0.00     0.197 HD
HETATM    5  C2  UNL     1      62.754  16.690  30.026  1.00  0.00     0.708 C 
HETATM    6  N3  UNL     1      62.490  15.285  29.948  1.00  0.00    -0.127 N 
ATOM      7  H3  UNL     1      62.955  14.698  29.255  1.00  0.00     0.206 HD
HETATM    8  N5  UNL     1      62.048  17.565  29.176  1.00  0.00    -0.153 N 
ATOM      9  H5  UNL     1      62.202  18.571  29.246  1.00  0.00     0.187 HD
HETATM   10  C6  UNL     1      61.130  17.062  28.225  1.00  0.00     0.269 C 
HETATM   11  O4  UNL     1      60.947  15.820  28.126  1.00  0.00    -0.267 OA
ENDROOT
BRANCH   6  12
HETATM   12  N4  UNL     1      61.584  14.752  30.843  1.00  0.00    -0.231 N 
HETATM   13  C3  UNL     1      60.769  15.594  31.643  1.00  0.00     0.379 C 
HETATM   14  O1  UNL     1      60.852  16.844  31.567  1.00  0.00    -0.237 OA
ATOM     15  H4  UNL     1      61.498  13.739  30.929  1.00  0.00     0.193 HD
BRANCH  13  16
HETATM   16  O2  UNL     1      59.852  15.069  32.536  1.00  0.00    -0.301 OA
BRANCH  16  17
HETATM   17  C4  UNL     1      59.302  13.819  32.435  1.00  0.00     0.206 C 
BRANCH  17  18
HETATM   18  C5  UNL     1      58.143  13.646  31.499  1.00  0.00     0.191 C 
BRANCH  18  19
HETATM   19  O3  UNL     1      57.967  12.244  31.360  1.00  0.00    -0.399 OA
ATOM     20  H3  UNL     1      58.250  12.036  30.478  1.00  0.00     0.209 HD
ENDBRANCH  18  19
ENDBRANCH  17  18
ENDBRANCH  16  17
ENDBRANCH  13  16
ENDBRANCH   6  12
BRANCH  10  21
HETATM   21  C7  UNL     1      60.374  17.965  27.342  1.00  0.00     0.032 A 
HETATM   22  C8  UNL     1      59.758  17.506  26.199  1.00  0.00     0.017 A 
HETATM   23  C9  UNL     1      59.039  18.350  25.374  1.00  0.00     0.001 A 
HETATM   24  C10 UNL     1      58.949  19.688  25.722  1.00  0.00     0.000 A 
HETATM   25  C11 UNL     1      59.554  20.177  26.859  1.00  0.00     0.001 A 
HETATM   26  C12 UNL     1      60.269  19.299  27.667  1.00  0.00     0.017 A 
ENDBRANCH  10  21
TORSDOF 6
ENDMDL
MODEL 2
REMARK VINA RESULT: -9.490018195      0.038      1.044
REMARK  6 active torsions:
REMARK  status: ('A' for Active; 'I' for Inactive)
REMARK       I    between atoms: C2_5  and  N3_6 
REMARK       I    between atoms: C2_5  and  N5_17 
REMARK    1  A    between atoms: N3_6  and  N4_8 
REMARK       I    between atoms: N4_8  and  C3_10 
REMARK    2  A    between atoms: C3_10  and  O2_12 
REMARK    3  A    between atoms: O2_12  and  C4_13 
REMARK    4  A    between atoms: C4_13  and  C5_14 
REMARK    5  A    between atoms: C5_14  and  O3_15 
REMARK       I    between atoms: N5_17  and  C6_19 
REMARK    6  A    between atoms: C6_19  and  C7_21 
ROOT
HETATM    1  N1  UNL     1      64.897  15.697  32.545  1.00  0.00    -0.171 NA
HETATM    2  C1  UNL     1      64.308  16.353  31.787  1.00  0.00     0.196 C 
HETATM    3  N2  UNL     1      63.593  17.154  30.904  1.00  0.00    -0.124 N 
ATOM      4  H2  UNL     1      63.753  18.161  30.939  1.00  0.00     0.197 HD
HETATM    5  C2  UNL     1      62.740  16.709  30.041  1.00  0.00     0.708 C 
HETATM    6  N3  UNL     1      62.477  15.304  29.946  1.00  0.00    -0.127 N 
ATOM      7  H3  UNL     1      62.942  14.726  29.245  1.00  0.00     0.206 HD
HETATM    8  N5  UNL     1      62.033  17.594  29.201  1.00  0.00    -0.153 N 
ATOM      9  H5  UNL     1      62.185  18.599  29.284  1.00  0.00     0.187 HD
HETATM   10  C6  UNL     1      61.115  17.101  28.246  1.00  0.00     0.269 C 
HETATM   11  O4  UNL     1      60.932  15.861  28.131  1.00  0.00    -0.267 OA
ENDROOT
BRANCH   6  12
HETATM   12  N4  UNL     1      61.571  14.760  30.834  1.00  0.00    -0.231 N 
HETATM   13  C3  UNL     1      60.754  15.592  31.643  1.00  0.00     0.379 C 
HETATM   14  O1  UNL     1      60.833  16.843  31.579  1.00  0.00    -0.237 OA
ATOM     15  H4  UNL     1      61.488  13.746  30.911  1.00  0.00     0.193 HD
BRANCH  13  16
HETATM   16  O2  UNL     1      59.837  15.055  32.530  1.00  0.00    -0.301 OA
BRANCH  16  17
HETATM   17  C4  UNL     1      59.314  13.794  32.433  1.00  0.00     0.206 C 
BRANCH  17  18
HETATM   18  C5  UNL     1      58.118  13.605  31.548  1.00  0.00     0.191 C 
BRANCH  18  19
HETATM   19  O3  UNL     1      57.994  12.203  31.364  1.00  0.00    -0.399 OA
ATOM     20  H3  UNL     1      57.385  12.091  30.643  1.00  0.00     0.209 HD
ENDBRANCH  18  19
ENDBRANCH  17  18
ENDBRANCH  16  17
ENDBRANCH  13  16
ENDBRANCH   6  12
BRANCH  10  21
HETATM   21  C7  UNL     1      60.357  18.015  27.374  1.00  0.00     0.032 A 
HETATM   22  C8  UNL     1      60.229  19.354  27.671  1.00  0.00     0.017 A 
HETATM   23  C9  UNL     1      59.527  20.215  26.850  1.00  0.00     0.001 A 
HETATM   24  C10 UNL     1      58.945  19.699  25.703  1.00  0.00     0.000 A 
HETATM   25  C11 UNL     1      59.055  18.365  25.379  1.00  0.00     0.001 A 
HETATM   26  C12 UNL     1      59.770  17.526  26.228  1.00  0.00     0.017 A 
ENDBRANCH  10  21
TORSDOF 6
ENDMDL
MODEL 3
REMARK VINA RESULT: -9.344062954      2.637      4.035
REMARK  6 active torsions:
REMARK  status: ('A' for Active; 'I' for Inactive)
REMARK       I    between atoms: C2_5  and  N3_6 
REMARK       I    between atoms: C2_5  and  N5_17 
REMARK    1  A    between atoms: N3_6  and  N4_8 
REMARK       I    between atoms: N4_8  and  C3_10 
REMARK    2  A    between atoms: C3_10  and  O2_12 
REMARK    3  A    between atoms: O2_12  and  C4_13 
REMARK    4  A    between atoms: C4_13  and  C5_14 
REMARK    5  A    between atoms: C5_14  and  O3_15 
REMARK       I    between atoms: N5_17  and  C6_19 
REMARK    6  A    between atoms: C6_19  and  C7_21 
ROOT
HETATM    1  N1  UNL     1      60.616  14.868  33.691  1.00  0.00    -0.171 NA
HETATM    2  C1  UNL     1      60.210  15.287  32.685  1.00  0.00     0.196 C 
HETATM    3  N2  UNL     1      59.724  15.761  31.472  1.00  0.00    -0.124 N 
ATOM      4  H2  UNL     1      58.858  15.357  31.116  1.00  0.00     0.197 HD
HETATM    5  C2  UNL     1      60.296  16.679  30.764  1.00  0.00     0.708 C 
HETATM    6  N3  UNL     1      61.513  17.283  31.216  1.00  0.00    -0.127 N 
ATOM      7  H3  UNL     1      61.507  18.175  31.712  1.00  0.00     0.206 HD
HETATM    8  N5  UNL     1      59.753  17.081  29.527  1.00  0.00    -0.153 N 
ATOM      9  H5  UNL     1      58.905  16.633  29.177  1.00  0.00     0.187 HD
HETATM   10  C6  UNL     1      60.371  18.099  28.766  1.00  0.00     0.269 C 
HETATM   11  O4  UNL     1      61.410  18.664  29.198  1.00  0.00    -0.267 OA
ENDROOT
BRANCH   6  12
HETATM   12  N4  UNL     1      62.694  16.618  30.956  1.00  0.00    -0.231 N 
HETATM   13  C3  UNL     1      63.922  17.323  30.861  1.00  0.00     0.379 C 
HETATM   14  O1  UNL     1      63.971  18.569  31.003  1.00  0.00    -0.237 OA
ATOM     15  H4  UNL     1      62.684  15.605  30.830  1.00  0.00     0.193 HD
BRANCH  13  16
HETATM   16  O2  UNL     1      65.112  16.663  30.609  1.00  0.00    -0.301 OA
BRANCH  16  17
HETATM   17  C4  UNL     1      65.410  15.406  31.063  1.00  0.00     0.206 C 
BRANCH  17  18
HETATM   18  C5  UNL     1      65.510  15.211  32.547  1.00  0.00     0.191 C 
BRANCH  18  19
HETATM   19  O3  UNL     1      66.143  16.379  33.046  1.00  0.00    -0.399 OA
ATOM     20  H3  UNL     1      65.845  16.470  33.944  1.00  0.00     0.209 HD
ENDBRANCH  18  19
ENDBRANCH  17  18
ENDBRANCH  16  17
ENDBRANCH  13  16
ENDBRANCH   6  12
BRANCH  10  21
HETATM   21  C7  UNL     1      59.824  18.518  27.464  1.00  0.00     0.032 A 
HETATM   22  C8  UNL     1      59.633  17.616  26.439  1.00  0.00     0.017 A 
HETATM   23  C9  UNL     1      59.110  18.004  25.221  1.00  0.00     0.001 A 
HETATM   24  C10 UNL     1      58.778  19.338  25.044  1.00  0.00     0.000 A 
HETATM   25  C11 UNL     1      58.958  20.262  26.049  1.00  0.00     0.001 A 
HETATM   26  C12 UNL     1      59.486  19.837  27.263  1.00  0.00     0.017 A 
ENDBRANCH  10  21
TORSDOF 6
ENDMDL
MODEL 4
REMARK VINA RESULT: -9.309590263      2.638      4.158
REMARK  6 active torsions:
REMARK  status: ('A' for Active; 'I' for Inactive)
REMARK       I    between atoms: C2_5  and  N3_6 
REMARK       I    between atoms: C2_5  and  N5_17 
REMARK    1  A    between atoms: N3_6  and  N4_8 
REMARK       I    between atoms: N4_8  and  C3_10 
REMARK    2  A    between atoms: C3_10  and  O2_12 
REMARK    3  A    between atoms: O2_12  and  C4_13 
REMARK    4  A    between atoms: C4_13  and  C5_14 
REMARK    5  A    between atoms: C5_14  and  O3_15 
REMARK       I    between atoms: N5_17  and  C6_19 
REMARK    6  A    between atoms: C6_19  and  C7_21 
ROOT
HETATM    1  N1  UNL     1      60.608  14.874  33.701  1.00  0.00    -0.171 NA
HETATM    2  C1  UNL     1      60.201  15.293  32.697  1.00  0.00     0.196 C 
HETATM    3  N2  UNL     1      59.713  15.766  31.484  1.00  0.00    -0.124 N 
ATOM      4  H2  UNL     1      58.848  15.361  31.128  1.00  0.00     0.197 HD
HETATM    5  C2  UNL     1      60.283  16.686  30.776  1.00  0.00     0.708 C 
HETATM    6  N3  UNL     1      61.500  17.292  31.227  1.00  0.00    -0.127 N 
ATOM      7  H3  UNL     1      61.493  18.183  31.723  1.00  0.00     0.206 HD
HETATM    8  N5  UNL     1      59.738  17.087  29.539  1.00  0.00    -0.153 N 
ATOM      9  H5  UNL     1      58.891  16.638  29.190  1.00  0.00     0.187 HD
HETATM   10  C6  UNL     1      60.354  18.107  28.778  1.00  0.00     0.269 C 
HETATM   11  O4  UNL     1      61.392  18.673  29.210  1.00  0.00    -0.267 OA
ENDROOT
BRANCH   6  12
HETATM   12  N4  UNL     1      62.682  16.629  30.966  1.00  0.00    -0.231 N 
HETATM   13  C3  UNL     1      63.910  17.334  30.884  1.00  0.00     0.379 C 
HETATM   14  O1  UNL     1      63.959  18.578  31.040  1.00  0.00    -0.237 OA
ATOM     15  H4  UNL     1      62.672  15.617  30.830  1.00  0.00     0.193 HD
BRANCH  13  16
HETATM   16  O2  UNL     1      65.101  16.676  30.631  1.00  0.00    -0.301 OA
BRANCH  16  17
HETATM   17  C4  UNL     1      65.400  15.418  31.080  1.00  0.00     0.206 C 
BRANCH  17  18
HETATM   18  C5  UNL     1      65.509  15.218  32.563  1.00  0.00     0.191 C 
BRANCH  18  19
HETATM   19  O3  UNL     1      66.143  16.386  33.062  1.00  0.00    -0.399 OA
ATOM     20  H3  UNL     1      65.667  16.620  33.850  1.00  0.00     0.209 HD
ENDBRANCH  18  19
ENDBRANCH  17  18
ENDBRANCH  16  17
ENDBRANCH  13  16
ENDBRANCH   6  12
BRANCH  10  21
HETATM   21  C7  UNL     1      59.806  18.525  27.477  1.00  0.00     0.032 A 
HETATM   22  C8  UNL     1      59.482  19.839  27.219  1.00  0.00     0.017 A 
HETATM   23  C9  UNL     1      58.977  20.235  25.996  1.00  0.00     0.001 A 
HETATM   24  C10 UNL     1      58.798  19.271  25.017  1.00  0.00     0.000 A 
HETATM   25  C11 UNL     1      59.112  17.949  25.244  1.00  0.00     0.001 A 
HETATM   26  C12 UNL     1      59.620  17.586  26.487  1.00  0.00     0.017 A 
ENDBRANCH  10  21
TORSDOF 6
ENDMDL
MODEL 5
REMARK VINA RESULT: -8.743921445      2.302      3.999
REMARK  6 active torsions:
REMARK  status: ('A' for Active; 'I' for Inactive)
REMARK       I    between atoms: C2_5  and  N3_6 
REMARK       I    between atoms: C2_5  and  N5_17 
REMARK    1  A    between atoms: N3_6  and  N4_8 
REMARK       I    between atoms: N4_8  and  C3_10 
REMARK    2  A    between atoms: C3_10  and  O2_12 
REMARK    3  A    between atoms: O2_12  and  C4_13 
REMARK    4  A    between atoms: C4_13  and  C5_14 
REMARK    5  A    between atoms: C5_14  and  O3_15 
REMARK       I    between atoms: N5_17  and  C6_19 
REMARK    6  A    between atoms: C6_19  and  C7_21 
ROOT
HETATM    1  N1  UNL     1      59.220  12.674  32.857  1.00  0.00    -0.171 NA
HETATM    2  C1  UNL     1      59.111  13.309  31.890  1.00  0.00     0.196 C 
HETATM    3  N2  UNL     1      58.992  14.046  30.717  1.00  0.00    -0.124 N 
ATOM      4  H2  UNL     1      58.482  13.626  29.940  1.00  0.00     0.197 HD
HETATM    5  C2  UNL     1      59.486  15.229  30.544  1.00  0.00     0.708 C 
HETATM    6  N3  UNL     1      60.210  15.869  31.600  1.00  0.00    -0.127 N 
ATOM      7  H3  UNL     1      59.757  16.541  32.220  1.00  0.00     0.206 HD
HETATM    8  N5  UNL     1      59.347  15.897  29.310  1.00  0.00    -0.153 N 
ATOM      9  H5  UNL     1      58.863  15.437  28.538  1.00  0.00     0.187 HD
HETATM   10  C6  UNL     1      59.871  17.198  29.132  1.00  0.00     0.269 C 
HETATM   11  O4  UNL     1      60.457  17.774  30.085  1.00  0.00    -0.267 OA
ENDROOT
BRANCH   6  12
HETATM   12  N4  UNL     1      61.544  15.544  31.751  1.00  0.00    -0.231 N 
HETATM   13  C3  UNL     1      62.409  16.359  32.527  1.00  0.00     0.379 C 
HETATM   14  O1  UNL     1      61.991  17.399  33.092  1.00  0.00    -0.237 OA
ATOM     15  H4  UNL     1      61.912  14.708  31.298  1.00  0.00     0.193 HD
BRANCH  13  16
HETATM   16  O2  UNL     1      63.744  16.037  32.690  1.00  0.00    -0.301 OA
BRANCH  16  17
HETATM   17  C4  UNL     1      64.740  16.403  31.825  1.00  0.00     0.206 C 
BRANCH  17  18
HETATM   18  C5  UNL     1      65.879  15.446  31.633  1.00  0.00     0.191 C 
BRANCH  18  19
HETATM   19  O3  UNL     1      65.289  14.225  31.214  1.00  0.00    -0.399 OA
ATOM     20  H3  UNL     1      66.009  13.677  30.925  1.00  0.00     0.209 HD
ENDBRANCH  18  19
ENDBRANCH  17  18
ENDBRANCH  16  17
ENDBRANCH  13  16
ENDBRANCH   6  12
BRANCH  10  21
HETATM   21  C7  UNL     1      59.748  17.900  27.844  1.00  0.00     0.032 A 
HETATM   22  C8  UNL     1      59.483  17.221  26.675  1.00  0.00     0.017 A 
HETATM   23  C9  UNL     1      59.357  17.878  25.466  1.00  0.00     0.001 A 
HETATM   24  C10 UNL     1      59.505  19.256  25.451  1.00  0.00     0.000 A 
HETATM   25  C11 UNL     1      59.770  19.963  26.603  1.00  0.00     0.001 A 
HETATM   26  C12 UNL     1      59.889  19.269  27.802  1.00  0.00     0.017 A 
ENDBRANCH  10  21
TORSDOF 6
ENDMDL
