MODEL 1
REMARK VINA RESULT: -8.087134334      0.000      0.000
REMARK  7 active torsions:
REMARK  status: ('A' for Active; 'I' for Inactive)
REMARK       I    between atoms: C2_2  and  N1_4 
REMARK    1  A    between atoms: N1_4  and  C3_6 
REMARK    2  A    between atoms: C3_6  and  N2_8 
REMARK    3  A    between atoms: N2_8  and  N3_10 
REMARK       I    between atoms: N3_10  and  C4_12 
REMARK    4  A    between atoms: C4_12  and  C5_14 
REMARK    5  A    between atoms: C8_18  and  C9_19 
REMARK    6  A    between atoms: C9_19  and  O4_20 
REMARK    7  A    between atoms: C9_19  and  O5_22 
ROOT
HETATM    1  N3  UNL     1      61.904  17.270  28.074  1.00  0.00    -0.268 N 
ATOM      2  H3  UNL     1      62.771  16.746  27.954  1.00  0.00     0.190 HD
HETATM    3  C4  UNL     1      61.343  17.366  29.383  1.00  0.00     0.240 C 
HETATM    4  O2  UNL     1      60.259  18.034  29.473  1.00  0.00    -0.271 OA
ENDROOT
BRANCH   3   5
HETATM    5  C5  UNL     1      61.942  16.753  30.569  1.00  0.00     0.084 C 
HETATM    6  C6  UNL     1      61.315  17.243  31.870  1.00  0.00     0.040 C 
HETATM    7  C7  UNL     1      61.909  16.306  32.931  1.00  0.00     0.169 C 
HETATM    8  O3  UNL     1      63.228  16.543  33.081  1.00  0.00    -0.381 OA
HETATM    9  C8  UNL     1      64.011  16.737  32.007  1.00  0.00     0.176 C 
HETATM   10  C10 UNL     1      63.420  16.989  30.698  1.00  0.00     0.051 C 
BRANCH   9  11
HETATM   11  C9  UNL     1      64.925  15.505  31.893  1.00  0.00     0.282 C 
BRANCH  11  12
HETATM   12  O4  UNL     1      65.903  15.535  32.883  1.00  0.00    -0.369 OA
ATOM     13  H4  UNL     1      66.458  16.298  32.775  1.00  0.00     0.212 HD
ENDBRANCH  11  12
BRANCH  11  14
HETATM   14  O5  UNL     1      65.512  15.506  30.631  1.00  0.00    -0.369 OA
ATOM     15  H5  UNL     1      65.969  16.331  30.512  1.00  0.00     0.212 HD
ENDBRANCH  11  14
ENDBRANCH   9  11
ENDBRANCH   3   5
BRANCH   1  16
HETATM   16  N2  UNL     1      61.330  17.853  26.963  1.00  0.00    -0.273 N 
ATOM     17  H2  UNL     1      61.858  18.577  26.476  1.00  0.00     0.189 HD
BRANCH  16  18
HETATM   18  C3  UNL     1      60.054  17.509  26.458  1.00  0.00     0.193 C 
HETATM   19  S1  UNL     1      59.618  15.940  26.569  1.00  0.00    -0.039 SA
BRANCH  18  20
HETATM   20  N1  UNL     1      59.180  18.455  25.881  1.00  0.00    -0.303 N 
HETATM   21  C2  UNL     1      59.101  19.792  26.333  1.00  0.00     0.219 C 
HETATM   22  C1  UNL     1      58.183  20.789  25.729  1.00  0.00     0.117 C 
HETATM   23  O1  UNL     1      59.827  20.161  27.281  1.00  0.00    -0.274 OA
ATOM     24  H1  UNL     1      58.583  18.163  25.108  1.00  0.00     0.171 HD
ENDBRANCH  18  20
ENDBRANCH  16  18
ENDBRANCH   1  16
TORSDOF 7
ENDMDL
MODEL 2
REMARK VINA RESULT: -7.863947067      2.867      7.086
REMARK  7 active torsions:
REMARK  status: ('A' for Active; 'I' for Inactive)
REMARK       I    between atoms: C2_2  and  N1_4 
REMARK    1  A    between atoms: N1_4  and  C3_6 
REMARK    2  A    between atoms: C3_6  and  N2_8 
REMARK    3  A    between atoms: N2_8  and  N3_10 
REMARK       I    between atoms: N3_10  and  C4_12 
REMARK    4  A    between atoms: C4_12  and  C5_14 
REMARK    5  A    between atoms: C8_18  and  C9_19 
REMARK    6  A    between atoms: C9_19  and  O4_20 
REMARK    7  A    between atoms: C9_19  and  O5_22 
ROOT
HETATM    1  N3  UNL     1      61.553  17.731  30.511  1.00  0.00    -0.268 N 
ATOM      2  H3  UNL     1      62.300  17.888  29.835  1.00  0.00     0.190 HD
HETATM    3  C4  UNL     1      60.274  17.321  30.028  1.00  0.00     0.240 C 
HETATM    4  O2  UNL     1      59.377  17.139  30.919  1.00  0.00    -0.271 OA
ENDROOT
BRANCH   3   5
HETATM    5  C5  UNL     1      59.970  17.113  28.611  1.00  0.00     0.084 C 
HETATM    6  C6  UNL     1      60.937  16.148  27.933  1.00  0.00     0.040 C 
HETATM    7  C7  UNL     1      60.293  15.895  26.564  1.00  0.00     0.169 C 
HETATM    8  O3  UNL     1      60.343  17.011  25.808  1.00  0.00    -0.381 OA
HETATM    9  C8  UNL     1      60.060  18.209  26.344  1.00  0.00     0.176 C 
HETATM   10  C10 UNL     1      59.986  18.372  27.792  1.00  0.00     0.051 C 
BRANCH   9  11
HETATM   11  C9  UNL     1      58.720  18.664  25.741  1.00  0.00     0.282 C 
BRANCH  11  12
HETATM   12  O4  UNL     1      58.511  18.049  24.509  1.00  0.00    -0.369 OA
ATOM     13  H4  UNL     1      57.917  18.567  23.979  1.00  0.00     0.212 HD
ENDBRANCH  11  12
BRANCH  11  14
HETATM   14  O5  UNL     1      58.749  20.048  25.593  1.00  0.00    -0.369 OA
ATOM     15  H5  UNL     1      58.061  20.301  24.989  1.00  0.00     0.212 HD
ENDBRANCH  11  14
ENDBRANCH   9  11
ENDBRANCH   3   5
BRANCH   1  16
HETATM   16  N2  UNL     1      61.827  17.923  31.849  1.00  0.00    -0.273 N 
ATOM     17  H2  UNL     1      61.623  18.837  32.253  1.00  0.00     0.189 HD
BRANCH  16  18
HETATM   18  C3  UNL     1      62.373  16.931  32.697  1.00  0.00     0.193 C 
HETATM   19  S1  UNL     1      61.358  16.244  33.775  1.00  0.00    -0.039 SA
BRANCH  18  20
HETATM   20  N1  UNL     1      63.727  16.535  32.636  1.00  0.00    -0.303 N 
HETATM   21  C2  UNL     1      64.236  15.725  31.595  1.00  0.00     0.219 C 
HETATM   22  C1  UNL     1      65.658  15.306  31.527  1.00  0.00     0.117 C 
HETATM   23  O1  UNL     1      63.465  15.338  30.688  1.00  0.00    -0.274 OA
ATOM     24  H1  UNL     1      64.362  16.844  33.371  1.00  0.00     0.171 HD
ENDBRANCH  18  20
ENDBRANCH  16  18
ENDBRANCH   1  16
TORSDOF 7
ENDMDL
MODEL 3
REMARK VINA RESULT: -7.471225903      3.142      7.147
REMARK  7 active torsions:
REMARK  status: ('A' for Active; 'I' for Inactive)
REMARK       I    between atoms: C2_2  and  N1_4 
REMARK    1  A    between atoms: N1_4  and  C3_6 
REMARK    2  A    between atoms: C3_6  and  N2_8 
REMARK    3  A    between atoms: N2_8  and  N3_10 
REMARK       I    between atoms: N3_10  and  C4_12 
REMARK    4  A    between atoms: C4_12  and  C5_14 
REMARK    5  A    between atoms: C8_18  and  C9_19 
REMARK    6  A    between atoms: C9_19  and  O4_20 
REMARK    7  A    between atoms: C9_19  and  O5_22 
ROOT
HETATM    1  N3  UNL     1      61.599  16.439  28.710  1.00  0.00    -0.268 N 
ATOM      2  H3  UNL     1      61.300  15.665  28.118  1.00  0.00     0.190 HD
HETATM    3  C4  UNL     1      60.996  17.718  28.515  1.00  0.00     0.240 C 
HETATM    4  O2  UNL     1      61.409  18.649  29.285  1.00  0.00    -0.271 OA
ENDROOT
BRANCH   3   5
HETATM    5  C5  UNL     1      59.968  17.984  27.508  1.00  0.00     0.084 C 
HETATM    6  C6  UNL     1      60.166  17.176  26.230  1.00  0.00     0.040 C 
HETATM    7  C7  UNL     1      58.871  17.422  25.444  1.00  0.00     0.169 C 
HETATM    8  O3  UNL     1      58.810  18.703  25.028  1.00  0.00    -0.381 OA
HETATM    9  C8  UNL     1      59.160  19.704  25.853  1.00  0.00     0.176 C 
HETATM   10  C10 UNL     1      59.883  19.424  27.089  1.00  0.00     0.051 C 
BRANCH   9  11
HETATM   11  C9  UNL     1      57.868  20.458  26.213  1.00  0.00     0.282 C 
BRANCH  11  12
HETATM   12  O4  UNL     1      57.600  21.438  25.262  1.00  0.00    -0.369 OA
ATOM     13  H4  UNL     1      56.967  22.061  25.599  1.00  0.00     0.212 HD
ENDBRANCH  11  12
BRANCH  11  14
HETATM   14  O5  UNL     1      58.029  21.035  27.470  1.00  0.00    -0.369 OA
ATOM     15  H5  UNL     1      58.463  20.408  28.036  1.00  0.00     0.212 HD
ENDBRANCH  11  14
ENDBRANCH   9  11
ENDBRANCH   3   5
BRANCH   1  16
HETATM   16  N2  UNL     1      62.568  16.200  29.663  1.00  0.00    -0.273 N 
ATOM     17  H2  UNL     1      63.544  16.232  29.371  1.00  0.00     0.189 HD
BRANCH  16  18
HETATM   18  C3  UNL     1      62.290  15.914  31.021  1.00  0.00     0.193 C 
HETATM   19  S1  UNL     1      63.065  16.819  32.136  1.00  0.00    -0.039 SA
BRANCH  18  20
HETATM   20  N1  UNL     1      61.392  14.901  31.420  1.00  0.00    -0.303 N 
HETATM   21  C2  UNL     1      59.995  15.109  31.494  1.00  0.00     0.219 C 
HETATM   22  C1  UNL     1      59.048  14.047  31.913  1.00  0.00     0.117 C 
HETATM   23  O1  UNL     1      59.528  16.231  31.197  1.00  0.00    -0.274 OA
ATOM     24  H1  UNL     1      61.764  13.984  31.665  1.00  0.00     0.171 HD
ENDBRANCH  18  20
ENDBRANCH  16  18
ENDBRANCH   1  16
TORSDOF 7
ENDMDL
MODEL 4
REMARK VINA RESULT: -7.396660551      2.996      6.811
REMARK  7 active torsions:
REMARK  status: ('A' for Active; 'I' for Inactive)
REMARK       I    between atoms: C2_2  and  N1_4 
REMARK    1  A    between atoms: N1_4  and  C3_6 
REMARK    2  A    between atoms: C3_6  and  N2_8 
REMARK    3  A    between atoms: N2_8  and  N3_10 
REMARK       I    between atoms: N3_10  and  C4_12 
REMARK    4  A    between atoms: C4_12  and  C5_14 
REMARK    5  A    between atoms: C8_18  and  C9_19 
REMARK    6  A    between atoms: C9_19  and  O4_20 
REMARK    7  A    between atoms: C9_19  and  O5_22 
ROOT
HETATM    1  N3  UNL     1      63.140  16.753  29.423  1.00  0.00    -0.268 N 
ATOM      2  H3  UNL     1      63.214  15.947  28.804  1.00  0.00     0.190 HD
HETATM    3  C4  UNL     1      61.939  17.524  29.394  1.00  0.00     0.240 C 
HETATM    4  O2  UNL     1      61.902  18.521  30.190  1.00  0.00    -0.271 OA
ENDROOT
BRANCH   3   5
HETATM    5  C5  UNL     1      60.802  17.222  28.524  1.00  0.00     0.084 C 
HETATM    6  C6  UNL     1      60.558  15.725  28.365  1.00  0.00     0.040 C 
HETATM    7  C7  UNL     1      59.208  15.655  27.639  1.00  0.00     0.169 C 
HETATM    8  O3  UNL     1      59.329  16.113  26.377  1.00  0.00    -0.381 OA
HETATM    9  C8  UNL     1      60.043  17.222  26.121  1.00  0.00     0.176 C 
HETATM   10  C10 UNL     1      60.933  17.778  27.135  1.00  0.00     0.051 C 
BRANCH   9  11
HETATM   11  C9  UNL     1      59.040  18.314  25.712  1.00  0.00     0.282 C 
BRANCH  11  12
HETATM   12  O4  UNL     1      58.610  18.110  24.404  1.00  0.00    -0.369 OA
ATOM     13  H4  UNL     1      59.304  18.323  23.791  1.00  0.00     0.212 HD
ENDBRANCH  11  12
BRANCH  11  14
HETATM   14  O5  UNL     1      59.664  19.553  25.829  1.00  0.00    -0.369 OA
ATOM     15  H5  UNL     1      59.421  20.085  25.080  1.00  0.00     0.212 HD
ENDBRANCH  11  14
ENDBRANCH   9  11
ENDBRANCH   3   5
BRANCH   1  16
HETATM   16  N2  UNL     1      64.205  17.048  30.248  1.00  0.00    -0.273 N 
ATOM     17  H2  UNL     1      64.911  17.700  29.906  1.00  0.00     0.189 HD
BRANCH  16  18
HETATM   18  C3  UNL     1      64.380  16.502  31.542  1.00  0.00     0.193 C 
HETATM   19  S1  UNL     1      65.652  15.501  31.752  1.00  0.00    -0.039 SA
BRANCH  18  20
HETATM   20  N1  UNL     1      63.511  16.790  32.617  1.00  0.00    -0.303 N 
HETATM   21  C2  UNL     1      62.227  16.210  32.733  1.00  0.00     0.219 C 
HETATM   22  C1  UNL     1      61.311  16.511  33.861  1.00  0.00     0.117 C 
HETATM   23  O1  UNL     1      61.835  15.411  31.854  1.00  0.00    -0.274 OA
ATOM     24  H1  UNL     1      63.822  17.441  33.337  1.00  0.00     0.171 HD
ENDBRANCH  18  20
ENDBRANCH  16  18
ENDBRANCH   1  16
TORSDOF 7
ENDMDL
MODEL 5
REMARK VINA RESULT: -7.296873084      1.329      1.445
REMARK  7 active torsions:
REMARK  status: ('A' for Active; 'I' for Inactive)
REMARK       I    between atoms: C2_2  and  N1_4 
REMARK    1  A    between atoms: N1_4  and  C3_6 
REMARK    2  A    between atoms: C3_6  and  N2_8 
REMARK    3  A    between atoms: N2_8  and  N3_10 
REMARK       I    between atoms: N3_10  and  C4_12 
REMARK    4  A    between atoms: C4_12  and  C5_14 
REMARK    5  A    between atoms: C8_18  and  C9_19 
REMARK    6  A    between atoms: C9_19  and  O4_20 
REMARK    7  A    between atoms: C9_19  and  O5_22 
ROOT
HETATM    1  N3  UNL     1      61.766  16.154  28.128  1.00  0.00    -0.268 N 
ATOM      2  H3  UNL     1      62.627  16.700  28.126  1.00  0.00     0.190 HD
HETATM    3  C4  UNL     1      61.334  15.569  29.356  1.00  0.00     0.240 C 
HETATM    4  O2  UNL     1      60.250  14.897  29.299  1.00  0.00    -0.271 OA
ENDROOT
BRANCH   3   5
HETATM    5  C5  UNL     1      62.059  15.709  30.620  1.00  0.00     0.084 C 
HETATM    6  C6  UNL     1      61.383  16.676  31.587  1.00  0.00     0.040 C 
HETATM    7  C7  UNL     1      62.157  16.476  32.896  1.00  0.00     0.169 C 
HETATM    8  O3  UNL     1      63.416  16.944  32.774  1.00  0.00    -0.381 OA
HETATM    9  C8  UNL     1      64.129  16.699  31.662  1.00  0.00     0.176 C 
HETATM   10  C10 UNL     1      63.473  16.189  30.462  1.00  0.00     0.051 C 
BRANCH   9  11
HETATM   11  C9  UNL     1      65.244  15.715  32.054  1.00  0.00     0.282 C 
BRANCH  11  12
HETATM   12  O4  UNL     1      66.494  16.283  31.821  1.00  0.00    -0.369 OA
ATOM     13  H4  UNL     1      67.131  15.607  31.620  1.00  0.00     0.212 HD
ENDBRANCH  11  12
BRANCH  11  14
HETATM   14  O5  UNL     1      65.093  14.552  31.303  1.00  0.00    -0.369 OA
ATOM     15  H5  UNL     1      65.676  13.890  31.653  1.00  0.00     0.212 HD
ENDBRANCH  11  14
ENDBRANCH   9  11
ENDBRANCH   3   5
BRANCH   1  16
HETATM   16  N2  UNL     1      61.074  16.015  26.943  1.00  0.00    -0.273 N 
ATOM     17  H2  UNL     1      61.376  15.289  26.294  1.00  0.00     0.189 HD
BRANCH  16  18
HETATM   18  C3  UNL     1      59.969  16.818  26.571  1.00  0.00     0.193 C 
HETATM   19  S1  UNL     1      58.539  16.058  26.379  1.00  0.00    -0.039 SA
BRANCH  18  20
HETATM   20  N1  UNL     1      60.072  18.212  26.370  1.00  0.00    -0.303 N 
HETATM   21  C2  UNL     1      60.050  19.138  27.438  1.00  0.00     0.219 C 
HETATM   22  C1  UNL     1      60.156  20.604  27.230  1.00  0.00     0.117 C 
HETATM   23  O1  UNL     1      59.934  18.717  28.610  1.00  0.00    -0.274 OA
ATOM     24  H1  UNL     1      60.165  18.564  25.418  1.00  0.00     0.171 HD
ENDBRANCH  18  20
ENDBRANCH  16  18
ENDBRANCH   1  16
TORSDOF 7
ENDMDL
