MODEL 1
REMARK VINA RESULT: -9.413204056      0.000      0.000
REMARK  11 active torsions:
REMARK  status: ('A' for Active; 'I' for Inactive)
REMARK    1  A    between atoms: C2_2  and  N1_3 
REMARK    2  A    between atoms: N1_3  and  C3_4 
REMARK    3  A    between atoms: C3_4  and  C4_5 
REMARK    4  A    between atoms: C4_5  and  C5_6 
REMARK    5  A    between atoms: C4_5  and  N2_13 
REMARK    6  A    between atoms: C5_6  and  C6_7 
REMARK    7  A    between atoms: N2_13  and  S1_15 
REMARK    8  A    between atoms: S1_15  and  N3_18 
REMARK       I    between atoms: N3_18  and  C12_20 
REMARK       I    between atoms: C12_20  and  N4_22 
REMARK    9  A    between atoms: N4_22  and  C13_24 
REMARK   10  A    between atoms: C13_24  and  C14_25 
REMARK       I    between atoms: C14_25  and  N5_27 
REMARK       I    between atoms: N6_30  and  C17_31 
REMARK       I    between atoms: C17_31  and  N7_33 
REMARK   11  A    between atoms: N7_33  and  C18_35 
ROOT
HETATM    1  N3  UNL     1       6.139  -0.881  15.069  1.00  0.00    -0.219 N 
ATOM      2  H3  UNL     1       6.518  -0.294  15.811  1.00  0.00     0.185 HD
HETATM    3  C12 UNL     1       6.784  -2.082  14.716  1.00  0.00     0.331 C 
HETATM    4  O3  UNL     1       6.305  -2.829  13.809  1.00  0.00    -0.246 OA
HETATM    5  N4  UNL     1       7.975  -2.471  15.361  1.00  0.00    -0.334 N 
ATOM      6  H4  UNL     1       8.349  -1.855  16.084  1.00  0.00     0.164 HD
ENDROOT
BRANCH   1   7
HETATM    7  S1  UNL     1       4.693  -0.407  14.235  1.00  0.00     0.323 S 
HETATM    8  O1  UNL     1       3.598  -1.351  14.686  1.00  0.00    -0.182 OA
HETATM    9  O2  UNL     1       4.356   0.995  14.724  1.00  0.00    -0.182 OA
BRANCH   7  10
HETATM   10  N2  UNL     1       4.846  -0.450  12.547  1.00  0.00    -0.296 N 
ATOM     11  H2  UNL     1       5.286  -1.226  12.053  1.00  0.00     0.174 HD
BRANCH  10  12
HETATM   12  C4  UNL     1       4.295   0.720  11.857  1.00  0.00     0.121 C 
BRANCH  12  13
HETATM   13  C3  UNL     1       5.215   1.248  10.833  1.00  0.00     0.263 C 
BRANCH  13  14
HETATM   14  N1  UNL     1       5.667   2.601  10.942  1.00  0.00    -0.065 N 
HETATM   15  C25 UNL     1       6.425   2.856   9.700  1.00  0.00     0.237 C 
HETATM   16  C26 UNL     1       7.462   3.871  10.086  1.00  0.00     0.029 C 
HETATM   17  C27 UNL     1       7.563   3.868  11.571  1.00  0.00     0.029 C 
HETATM   18  C28 UNL     1       6.625   2.743  11.987  1.00  0.00     0.237 C 
BRANCH  14  19
HETATM   19  C2  UNL     1       4.625   3.576  11.102  1.00  0.00     0.233 C 
HETATM   20  C1  UNL     1       3.837   3.843   9.835  1.00  0.00     0.035 C 
ENDBRANCH  14  19
ENDBRANCH  13  14
ENDBRANCH  12  13
BRANCH  12  21
HETATM   21  C5  UNL     1       3.081   0.120  11.101  1.00  0.00     0.032 C 
BRANCH  21  22
HETATM   22  C6  UNL     1       1.869   0.946  11.184  1.00  0.00    -0.013 C 
HETATM   23  C7  UNL     1       0.745   0.331  11.989  1.00  0.00     0.005 C 
HETATM   24  C8  UNL     1      -0.224   1.456  12.290  1.00  0.00     0.000 C 
HETATM   25  C9  UNL     1      -0.685   2.207  11.082  1.00  0.00     0.000 C 
HETATM   26  C10 UNL     1       0.347   2.444  10.038  1.00  0.00     0.000 C 
HETATM   27  C11 UNL     1       1.246   1.229   9.822  1.00  0.00     0.005 C 
ENDBRANCH  21  22
ENDBRANCH  12  21
ENDBRANCH  10  12
ENDBRANCH   7  10
ENDBRANCH   1   7
BRANCH   5  28
HETATM   28  C13 UNL     1       8.698  -3.682  15.068  1.00  0.00     0.227 C 
BRANCH  28  29
HETATM   29  C14 UNL     1       9.195  -4.313  16.307  1.00  0.00     0.237 C 
HETATM   30  O4  UNL     1      10.431  -4.152  16.618  1.00  0.00    -0.272 OA
HETATM   31  N5  UNL     1       8.371  -5.084  17.153  1.00  0.00    -0.347 N 
HETATM   32  C15 UNL     1       6.969  -5.244  16.874  1.00  0.00     0.146 C 
HETATM   33  C24 UNL     1       8.914  -5.746  18.303  1.00  0.00     0.150 C 
HETATM   34  C16 UNL     1       6.331  -6.139  17.964  1.00  0.00     0.148 C 
HETATM   35  N6  UNL     1       7.126  -7.363  18.063  1.00  0.00    -0.327 N 
HETATM   36  C17 UNL     1       6.456  -8.599  18.040  1.00  0.00     0.319 C 
HETATM   37  C22 UNL     1       8.556  -7.223  18.181  1.00  0.00     0.102 C 
HETATM   38  O5  UNL     1       5.181  -8.623  17.960  1.00  0.00    -0.247 OA
HETATM   39  N7  UNL     1       7.085  -9.877  18.098  1.00  0.00    -0.331 N 
ATOM     40  H7  UNL     1       8.102  -9.922  18.161  1.00  0.00     0.165 HD
HETATM   41  C23 UNL     1       9.248  -7.771  16.935  1.00  0.00     0.034 C 
BRANCH  39  42
HETATM   42  C18 UNL     1       6.334 -11.112  18.071  1.00  0.00     0.154 C 
HETATM   43  C19 UNL     1       7.028 -12.164  18.891  1.00  0.00     0.052 C 
HETATM   44  C20 UNL     1       8.146 -12.621  17.950  1.00  0.00     0.123 C 
HETATM   45  N8  UNL     1       7.521 -12.542  16.634  1.00  0.00    -0.378 N 
HETATM   46  C21 UNL     1       6.384 -11.705  16.687  1.00  0.00     0.094 C 
ATOM     47  H8  UNL     1       7.855 -13.021  15.798  1.00  0.00     0.160 HD
HETATM   48  N9  UNL     1       5.533 -11.469  15.749  1.00  0.00    -0.387 N 
ATOM     49  H92 UNL     1       4.712 -10.865  15.788  1.00  0.00     0.157 HD
ATOM     50  H91 UNL     1       5.566 -11.870  14.812  1.00  0.00     0.157 HD
ENDBRANCH  39  42
ENDBRANCH  28  29
ENDBRANCH   5  28
TORSDOF 11
ENDMDL
MODEL 2
REMARK VINA RESULT: -9.332197278      0.621      1.206
REMARK  11 active torsions:
REMARK  status: ('A' for Active; 'I' for Inactive)
REMARK    1  A    between atoms: C2_2  and  N1_3 
REMARK    2  A    between atoms: N1_3  and  C3_4 
REMARK    3  A    between atoms: C3_4  and  C4_5 
REMARK    4  A    between atoms: C4_5  and  C5_6 
REMARK    5  A    between atoms: C4_5  and  N2_13 
REMARK    6  A    between atoms: C5_6  and  C6_7 
REMARK    7  A    between atoms: N2_13  and  S1_15 
REMARK    8  A    between atoms: S1_15  and  N3_18 
REMARK       I    between atoms: N3_18  and  C12_20 
REMARK       I    between atoms: C12_20  and  N4_22 
REMARK    9  A    between atoms: N4_22  and  C13_24 
REMARK   10  A    between atoms: C13_24  and  C14_25 
REMARK       I    between atoms: C14_25  and  N5_27 
REMARK       I    between atoms: N6_30  and  C17_31 
REMARK       I    between atoms: C17_31  and  N7_33 
REMARK   11  A    between atoms: N7_33  and  C18_35 
ROOT
HETATM    1  N3  UNL     1       6.038  -0.938  15.159  1.00  0.00    -0.219 N 
ATOM      2  H3  UNL     1       6.443  -0.308  15.852  1.00  0.00     0.185 HD
HETATM    3  C12 UNL     1       6.706  -2.125  14.804  1.00  0.00     0.331 C 
HETATM    4  O3  UNL     1       6.197  -2.924  13.960  1.00  0.00    -0.246 OA
HETATM    5  N4  UNL     1       7.954  -2.443  15.377  1.00  0.00    -0.334 N 
ATOM      6  H4  UNL     1       8.351  -1.786  16.049  1.00  0.00     0.164 HD
ENDROOT
BRANCH   1   7
HETATM    7  S1  UNL     1       4.520  -0.552  14.413  1.00  0.00     0.323 S 
HETATM    8  O1  UNL     1       3.475  -1.434  15.065  1.00  0.00    -0.182 OA
HETATM    9  O2  UNL     1       4.222   0.898  14.771  1.00  0.00    -0.182 OA
BRANCH   7  10
HETATM   10  N2  UNL     1       4.517  -0.783  12.734  1.00  0.00    -0.296 N 
ATOM     11  H2  UNL     1       4.631  -1.702  12.304  1.00  0.00     0.174 HD
BRANCH  10  12
HETATM   12  C4  UNL     1       4.339   0.442  11.951  1.00  0.00     0.121 C 
BRANCH  12  13
HETATM   13  C3  UNL     1       5.509   0.738  11.103  1.00  0.00     0.263 C 
BRANCH  13  14
HETATM   14  N1  UNL     1       6.353   1.839  11.451  1.00  0.00    -0.065 N 
HETATM   15  C25 UNL     1       5.462   3.015  11.483  1.00  0.00     0.237 C 
HETATM   16  C26 UNL     1       6.341   4.172  11.103  1.00  0.00     0.029 C 
HETATM   17  C27 UNL     1       7.566   3.616  10.468  1.00  0.00     0.029 C 
HETATM   18  C28 UNL     1       7.289   2.120  10.414  1.00  0.00     0.237 C 
BRANCH  14  19
HETATM   19  C2  UNL     1       7.045   1.699  12.703  1.00  0.00     0.233 C 
HETATM   20  C1  UNL     1       8.170   0.684  12.669  1.00  0.00     0.035 C 
ENDBRANCH  14  19
ENDBRANCH  13  14
ENDBRANCH  12  13
BRANCH  12  21
HETATM   21  C5  UNL     1       3.179   0.061  10.995  1.00  0.00     0.032 C 
BRANCH  21  22
HETATM   22  C6  UNL     1       1.970   0.875  11.182  1.00  0.00    -0.013 C 
HETATM   23  C7  UNL     1       0.895   0.217  12.021  1.00  0.00     0.005 C 
HETATM   24  C8  UNL     1      -0.059   1.322  12.426  1.00  0.00     0.000 C 
HETATM   25  C9  UNL     1      -0.591   2.123  11.280  1.00  0.00     0.000 C 
HETATM   26  C10 UNL     1       0.380   2.413  10.192  1.00  0.00     0.000 C 
HETATM   27  C11 UNL     1       1.270   1.214   9.872  1.00  0.00     0.005 C 
ENDBRANCH  21  22
ENDBRANCH  12  21
ENDBRANCH  10  12
ENDBRANCH   7  10
ENDBRANCH   1   7
BRANCH   5  28
HETATM   28  C13 UNL     1       8.704  -3.635  15.076  1.00  0.00     0.227 C 
BRANCH  28  29
HETATM   29  C14 UNL     1       9.209  -4.267  16.312  1.00  0.00     0.237 C 
HETATM   30  O4  UNL     1      10.445  -4.097  16.620  1.00  0.00    -0.272 OA
HETATM   31  N5  UNL     1       8.394  -5.047  17.158  1.00  0.00    -0.347 N 
HETATM   32  C15 UNL     1       6.993  -5.217  16.882  1.00  0.00     0.146 C 
HETATM   33  C24 UNL     1       8.946  -5.708  18.304  1.00  0.00     0.150 C 
HETATM   34  C16 UNL     1       6.366  -6.121  17.971  1.00  0.00     0.148 C 
HETATM   35  N6  UNL     1       7.170  -7.339  18.064  1.00  0.00    -0.327 N 
HETATM   36  C17 UNL     1       6.510  -8.580  18.038  1.00  0.00     0.319 C 
HETATM   37  C22 UNL     1       8.600  -7.188  18.177  1.00  0.00     0.102 C 
HETATM   38  O5  UNL     1       5.235  -8.613  17.962  1.00  0.00    -0.247 OA
HETATM   39  N7  UNL     1       7.149  -9.853  18.090  1.00  0.00    -0.331 N 
ATOM     40  H7  UNL     1       8.167  -9.890  18.150  1.00  0.00     0.165 HD
HETATM   41  C23 UNL     1       9.292  -7.726  16.928  1.00  0.00     0.034 C 
BRANCH  39  42
HETATM   42  C18 UNL     1       6.409 -11.094  18.061  1.00  0.00     0.154 C 
HETATM   43  C19 UNL     1       7.113 -12.142  18.877  1.00  0.00     0.052 C 
HETATM   44  C20 UNL     1       8.233 -12.588  17.933  1.00  0.00     0.123 C 
HETATM   45  N8  UNL     1       7.605 -12.511  16.619  1.00  0.00    -0.378 N 
HETATM   46  C21 UNL     1       6.461 -11.683  16.676  1.00  0.00     0.094 C 
ATOM     47  H8  UNL     1       7.941 -12.985  15.781  1.00  0.00     0.160 HD
HETATM   48  N9  UNL     1       5.607 -11.452  15.740  1.00  0.00    -0.387 N 
ATOM     49  H92 UNL     1       4.781 -10.854  15.781  1.00  0.00     0.157 HD
ATOM     50  H91 UNL     1       5.642 -11.850  14.802  1.00  0.00     0.157 HD
ENDBRANCH  39  42
ENDBRANCH  28  29
ENDBRANCH   5  28
TORSDOF 11
ENDMDL
MODEL 3
REMARK VINA RESULT: -9.260856049      2.808     12.117
REMARK  11 active torsions:
REMARK  status: ('A' for Active; 'I' for Inactive)
REMARK    1  A    between atoms: C2_2  and  N1_3 
REMARK    2  A    between atoms: N1_3  and  C3_4 
REMARK    3  A    between atoms: C3_4  and  C4_5 
REMARK    4  A    between atoms: C4_5  and  C5_6 
REMARK    5  A    between atoms: C4_5  and  N2_13 
REMARK    6  A    between atoms: C5_6  and  C6_7 
REMARK    7  A    between atoms: N2_13  and  S1_15 
REMARK    8  A    between atoms: S1_15  and  N3_18 
REMARK       I    between atoms: N3_18  and  C12_20 
REMARK       I    between atoms: C12_20  and  N4_22 
REMARK    9  A    between atoms: N4_22  and  C13_24 
REMARK   10  A    between atoms: C13_24  and  C14_25 
REMARK       I    between atoms: C14_25  and  N5_27 
REMARK       I    between atoms: N6_30  and  C17_31 
REMARK       I    between atoms: C17_31  and  N7_33 
REMARK   11  A    between atoms: N7_33  and  C18_35 
ROOT
HETATM    1  N3  UNL     1       4.625  -6.656  17.040  1.00  0.00    -0.219 N 
ATOM      2  H3  UNL     1       3.706  -7.081  17.161  1.00  0.00     0.185 HD
HETATM    3  C12 UNL     1       4.799  -5.590  16.137  1.00  0.00     0.331 C 
HETATM    4  O3  UNL     1       5.934  -5.041  15.998  1.00  0.00    -0.246 OA
HETATM    5  N4  UNL     1       3.716  -5.117  15.369  1.00  0.00    -0.334 N 
ATOM      6  H4  UNL     1       2.811  -5.574  15.489  1.00  0.00     0.164 HD
ENDROOT
BRANCH   1   7
HETATM    7  S1  UNL     1       5.983  -7.242  17.947  1.00  0.00     0.323 S 
HETATM    8  O1  UNL     1       6.187  -6.280  19.100  1.00  0.00    -0.182 OA
HETATM    9  O2  UNL     1       5.571  -8.594  18.511  1.00  0.00    -0.182 OA
BRANCH   7  10
HETATM   10  N2  UNL     1       7.402  -7.365  17.029  1.00  0.00    -0.296 N 
ATOM     11  H2  UNL     1       7.516  -6.907  16.125  1.00  0.00     0.174 HD
BRANCH  10  12
HETATM   12  C4  UNL     1       8.453  -8.184  17.640  1.00  0.00     0.121 C 
BRANCH  12  13
HETATM   13  C3  UNL     1       8.403  -9.586  17.186  1.00  0.00     0.263 C 
BRANCH  13  14
HETATM   14  N1  UNL     1       8.664 -10.628  18.130  1.00  0.00    -0.065 N 
HETATM   15  C25 UNL     1       8.643  -9.967  19.451  1.00  0.00     0.237 C 
HETATM   16  C26 UNL     1       9.588 -10.772  20.296  1.00  0.00     0.029 C 
HETATM   17  C27 UNL     1      10.430 -11.586  19.379  1.00  0.00     0.029 C 
HETATM   18  C28 UNL     1       9.992 -11.126  17.995  1.00  0.00     0.237 C 
BRANCH  14  19
HETATM   19  C2  UNL     1       7.731 -11.719  18.100  1.00  0.00     0.233 C 
HETATM   20  C1  UNL     1       6.968 -11.835  16.796  1.00  0.00     0.035 C 
ENDBRANCH  14  19
ENDBRANCH  13  14
ENDBRANCH  12  13
BRANCH  12  21
HETATM   21  C5  UNL     1       9.746  -7.567  17.045  1.00  0.00     0.032 C 
BRANCH  21  22
HETATM   22  C6  UNL     1       9.544  -6.238  16.452  1.00  0.00    -0.013 C 
HETATM   23  C7  UNL     1       9.673  -6.198  14.945  1.00  0.00     0.005 C 
HETATM   24  C8  UNL     1       9.056  -4.887  14.503  1.00  0.00     0.000 C 
HETATM   25  C9  UNL     1       9.616  -3.683  15.190  1.00  0.00     0.000 C 
HETATM   26  C10 UNL     1       9.921  -3.850  16.636  1.00  0.00     0.000 C 
HETATM   27  C11 UNL     1      10.553  -5.207  16.944  1.00  0.00     0.005 C 
ENDBRANCH  21  22
ENDBRANCH  12  21
ENDBRANCH  10  12
ENDBRANCH   7  10
ENDBRANCH   1   7
BRANCH   5  28
HETATM   28  C13 UNL     1       3.801  -4.031  14.427  1.00  0.00     0.227 C 
BRANCH  28  29
HETATM   29  C14 UNL     1       3.857  -2.731  15.124  1.00  0.00     0.237 C 
HETATM   30  O4  UNL     1       2.866  -2.399  15.872  1.00  0.00    -0.272 OA
HETATM   31  N5  UNL     1       4.946  -1.844  14.998  1.00  0.00    -0.347 N 
HETATM   32  C15 UNL     1       6.101  -2.199  14.218  1.00  0.00     0.146 C 
HETATM   33  C24 UNL     1       4.922  -0.556  15.628  1.00  0.00     0.150 C 
HETATM   34  C16 UNL     1       7.121  -1.035  14.260  1.00  0.00     0.148 C 
HETATM   35  N6  UNL     1       6.421   0.191  13.878  1.00  0.00    -0.327 N 
HETATM   36  C17 UNL     1       7.001   1.014  12.897  1.00  0.00     0.319 C 
HETATM   37  C22 UNL     1       5.172   0.480  14.539  1.00  0.00     0.102 C 
HETATM   38  O5  UNL     1       8.126   0.688  12.386  1.00  0.00    -0.247 OA
HETATM   39  N7  UNL     1       6.433   2.223  12.396  1.00  0.00    -0.331 N 
ATOM     40  H7  UNL     1       5.535   2.533  12.765  1.00  0.00     0.165 HD
HETATM   41  C23 UNL     1       4.016   0.405  13.545  1.00  0.00     0.034 C 
BRANCH  39  42
HETATM   42  C18 UNL     1       7.084   3.024  11.385  1.00  0.00     0.154 C 
HETATM   43  C19 UNL     1       6.384   4.346  11.234  1.00  0.00     0.052 C 
HETATM   44  C20 UNL     1       5.161   3.968  10.394  1.00  0.00     0.123 C 
HETATM   45  N8  UNL     1       5.679   2.934   9.505  1.00  0.00    -0.378 N 
HETATM   46  C21 UNL     1       6.876   2.398  10.031  1.00  0.00     0.094 C 
ATOM     47  H8  UNL     1       5.242   2.641   8.632  1.00  0.00     0.160 HD
HETATM   48  N9  UNL     1       7.661   1.536   9.484  1.00  0.00    -0.387 N 
ATOM     49  H92 UNL     1       8.525   1.149   9.864  1.00  0.00     0.157 HD
ATOM     50  H91 UNL     1       7.520   1.112   8.567  1.00  0.00     0.157 HD
ENDBRANCH  39  42
ENDBRANCH  28  29
ENDBRANCH   5  28
TORSDOF 11
ENDMDL
MODEL 4
REMARK VINA RESULT: -9.254944541      2.899     12.086
REMARK  11 active torsions:
REMARK  status: ('A' for Active; 'I' for Inactive)
REMARK    1  A    between atoms: C2_2  and  N1_3 
REMARK    2  A    between atoms: N1_3  and  C3_4 
REMARK    3  A    between atoms: C3_4  and  C4_5 
REMARK    4  A    between atoms: C4_5  and  C5_6 
REMARK    5  A    between atoms: C4_5  and  N2_13 
REMARK    6  A    between atoms: C5_6  and  C6_7 
REMARK    7  A    between atoms: N2_13  and  S1_15 
REMARK    8  A    between atoms: S1_15  and  N3_18 
REMARK       I    between atoms: N3_18  and  C12_20 
REMARK       I    between atoms: C12_20  and  N4_22 
REMARK    9  A    between atoms: N4_22  and  C13_24 
REMARK   10  A    between atoms: C13_24  and  C14_25 
REMARK       I    between atoms: C14_25  and  N5_27 
REMARK       I    between atoms: N6_30  and  C17_31 
REMARK       I    between atoms: C17_31  and  N7_33 
REMARK   11  A    between atoms: N7_33  and  C18_35 
ROOT
HETATM    1  N3  UNL     1       4.278  -6.664  16.920  1.00  0.00    -0.219 N 
ATOM      2  H3  UNL     1       3.345  -7.075  16.915  1.00  0.00     0.185 HD
HETATM    3  C12 UNL     1       4.575  -5.568  16.088  1.00  0.00     0.331 C 
HETATM    4  O3  UNL     1       5.727  -5.038  16.106  1.00  0.00    -0.246 OA
HETATM    5  N4  UNL     1       3.598  -5.044  15.218  1.00  0.00    -0.334 N 
ATOM      6  H4  UNL     1       2.678  -5.486  15.212  1.00  0.00     0.164 HD
ENDROOT
BRANCH   1   7
HETATM    7  S1  UNL     1       5.510  -7.313  17.956  1.00  0.00     0.323 S 
HETATM    8  O1  UNL     1       5.507  -6.474  19.217  1.00  0.00    -0.182 OA
HETATM    9  O2  UNL     1       5.070  -8.726  18.313  1.00  0.00    -0.182 OA
BRANCH   7  10
HETATM   10  N2  UNL     1       7.052  -7.308  17.253  1.00  0.00    -0.296 N 
ATOM     11  H2  UNL     1       7.243  -6.881  16.346  1.00  0.00     0.174 HD
BRANCH  10  12
HETATM   12  C4  UNL     1       8.088  -7.967  18.053  1.00  0.00     0.121 C 
BRANCH  12  13
HETATM   13  C3  UNL     1       8.700  -9.105  17.344  1.00  0.00     0.263 C 
BRANCH  13  14
HETATM   14  N1  UNL     1       8.332 -10.434  17.723  1.00  0.00    -0.065 N 
HETATM   15  C25 UNL     1       9.481 -11.278  17.338  1.00  0.00     0.237 C 
HETATM   16  C26 UNL     1       8.882 -12.619  17.024  1.00  0.00     0.029 C 
HETATM   17  C27 UNL     1       7.421 -12.424  16.824  1.00  0.00     0.029 C 
HETATM   18  C28 UNL     1       7.248 -10.915  16.934  1.00  0.00     0.237 C 
BRANCH  14  19
HETATM   19  C2  UNL     1       8.030 -10.604  19.117  1.00  0.00     0.233 C 
HETATM   20  C1  UNL     1       9.257 -10.662  20.005  1.00  0.00     0.035 C 
ENDBRANCH  14  19
ENDBRANCH  13  14
ENDBRANCH  12  13
BRANCH  12  21
HETATM   21  C5  UNL     1       9.177  -6.867  18.159  1.00  0.00     0.032 C 
BRANCH  21  22
HETATM   22  C6  UNL     1       9.216  -5.965  17.000  1.00  0.00    -0.013 C 
HETATM   23  C7  UNL     1      10.007  -6.491  15.822  1.00  0.00     0.005 C 
HETATM   24  C8  UNL     1       9.609  -5.642  14.633  1.00  0.00     0.000 C 
HETATM   25  C9  UNL     1       9.758  -4.171  14.852  1.00  0.00     0.000 C 
HETATM   26  C10 UNL     1       9.386  -3.680  16.206  1.00  0.00     0.000 C 
HETATM   27  C11 UNL     1       9.860  -4.619  17.314  1.00  0.00     0.005 C 
ENDBRANCH  21  22
ENDBRANCH  12  21
ENDBRANCH  10  12
ENDBRANCH   7  10
ENDBRANCH   1   7
BRANCH   5  28
HETATM   28  C13 UNL     1       3.812  -3.925  14.337  1.00  0.00     0.227 C 
BRANCH  28  29
HETATM   29  C14 UNL     1       3.942  -2.669  15.103  1.00  0.00     0.237 C 
HETATM   30  O4  UNL     1       2.971  -2.318  15.867  1.00  0.00    -0.272 OA
HETATM   31  N5  UNL     1       5.082  -1.843  15.023  1.00  0.00    -0.347 N 
HETATM   32  C15 UNL     1       6.217  -2.223  14.225  1.00  0.00     0.146 C 
HETATM   33  C24 UNL     1       5.132  -0.591  15.721  1.00  0.00     0.150 C 
HETATM   34  C16 UNL     1       7.303  -1.126  14.328  1.00  0.00     0.148 C 
HETATM   35  N6  UNL     1       6.678   0.158  14.013  1.00  0.00    -0.327 N 
HETATM   36  C17 UNL     1       7.308   0.997  13.076  1.00  0.00     0.319 C 
HETATM   37  C22 UNL     1       5.447   0.486  14.688  1.00  0.00     0.102 C 
HETATM   38  O5  UNL     1       8.414   0.632  12.548  1.00  0.00    -0.247 OA
HETATM   39  N7  UNL     1       6.815   2.261  12.640  1.00  0.00    -0.331 N 
ATOM     40  H7  UNL     1       5.935   2.605  13.026  1.00  0.00     0.165 HD
HETATM   41  C23 UNL     1       4.291   0.532  13.692  1.00  0.00     0.034 C 
BRANCH  39  42
HETATM   42  C18 UNL     1       7.515   3.075  11.672  1.00  0.00     0.154 C 
HETATM   43  C19 UNL     1       7.006   4.489  11.713  1.00  0.00     0.052 C 
HETATM   44  C20 UNL     1       5.695   4.382  10.931  1.00  0.00     0.123 C 
HETATM   45  N8  UNL     1       6.004   3.394   9.903  1.00  0.00    -0.378 N 
HETATM   46  C21 UNL     1       7.139   2.642  10.280  1.00  0.00     0.094 C 
ATOM     47  H8  UNL     1       5.478   3.266   9.039  1.00  0.00     0.160 HD
HETATM   48  N9  UNL     1       7.758   1.748   9.589  1.00  0.00    -0.387 N 
ATOM     49  H92 UNL     1       8.577   1.204   9.862  1.00  0.00     0.157 HD
ATOM     50  H91 UNL     1       7.503   1.454   8.646  1.00  0.00     0.157 HD
ENDBRANCH  39  42
ENDBRANCH  28  29
ENDBRANCH   5  28
TORSDOF 11
ENDMDL
MODEL 5
REMARK VINA RESULT: -9.157508349      3.687     12.736
REMARK  11 active torsions:
REMARK  status: ('A' for Active; 'I' for Inactive)
REMARK    1  A    between atoms: C2_2  and  N1_3 
REMARK    2  A    between atoms: N1_3  and  C3_4 
REMARK    3  A    between atoms: C3_4  and  C4_5 
REMARK    4  A    between atoms: C4_5  and  C5_6 
REMARK    5  A    between atoms: C4_5  and  N2_13 
REMARK    6  A    between atoms: C5_6  and  C6_7 
REMARK    7  A    between atoms: N2_13  and  S1_15 
REMARK    8  A    between atoms: S1_15  and  N3_18 
REMARK       I    between atoms: N3_18  and  C12_20 
REMARK       I    between atoms: C12_20  and  N4_22 
REMARK    9  A    between atoms: N4_22  and  C13_24 
REMARK   10  A    between atoms: C13_24  and  C14_25 
REMARK       I    between atoms: C14_25  and  N5_27 
REMARK       I    between atoms: N6_30  and  C17_31 
REMARK       I    between atoms: C17_31  and  N7_33 
REMARK   11  A    between atoms: N7_33  and  C18_35 
ROOT
HETATM    1  N3  UNL     1       3.996  -0.566  15.026  1.00  0.00    -0.219 N 
ATOM      2  H3  UNL     1       3.513  -0.162  15.828  1.00  0.00     0.185 HD
HETATM    3  C12 UNL     1       3.371  -0.596  13.764  1.00  0.00     0.331 C 
HETATM    4  O3  UNL     1       3.975  -1.075  12.757  1.00  0.00    -0.246 OA
HETATM    5  N4  UNL     1       2.063  -0.097  13.601  1.00  0.00    -0.334 N 
ATOM      6  H4  UNL     1       1.590   0.279  14.423  1.00  0.00     0.164 HD
ENDROOT
BRANCH   1   7
HETATM    7  S1  UNL     1       5.593  -1.218  15.208  1.00  0.00     0.323 S 
HETATM    8  O1  UNL     1       6.550  -0.205  14.613  1.00  0.00    -0.182 OA
HETATM    9  O2  UNL     1       5.852  -1.308  16.705  1.00  0.00    -0.182 OA
BRANCH   7  10
HETATM   10  N2  UNL     1       5.794  -2.724  14.457  1.00  0.00    -0.296 N 
ATOM     11  H2  UNL     1       5.582  -2.882  13.471  1.00  0.00     0.174 HD
BRANCH  10  12
HETATM   12  C4  UNL     1       6.296  -3.782  15.339  1.00  0.00     0.121 C 
BRANCH  12  13
HETATM   13  C3  UNL     1       5.469  -5.001  15.276  1.00  0.00     0.263 C 
BRANCH  13  14
HETATM   14  N1  UNL     1       4.185  -4.999  15.906  1.00  0.00    -0.065 N 
HETATM   15  C25 UNL     1       3.262  -4.434  14.901  1.00  0.00     0.237 C 
HETATM   16  C26 UNL     1       2.190  -3.755  15.704  1.00  0.00     0.029 C 
HETATM   17  C27 UNL     1       2.712  -3.573  17.085  1.00  0.00     0.029 C 
HETATM   18  C28 UNL     1       4.145  -4.078  16.992  1.00  0.00     0.237 C 
BRANCH  14  19
HETATM   19  C2  UNL     1       3.724  -6.286  16.344  1.00  0.00     0.233 C 
HETATM   20  C1  UNL     1       3.448  -7.254  15.210  1.00  0.00     0.035 C 
ENDBRANCH  14  19
ENDBRANCH  13  14
ENDBRANCH  12  13
BRANCH  12  21
HETATM   21  C5  UNL     1       7.662  -4.133  14.694  1.00  0.00     0.032 C 
BRANCH  21  22
HETATM   22  C6  UNL     1       8.592  -4.801  15.614  1.00  0.00    -0.013 C 
HETATM   23  C7  UNL     1       9.742  -3.935  16.081  1.00  0.00     0.005 C 
HETATM   24  C8  UNL     1      10.336  -4.635  17.286  1.00  0.00     0.000 C 
HETATM   25  C9  UNL     1      10.713  -6.061  17.042  1.00  0.00     0.000 C 
HETATM   26  C10 UNL     1       9.780  -6.837  16.183  1.00  0.00     0.000 C 
HETATM   27  C11 UNL     1       9.267  -6.021  14.998  1.00  0.00     0.005 C 
ENDBRANCH  21  22
ENDBRANCH  12  21
ENDBRANCH  10  12
ENDBRANCH   7  10
ENDBRANCH   1   7
BRANCH   5  28
HETATM   28  C13 UNL     1       1.350  -0.083  12.349  1.00  0.00     0.227 C 
BRANCH  28  29
HETATM   29  C14 UNL     1       0.862   1.274  12.035  1.00  0.00     0.237 C 
HETATM   30  O4  UNL     1      -0.396   1.509  12.145  1.00  0.00    -0.272 OA
HETATM   31  N5  UNL     1       1.717   2.314  11.617  1.00  0.00    -0.347 N 
HETATM   32  C15 UNL     1       3.139   2.113  11.534  1.00  0.00     0.146 C 
HETATM   33  C24 UNL     1       1.190   3.594  11.244  1.00  0.00     0.150 C 
HETATM   34  C16 UNL     1       3.811   3.420  11.045  1.00  0.00     0.148 C 
HETATM   35  N6  UNL     1       3.134   3.842   9.819  1.00  0.00    -0.327 N 
HETATM   36  C17 UNL     1       3.919   4.174   8.701  1.00  0.00     0.319 C 
HETATM   37  C22 UNL     1       1.693   3.893   9.836  1.00  0.00     0.102 C 
HETATM   38  O5  UNL     1       5.194   4.125   8.790  1.00  0.00    -0.247 OA
HETATM   39  N7  UNL     1       3.415   4.575   7.430  1.00  0.00    -0.331 N 
ATOM     40  H7  UNL     1       2.404   4.632   7.298  1.00  0.00     0.165 HD
HETATM   41  C23 UNL     1       1.113   2.838   8.897  1.00  0.00     0.034 C 
BRANCH  39  42
HETATM   42  C18 UNL     1       4.280   4.905   6.321  1.00  0.00     0.154 C 
HETATM   43  C19 UNL     1       3.559   5.783   5.337  1.00  0.00     0.052 C 
HETATM   44  C20 UNL     1       2.688   4.775   4.583  1.00  0.00     0.123 C 
HETATM   45  N8  UNL     1       3.535   3.588   4.524  1.00  0.00    -0.378 N 
HETATM   46  C21 UNL     1       4.550   3.668   5.504  1.00  0.00     0.094 C 
ATOM     47  H8  UNL     1       3.413   2.815   3.871  1.00  0.00     0.160 HD
HETATM   48  N9  UNL     1       5.531   2.856   5.692  1.00  0.00    -0.387 N 
ATOM     49  H92 UNL     1       6.263   2.913   6.400  1.00  0.00     0.157 HD
ATOM     50  H91 UNL     1       5.714   2.018   5.139  1.00  0.00     0.157 HD
ENDBRANCH  39  42
ENDBRANCH  28  29
ENDBRANCH   5  28
TORSDOF 11
ENDMDL
