MODEL 1
REMARK VINA RESULT: -9.722965167      0.000      0.000
REMARK  11 active torsions:
REMARK  status: ('A' for Active; 'I' for Inactive)
REMARK    1  A    between atoms: C9_9  and  N1_10 
REMARK       I    between atoms: N1_10  and  C10_12 
REMARK       I    between atoms: N3_14  and  C11_16 
REMARK       I    between atoms: C11_16  and  N5_20 
REMARK    2  A    between atoms: N5_20  and  C12_22 
REMARK    3  A    between atoms: C12_22  and  C13_23 
REMARK    4  A    between atoms: C13_23  and  C14_24 
REMARK    5  A    between atoms: C14_24  and  N6_25 
REMARK       I    between atoms: N6_25  and  C15_27 
REMARK       I    between atoms: C15_27  and  N7_29 
REMARK    6  A    between atoms: C18_32  and  C19_33 
REMARK       I    between atoms: C19_33  and  N8_35 
REMARK    7  A    between atoms: N8_35  and  C20_37 
REMARK    8  A    between atoms: C20_37  and  C21_38 
REMARK    9  A    between atoms: C21_38  and  N9_39 
REMARK   10  A    between atoms: C25_43  and  C26_44 
REMARK   11  A    between atoms: C26_44  and  S1_45 
ROOT
HETATM    1  C13 UNL     1       8.146  -0.035  13.766  1.00  0.00     0.040 C 
ENDROOT
BRANCH   1   2
HETATM    2  C12 UNL     1       8.611   0.640  12.470  1.00  0.00     0.139 C 
BRANCH   2   3
HETATM    3  N5  UNL     1       7.505   1.086  11.721  1.00  0.00    -0.226 N 
HETATM    4  C11 UNL     1       6.484   1.900  12.228  1.00  0.00     0.674 C 
HETATM    5  N3  UNL     1       5.785   1.618  13.391  1.00  0.00    -0.164 N 
HETATM    6  N4  UNL     1       6.208   2.981  11.550  1.00  0.00    -0.235 N 
HETATM    7  C10 UNL     1       4.641   0.985  13.357  1.00  0.00     0.203 C 
ATOM      8  H3  UNL     1       6.170   1.909  14.290  1.00  0.00     0.187 HD
HETATM    9  N1  UNL     1       4.117   0.589  12.123  1.00  0.00    -0.355 N 
HETATM   10  N2  UNL     1       3.963   0.711  14.569  1.00  0.00    -0.063 NA
ATOM     11  H1  UNL     1       4.734   0.116  11.463  1.00  0.00     0.163 HD
ATOM     12  H42 UNL     1       5.464   3.574  11.919  1.00  0.00     0.174 HD
ATOM     13  H41 UNL     1       6.723   3.189  10.694  1.00  0.00     0.174 HD
ATOM     14  H5  UNL     1       7.444   0.797  10.745  1.00  0.00     0.177 HD
BRANCH   9  15
HETATM   15  C9  UNL     1       2.754   0.815  11.742  1.00  0.00     0.034 C 
HETATM   16  C8  UNL     1       2.512   2.330  11.626  1.00  0.00     0.035 C 
HETATM   17  C6  UNL     1       1.088   2.571  11.240  1.00  0.00    -0.011 C 
HETATM   18  C5  UNL     1       0.791   1.957   9.884  1.00  0.00     0.009 C 
HETATM   19  C7  UNL     1       0.150   2.027  12.279  1.00  0.00     0.014 C 
HETATM   20  C4  UNL     1       1.029   0.486   9.973  1.00  0.00    -0.011 C 
HETATM   21  C3  UNL     1       0.168  -0.146  11.045  1.00  0.00     0.014 C 
HETATM   22  C28 UNL     1       2.487   0.261  10.372  1.00  0.00     0.035 C 
HETATM   23  C2  UNL     1       0.388   0.534  12.368  1.00  0.00    -0.041 C 
HETATM   24  C1  UNL     1      -0.505  -0.075  13.418  1.00  0.00     0.015 C 
HETATM   25  C29 UNL     1       1.819   0.286  12.780  1.00  0.00     0.040 C 
ENDBRANCH   9  15
ENDBRANCH   2   3
ENDBRANCH   1   2
BRANCH   1  26
HETATM   26  C14 UNL     1       7.370  -1.255  13.284  1.00  0.00     0.126 C 
BRANCH  26  27
HETATM   27  N6  UNL     1       6.486  -1.671  14.334  1.00  0.00    -0.343 N 
HETATM   28  C15 UNL     1       6.667  -2.881  15.015  1.00  0.00     0.318 C 
HETATM   29  O1  UNL     1       7.659  -3.605  14.702  1.00  0.00    -0.247 OA
HETATM   30  N7  UNL     1       5.754  -3.268  16.026  1.00  0.00    -0.328 N 
HETATM   31  C16 UNL     1       4.575  -2.534  16.427  1.00  0.00     0.129 C 
HETATM   32  C25 UNL     1       5.772  -4.428  16.914  1.00  0.00     0.115 C 
HETATM   33  C17 UNL     1       3.590  -3.651  16.743  1.00  0.00     0.036 C 
HETATM   34  C18 UNL     1       4.397  -4.922  16.894  1.00  0.00     0.103 C 
ATOM     35  H6  UNL     1       5.704  -1.070  14.591  1.00  0.00     0.164 HD
BRANCH  34  36
HETATM   36  C19 UNL     1       3.973  -5.860  15.856  1.00  0.00     0.224 C 
HETATM   37  O2  UNL     1       3.518  -5.532  14.735  1.00  0.00    -0.273 OA
HETATM   38  N8  UNL     1       4.080  -7.235  16.119  1.00  0.00    -0.359 N 
ATOM     39  H8  UNL     1       4.445  -7.521  17.028  1.00  0.00     0.162 HD
BRANCH  38  40
HETATM   40  C20 UNL     1       3.705  -8.273  15.181  1.00  0.00     0.150 C 
BRANCH  40  41
HETATM   41  C21 UNL     1       3.297  -9.555  15.851  1.00  0.00     0.255 C 
BRANCH  41  42
HETATM   42  N9  UNL     1       3.763 -10.666  15.044  1.00  0.00    -0.077 N 
HETATM   43  C22 UNL     1       2.874 -11.823  15.207  1.00  0.00     0.271 C 
HETATM   44  C23 UNL     1       3.739 -10.321  13.653  1.00  0.00     0.271 C 
HETATM   45  C24 UNL     1       5.107 -11.017  15.471  1.00  0.00     0.271 C 
ENDBRANCH  41  42
ENDBRANCH  40  41
ENDBRANCH  38  40
ENDBRANCH  34  36
BRANCH  32  46
HETATM   46  C26 UNL     1       6.883  -5.352  16.664  1.00  0.00     0.166 C 
BRANCH  46  47
HETATM   47  S1  UNL     1       7.166  -6.450  18.044  1.00  0.00     0.142 S 
HETATM   48  C27 UNL     1       8.942  -6.620  18.254  1.00  0.00     0.161 C 
HETATM   49  O3  UNL     1       6.541  -7.776  17.903  1.00  0.00    -0.228 OA
HETATM   50  O4  UNL     1       6.672  -5.713  19.281  1.00  0.00    -0.228 OA
ENDBRANCH  46  47
ENDBRANCH  32  46
ENDBRANCH  26  27
ENDBRANCH   1  26
TORSDOF 11
ENDMDL
MODEL 2
REMARK VINA RESULT: -9.650093451      4.333     10.623
REMARK  11 active torsions:
REMARK  status: ('A' for Active; 'I' for Inactive)
REMARK    1  A    between atoms: C9_9  and  N1_10 
REMARK       I    between atoms: N1_10  and  C10_12 
REMARK       I    between atoms: N3_14  and  C11_16 
REMARK       I    between atoms: C11_16  and  N5_20 
REMARK    2  A    between atoms: N5_20  and  C12_22 
REMARK    3  A    between atoms: C12_22  and  C13_23 
REMARK    4  A    between atoms: C13_23  and  C14_24 
REMARK    5  A    between atoms: C14_24  and  N6_25 
REMARK       I    between atoms: N6_25  and  C15_27 
REMARK       I    between atoms: C15_27  and  N7_29 
REMARK    6  A    between atoms: C18_32  and  C19_33 
REMARK       I    between atoms: C19_33  and  N8_35 
REMARK    7  A    between atoms: N8_35  and  C20_37 
REMARK    8  A    between atoms: C20_37  and  C21_38 
REMARK    9  A    between atoms: C21_38  and  N9_39 
REMARK   10  A    between atoms: C25_43  and  C26_44 
REMARK   11  A    between atoms: C26_44  and  S1_45 
ROOT
HETATM    1  C13 UNL     1       2.351  -2.245  15.059  1.00  0.00     0.040 C 
ENDROOT
BRANCH   1   2
HETATM    2  C12 UNL     1       1.969  -3.678  15.447  1.00  0.00     0.139 C 
BRANCH   2   3
HETATM    3  N5  UNL     1       3.111  -4.500  15.488  1.00  0.00    -0.226 N 
HETATM    4  C11 UNL     1       4.070  -4.471  16.509  1.00  0.00     0.674 C 
HETATM    5  N3  UNL     1       4.693  -3.312  16.943  1.00  0.00    -0.164 N 
HETATM    6  N4  UNL     1       4.361  -5.614  17.069  1.00  0.00    -0.235 N 
HETATM    7  C10 UNL     1       5.855  -2.947  16.465  1.00  0.00     0.203 C 
ATOM      8  H3  UNL     1       4.238  -2.732  17.647  1.00  0.00     0.187 HD
HETATM    9  N1  UNL     1       6.476  -3.745  15.500  1.00  0.00    -0.355 N 
HETATM   10  N2  UNL     1       6.453  -1.752  16.931  1.00  0.00    -0.063 NA
ATOM     11  H1  UNL     1       5.921  -4.070  14.708  1.00  0.00     0.163 HD
ATOM     12  H42 UNL     1       5.060  -5.593  17.813  1.00  0.00     0.174 HD
ATOM     13  H41 UNL     1       3.903  -6.467  16.750  1.00  0.00     0.174 HD
ATOM     14  H5  UNL     1       3.250  -5.160  14.722  1.00  0.00     0.177 HD
BRANCH   9  15
HETATM   15  C9  UNL     1       7.855  -4.128  15.569  1.00  0.00     0.034 C 
HETATM   16  C8  UNL     1       8.182  -5.040  14.373  1.00  0.00     0.035 C 
HETATM   17  C6  UNL     1       9.617  -5.452  14.448  1.00  0.00    -0.011 C 
HETATM   18  C5  UNL     1      10.526  -4.239  14.360  1.00  0.00     0.009 C 
HETATM   19  C7  UNL     1       9.890  -6.221  15.709  1.00  0.00     0.014 C 
HETATM   20  C4  UNL     1      10.218  -3.337  15.508  1.00  0.00    -0.011 C 
HETATM   21  C3  UNL     1      10.404  -4.048  16.831  1.00  0.00     0.014 C 
HETATM   22  C28 UNL     1       8.747  -2.931  15.415  1.00  0.00     0.035 C 
HETATM   23  C2  UNL     1       9.581  -5.305  16.875  1.00  0.00    -0.041 C 
HETATM   24  C1  UNL     1       9.807  -6.026  18.179  1.00  0.00     0.015 C 
HETATM   25  C29 UNL     1       8.126  -4.905  16.816  1.00  0.00     0.040 C 
ENDBRANCH   9  15
ENDBRANCH   2   3
ENDBRANCH   1   2
BRANCH   1  26
HETATM   26  C14 UNL     1       3.378  -2.430  13.948  1.00  0.00     0.126 C 
BRANCH  26  27
HETATM   27  N6  UNL     1       4.265  -1.303  13.961  1.00  0.00    -0.343 N 
HETATM   28  C15 UNL     1       4.148  -0.261  13.032  1.00  0.00     0.318 C 
HETATM   29  O1  UNL     1       3.212  -0.318  12.179  1.00  0.00    -0.247 OA
HETATM   30  N7  UNL     1       5.063   0.820  13.062  1.00  0.00    -0.328 N 
HETATM   31  C16 UNL     1       6.183   0.956  13.965  1.00  0.00     0.129 C 
HETATM   32  C25 UNL     1       5.101   2.039  12.259  1.00  0.00     0.115 C 
HETATM   33  C17 UNL     1       7.232   1.620  13.084  1.00  0.00     0.036 C 
HETATM   34  C18 UNL     1       6.505   2.182  11.881  1.00  0.00     0.103 C 
ATOM     35  H6  UNL     1       5.000  -1.258  14.665  1.00  0.00     0.164 HD
BRANCH  34  36
HETATM   36  C19 UNL     1       7.012   1.509  10.685  1.00  0.00     0.224 C 
HETATM   37  O2  UNL     1       7.455   0.337  10.655  1.00  0.00    -0.273 OA
HETATM   38  N8  UNL     1       7.006   2.216   9.473  1.00  0.00    -0.359 N 
ATOM     39  H8  UNL     1       6.653   3.174   9.479  1.00  0.00     0.162 HD
BRANCH  38  40
HETATM   40  C20 UNL     1       7.470   1.672   8.213  1.00  0.00     0.150 C 
BRANCH  40  41
HETATM   41  C21 UNL     1       7.829   2.732   7.210  1.00  0.00     0.255 C 
BRANCH  41  42
HETATM   42  N9  UNL     1       7.375   2.300   5.901  1.00  0.00    -0.077 N 
HETATM   43  C22 UNL     1       8.228   2.872   4.852  1.00  0.00     0.271 C 
HETATM   44  C23 UNL     1       7.472   0.875   5.781  1.00  0.00     0.271 C 
HETATM   45  C24 UNL     1       6.004   2.748   5.717  1.00  0.00     0.271 C 
ENDBRANCH  41  42
ENDBRANCH  40  41
ENDBRANCH  38  40
ENDBRANCH  34  36
BRANCH  32  46
HETATM   46  C26 UNL     1       4.058   2.109  11.231  1.00  0.00     0.166 C 
BRANCH  46  47
HETATM   47  S1  UNL     1       3.806   3.776  10.642  1.00  0.00     0.142 S 
HETATM   48  C27 UNL     1       2.079   3.935  10.173  1.00  0.00     0.161 C 
HETATM   49  O3  UNL     1       4.676   4.162   9.518  1.00  0.00    -0.228 OA
HETATM   50  O4  UNL     1       3.992   4.685  11.849  1.00  0.00    -0.228 OA
ENDBRANCH  46  47
ENDBRANCH  32  46
ENDBRANCH  26  27
ENDBRANCH   1  26
TORSDOF 11
ENDMDL
MODEL 3
REMARK VINA RESULT: -9.540521889      6.748     10.706
REMARK  11 active torsions:
REMARK  status: ('A' for Active; 'I' for Inactive)
REMARK    1  A    between atoms: C9_9  and  N1_10 
REMARK       I    between atoms: N1_10  and  C10_12 
REMARK       I    between atoms: N3_14  and  C11_16 
REMARK       I    between atoms: C11_16  and  N5_20 
REMARK    2  A    between atoms: N5_20  and  C12_22 
REMARK    3  A    between atoms: C12_22  and  C13_23 
REMARK    4  A    between atoms: C13_23  and  C14_24 
REMARK    5  A    between atoms: C14_24  and  N6_25 
REMARK       I    between atoms: N6_25  and  C15_27 
REMARK       I    between atoms: C15_27  and  N7_29 
REMARK    6  A    between atoms: C18_32  and  C19_33 
REMARK       I    between atoms: C19_33  and  N8_35 
REMARK    7  A    between atoms: N8_35  and  C20_37 
REMARK    8  A    between atoms: C20_37  and  C21_38 
REMARK    9  A    between atoms: C21_38  and  N9_39 
REMARK   10  A    between atoms: C25_43  and  C26_44 
REMARK   11  A    between atoms: C26_44  and  S1_45 
ROOT
HETATM    1  C13 UNL     1       8.612   1.305  12.588  1.00  0.00     0.040 C 
ENDROOT
BRANCH   1   2
HETATM    2  C12 UNL     1       8.115   1.235  14.036  1.00  0.00     0.139 C 
BRANCH   2   3
HETATM    3  N5  UNL     1       6.757   1.602  14.110  1.00  0.00    -0.226 N 
HETATM    4  C11 UNL     1       5.697   0.691  14.209  1.00  0.00     0.674 C 
HETATM    5  N3  UNL     1       5.525  -0.382  13.350  1.00  0.00    -0.164 N 
HETATM    6  N4  UNL     1       4.849   0.886  15.183  1.00  0.00    -0.235 N 
HETATM    7  C10 UNL     1       4.749  -0.292  12.301  1.00  0.00     0.203 C 
ATOM      8  H3  UNL     1       6.012  -1.258  13.538  1.00  0.00     0.187 HD
HETATM    9  N1  UNL     1       4.083   0.911  12.047  1.00  0.00    -0.355 N 
HETATM   10  N2  UNL     1       4.607  -1.409  11.445  1.00  0.00    -0.063 NA
ATOM     11  H1  UNL     1       4.614   1.781  12.095  1.00  0.00     0.163 HD
ATOM     12  H42 UNL     1       4.077   0.223  15.255  1.00  0.00     0.174 HD
ATOM     13  H41 UNL     1       4.976   1.676  15.816  1.00  0.00     0.174 HD
ATOM     14  H5  UNL     1       6.532   2.596  14.091  1.00  0.00     0.177 HD
BRANCH   9  15
HETATM   15  C9  UNL     1       2.689   0.980  11.722  1.00  0.00     0.034 C 
HETATM   16  C8  UNL     1       2.265   2.458  11.648  1.00  0.00     0.035 C 
HETATM   17  C6  UNL     1       0.808   2.536  11.321  1.00  0.00    -0.011 C 
HETATM   18  C5  UNL     1       0.533   1.914   9.964  1.00  0.00     0.009 C 
HETATM   19  C7  UNL     1      -0.017   1.866  12.382  1.00  0.00     0.014 C 
HETATM   20  C4  UNL     1       0.946   0.480  10.011  1.00  0.00    -0.011 C 
HETATM   21  C3  UNL     1       0.208  -0.268  11.101  1.00  0.00     0.014 C 
HETATM   22  C28 UNL     1       2.435   0.423  10.351  1.00  0.00     0.035 C 
HETATM   23  C2  UNL     1       0.399   0.410  12.429  1.00  0.00    -0.041 C 
HETATM   24  C1  UNL     1      -0.374  -0.318  13.498  1.00  0.00     0.015 C 
HETATM   25  C29 UNL     1       1.865   0.327  12.783  1.00  0.00     0.040 C 
ENDBRANCH   9  15
ENDBRANCH   2   3
ENDBRANCH   1   2
BRANCH   1  26
HETATM   26  C14 UNL     1       7.802   2.443  11.978  1.00  0.00     0.126 C 
BRANCH  26  27
HETATM   27  N6  UNL     1       7.746   2.248  10.558  1.00  0.00    -0.343 N 
HETATM   28  C15 UNL     1       7.923   3.308   9.660  1.00  0.00     0.318 C 
HETATM   29  O1  UNL     1       8.165   4.460  10.129  1.00  0.00    -0.247 OA
HETATM   30  N7  UNL     1       7.833   3.076   8.266  1.00  0.00    -0.328 N 
HETATM   31  C16 UNL     1       7.523   1.813   7.636  1.00  0.00     0.129 C 
HETATM   32  C25 UNL     1       8.049   3.990   7.147  1.00  0.00     0.115 C 
HETATM   33  C17 UNL     1       6.694   2.244   6.434  1.00  0.00     0.036 C 
HETATM   34  C18 UNL     1       6.935   3.725   6.240  1.00  0.00     0.103 C 
ATOM     35  H6  UNL     1       7.573   1.312  10.192  1.00  0.00     0.164 HD
BRANCH  34  36
HETATM   36  C19 UNL     1       5.662   4.424   6.422  1.00  0.00     0.224 C 
HETATM   37  O2  UNL     1       5.365   5.521   5.895  1.00  0.00    -0.273 OA
HETATM   38  N8  UNL     1       4.691   3.830   7.244  1.00  0.00    -0.359 N 
ATOM     39  H8  UNL     1       4.917   2.938   7.684  1.00  0.00     0.162 HD
BRANCH  38  40
HETATM   40  C20 UNL     1       3.388   4.405   7.506  1.00  0.00     0.150 C 
BRANCH  40  41
HETATM   41  C21 UNL     1       2.350   3.998   6.497  1.00  0.00     0.255 C 
BRANCH  41  42
HETATM   42  N9  UNL     1       1.690   5.193   6.007  1.00  0.00    -0.077 N 
HETATM   43  C22 UNL     1       0.233   5.047   6.105  1.00  0.00     0.271 C 
HETATM   44  C23 UNL     1       2.046   6.328   6.808  1.00  0.00     0.271 C 
HETATM   45  C24 UNL     1       2.071   5.394   4.618  1.00  0.00     0.271 C 
ENDBRANCH  41  42
ENDBRANCH  40  41
ENDBRANCH  38  40
ENDBRANCH  34  36
BRANCH  32  46
HETATM   46  C26 UNL     1       8.348   5.367   7.552  1.00  0.00     0.166 C 
BRANCH  46  47
HETATM   47  S1  UNL     1      10.010   5.851   7.109  1.00  0.00     0.142 S 
HETATM   48  C27 UNL     1      10.250   5.459   5.372  1.00  0.00     0.161 C 
HETATM   49  O3  UNL     1      11.063   5.220   7.922  1.00  0.00    -0.228 OA
HETATM   50  O4  UNL     1      10.048   7.370   7.199  1.00  0.00    -0.228 OA
ENDBRANCH  46  47
ENDBRANCH  32  46
ENDBRANCH  26  27
ENDBRANCH   1  26
TORSDOF 11
ENDMDL
MODEL 4
REMARK VINA RESULT: -9.370433562      2.062      4.832
REMARK  11 active torsions:
REMARK  status: ('A' for Active; 'I' for Inactive)
REMARK    1  A    between atoms: C9_9  and  N1_10 
REMARK       I    between atoms: N1_10  and  C10_12 
REMARK       I    between atoms: N3_14  and  C11_16 
REMARK       I    between atoms: C11_16  and  N5_20 
REMARK    2  A    between atoms: N5_20  and  C12_22 
REMARK    3  A    between atoms: C12_22  and  C13_23 
REMARK    4  A    between atoms: C13_23  and  C14_24 
REMARK    5  A    between atoms: C14_24  and  N6_25 
REMARK       I    between atoms: N6_25  and  C15_27 
REMARK       I    between atoms: C15_27  and  N7_29 
REMARK    6  A    between atoms: C18_32  and  C19_33 
REMARK       I    between atoms: C19_33  and  N8_35 
REMARK    7  A    between atoms: N8_35  and  C20_37 
REMARK    8  A    between atoms: C20_37  and  C21_38 
REMARK    9  A    between atoms: C21_38  and  N9_39 
REMARK   10  A    between atoms: C25_43  and  C26_44 
REMARK   11  A    between atoms: C26_44  and  S1_45 
ROOT
HETATM    1  C13 UNL     1       0.172  -0.498  13.636  1.00  0.00     0.040 C 
ENDROOT
BRANCH   1   2
HETATM    2  C12 UNL     1       0.034   0.133  12.246  1.00  0.00     0.139 C 
BRANCH   2   3
HETATM    3  N5  UNL     1       1.077   1.049  12.013  1.00  0.00    -0.226 N 
HETATM    4  C11 UNL     1       2.014   0.933  10.977  1.00  0.00     0.674 C 
HETATM    5  N3  UNL     1       2.753  -0.214  10.737  1.00  0.00    -0.164 N 
HETATM    6  N4  UNL     1       2.166   1.977  10.208  1.00  0.00    -0.235 N 
HETATM    7  C10 UNL     1       3.957  -0.359  11.228  1.00  0.00     0.203 C 
ATOM      8  H3  UNL     1       2.351  -0.959  10.168  1.00  0.00     0.187 HD
HETATM    9  N1  UNL     1       4.503   0.664  12.008  1.00  0.00    -0.355 N 
HETATM   10  N2  UNL     1       4.674  -1.550  10.965  1.00  0.00    -0.063 NA
ATOM     11  H1  UNL     1       3.931   1.070  12.748  1.00  0.00     0.163 HD
ATOM     12  H42 UNL     1       2.848   1.893   9.454  1.00  0.00     0.174 HD
ATOM     13  H41 UNL     1       1.622   2.821  10.385  1.00  0.00     0.174 HD
ATOM     14  H5  UNL     1       1.155   1.850  12.639  1.00  0.00     0.177 HD
BRANCH   9  15
HETATM   15  C9  UNL     1       5.830   1.171  11.816  1.00  0.00     0.034 C 
HETATM   16  C8  UNL     1       6.353   1.723  13.155  1.00  0.00     0.035 C 
HETATM   17  C6  UNL     1       7.732   2.264  12.957  1.00  0.00    -0.011 C 
HETATM   18  C5  UNL     1       8.679   1.162  12.516  1.00  0.00     0.009 C 
HETATM   19  C7  UNL     1       7.732   3.386  11.959  1.00  0.00     0.014 C 
HETATM   20  C4  UNL     1       8.184   0.608  11.222  1.00  0.00    -0.011 C 
HETATM   21  C3  UNL     1       8.088   1.685  10.163  1.00  0.00     0.014 C 
HETATM   22  C28 UNL     1       6.773   0.064  11.444  1.00  0.00     0.035 C 
HETATM   23  C2  UNL     1       7.232   2.823  10.644  1.00  0.00    -0.041 C 
HETATM   24  C1  UNL     1       7.179   3.908   9.600  1.00  0.00     0.015 C 
HETATM   25  C29 UNL     1       5.830   2.297  10.834  1.00  0.00     0.040 C 
ENDBRANCH   9  15
ENDBRANCH   2   3
ENDBRANCH   1   2
BRANCH   1  26
HETATM   26  C14 UNL     1       1.661  -0.387  13.940  1.00  0.00     0.126 C 
BRANCH  26  27
HETATM   27  N6  UNL     1       1.965  -1.258  15.038  1.00  0.00    -0.343 N 
HETATM   28  C15 UNL     1       3.125  -2.043  15.059  1.00  0.00     0.318 C 
HETATM   29  O1  UNL     1       3.931  -1.951  14.086  1.00  0.00    -0.247 OA
HETATM   30  N7  UNL     1       3.372  -2.911  16.150  1.00  0.00    -0.328 N 
HETATM   31  C16 UNL     1       2.499  -3.116  17.283  1.00  0.00     0.129 C 
HETATM   32  C25 UNL     1       4.527  -3.760  16.430  1.00  0.00     0.115 C 
HETATM   33  C17 UNL     1       2.687  -4.598  17.574  1.00  0.00     0.036 C 
HETATM   34  C18 UNL     1       3.948  -5.032  16.858  1.00  0.00     0.103 C 
ATOM     35  H6  UNL     1       1.319  -1.307  15.826  1.00  0.00     0.164 HD
BRANCH  34  36
HETATM   36  C19 UNL     1       3.585  -6.041  15.863  1.00  0.00     0.224 C 
HETATM   37  O2  UNL     1       2.935  -5.814  14.815  1.00  0.00    -0.273 OA
HETATM   38  N8  UNL     1       3.990  -7.366  16.083  1.00  0.00    -0.359 N 
ATOM     39  H8  UNL     1       4.518  -7.571  16.933  1.00  0.00     0.162 HD
BRANCH  38  40
HETATM   40  C20 UNL     1       3.708  -8.463  15.180  1.00  0.00     0.150 C 
BRANCH  40  41
HETATM   41  C21 UNL     1       3.335  -9.733  15.892  1.00  0.00     0.255 C 
BRANCH  41  42
HETATM   42  N9  UNL     1       3.839 -10.856  15.126  1.00  0.00    -0.077 N 
HETATM   43  C22 UNL     1       5.220 -11.163  15.520  1.00  0.00     0.271 C 
HETATM   44  C23 UNL     1       3.064 -12.033  15.390  1.00  0.00     0.271 C 
HETATM   45  C24 UNL     1       3.797 -10.510  13.715  1.00  0.00     0.271 C 
ENDBRANCH  41  42
ENDBRANCH  40  41
ENDBRANCH  38  40
ENDBRANCH  34  36
BRANCH  32  46
HETATM   46  C26 UNL     1       5.549  -3.741  15.380  1.00  0.00     0.166 C 
BRANCH  46  47
HETATM   47  S1  UNL     1       6.985  -2.792  15.858  1.00  0.00     0.142 S 
HETATM   48  C27 UNL     1       7.422  -1.727  14.479  1.00  0.00     0.161 C 
HETATM   49  O3  UNL     1       8.145  -3.606  16.261  1.00  0.00    -0.228 OA
HETATM   50  O4  UNL     1       6.526  -1.860  16.971  1.00  0.00    -0.228 OA
ENDBRANCH  46  47
ENDBRANCH  32  46
ENDBRANCH  26  27
ENDBRANCH   1  26
TORSDOF 11
ENDMDL
MODEL 5
REMARK VINA RESULT: -9.228418322      3.980      7.220
REMARK  11 active torsions:
REMARK  status: ('A' for Active; 'I' for Inactive)
REMARK    1  A    between atoms: C9_9  and  N1_10 
REMARK       I    between atoms: N1_10  and  C10_12 
REMARK       I    between atoms: N3_14  and  C11_16 
REMARK       I    between atoms: C11_16  and  N5_20 
REMARK    2  A    between atoms: N5_20  and  C12_22 
REMARK    3  A    between atoms: C12_22  and  C13_23 
REMARK    4  A    between atoms: C13_23  and  C14_24 
REMARK    5  A    between atoms: C14_24  and  N6_25 
REMARK       I    between atoms: N6_25  and  C15_27 
REMARK       I    between atoms: C15_27  and  N7_29 
REMARK    6  A    between atoms: C18_32  and  C19_33 
REMARK       I    between atoms: C19_33  and  N8_35 
REMARK    7  A    between atoms: N8_35  and  C20_37 
REMARK    8  A    between atoms: C20_37  and  C21_38 
REMARK    9  A    between atoms: C21_38  and  N9_39 
REMARK   10  A    between atoms: C25_43  and  C26_44 
REMARK   11  A    between atoms: C26_44  and  S1_45 
ROOT
HETATM    1  C13 UNL     1       1.645  -3.916  15.806  1.00  0.00     0.040 C 
ENDROOT
BRANCH   1   2
HETATM    2  C12 UNL     1       2.177  -2.521  16.155  1.00  0.00     0.139 C 
BRANCH   2   3
HETATM    3  N5  UNL     1       3.467  -2.607  16.711  1.00  0.00    -0.226 N 
HETATM    4  C11 UNL     1       4.596  -1.957  16.194  1.00  0.00     0.674 C 
HETATM    5  N3  UNL     1       4.988  -2.040  14.867  1.00  0.00    -0.164 N 
HETATM    6  N4  UNL     1       5.286  -1.233  17.032  1.00  0.00    -0.235 N 
HETATM    7  C10 UNL     1       5.878  -2.916  14.478  1.00  0.00     0.203 C 
ATOM      8  H3  UNL     1       4.575  -1.408  14.182  1.00  0.00     0.187 HD
HETATM    9  N1  UNL     1       6.441  -3.781  15.420  1.00  0.00    -0.355 N 
HETATM   10  N2  UNL     1       6.245  -2.972  13.112  1.00  0.00    -0.063 NA
ATOM     11  H1  UNL     1       5.820  -4.263  16.071  1.00  0.00     0.163 HD
ATOM     12  H42 UNL     1       6.108  -0.759  16.655  1.00  0.00     0.174 HD
ATOM     13  H41 UNL     1       4.998  -1.171  18.008  1.00  0.00     0.174 HD
ATOM     14  H5  UNL     1       3.588  -3.182  17.545  1.00  0.00     0.177 HD
BRANCH   9  15
HETATM   15  C9  UNL     1       7.850  -4.024  15.517  1.00  0.00     0.034 C 
HETATM   16  C8  UNL     1       8.289  -4.902  14.331  1.00  0.00     0.035 C 
HETATM   17  C6  UNL     1       9.756  -5.169  14.434  1.00  0.00    -0.011 C 
HETATM   18  C5  UNL     1      10.540  -3.871  14.355  1.00  0.00     0.009 C 
HETATM   19  C7  UNL     1      10.082  -5.902  15.704  1.00  0.00     0.014 C 
HETATM   20  C4  UNL     1      10.123  -3.000  15.493  1.00  0.00    -0.011 C 
HETATM   21  C3  UNL     1      10.355  -3.685  16.823  1.00  0.00     0.014 C 
HETATM   22  C28 UNL     1       8.621  -2.744  15.373  1.00  0.00     0.035 C 
HETATM   23  C2  UNL     1       9.661  -5.018  16.859  1.00  0.00    -0.041 C 
HETATM   24  C1  UNL     1       9.934  -5.709  18.170  1.00  0.00     0.015 C 
HETATM   25  C29 UNL     1       8.175  -4.766  16.772  1.00  0.00     0.040 C 
ENDBRANCH   9  15
ENDBRANCH   2   3
ENDBRANCH   1   2
BRANCH   1  26
HETATM   26  C14 UNL     1       2.907  -4.744  15.595  1.00  0.00     0.126 C 
BRANCH  26  27
HETATM   27  N6  UNL     1       2.729  -6.012  16.241  1.00  0.00    -0.343 N 
HETATM   28  C15 UNL     1       3.808  -6.862  16.509  1.00  0.00     0.318 C 
HETATM   29  O1  UNL     1       4.972  -6.476  16.191  1.00  0.00    -0.247 OA
HETATM   30  N7  UNL     1       3.584  -8.119  17.124  1.00  0.00    -0.328 N 
HETATM   31  C16 UNL     1       2.297  -8.665  17.488  1.00  0.00     0.129 C 
HETATM   32  C25 UNL     1       4.540  -9.132  17.565  1.00  0.00     0.115 C 
HETATM   33  C17 UNL     1       2.483 -10.150  17.207  1.00  0.00     0.036 C 
HETATM   34  C18 UNL     1       3.972 -10.394  17.098  1.00  0.00     0.103 C 
ATOM     35  H6  UNL     1       1.790  -6.303  16.513  1.00  0.00     0.164 HD
BRANCH  34  36
HETATM   36  C19 UNL     1       4.260 -10.869  15.745  1.00  0.00     0.224 C 
HETATM   37  O2  UNL     1       5.276 -11.524  15.415  1.00  0.00    -0.273 OA
HETATM   38  N8  UNL     1       3.335 -10.578  14.729  1.00  0.00    -0.359 N 
ATOM     39  H8  UNL     1       2.503 -10.042  14.978  1.00  0.00     0.162 HD
BRANCH  38  40
HETATM   40  C20 UNL     1       3.488 -10.991  13.349  1.00  0.00     0.150 C 
BRANCH  40  41
HETATM   41  C21 UNL     1       2.501 -12.047  12.937  1.00  0.00     0.255 C 
BRANCH  41  42
HETATM   42  N9  UNL     1       2.221 -11.890  11.522  1.00  0.00    -0.077 N 
HETATM   43  C22 UNL     1       2.293 -13.188  10.841  1.00  0.00     0.271 C 
HETATM   44  C23 UNL     1       0.891 -11.393  11.326  1.00  0.00     0.271 C 
HETATM   45  C24 UNL     1       3.206 -10.982  10.955  1.00  0.00     0.271 C 
ENDBRANCH  41  42
ENDBRANCH  40  41
ENDBRANCH  38  40
ENDBRANCH  34  36
BRANCH  32  46
HETATM   46  C26 UNL     1       5.937  -8.804  17.263  1.00  0.00     0.166 C 
BRANCH  46  47
HETATM   47  S1  UNL     1       7.075  -9.677  18.326  1.00  0.00     0.142 S 
HETATM   48  C27 UNL     1       7.946 -10.886  17.322  1.00  0.00     0.161 C 
HETATM   49  O3  UNL     1       6.444 -10.336  19.482  1.00  0.00    -0.228 OA
HETATM   50  O4  UNL     1       8.125  -8.659  18.751  1.00  0.00    -0.228 OA
ENDBRANCH  46  47
ENDBRANCH  32  46
ENDBRANCH  26  27
ENDBRANCH   1  26
TORSDOF 11
ENDMDL
