MODEL 1
REMARK VINA RESULT: -7.949237388      0.000      0.000
REMARK  11 active torsions:
REMARK  status: ('A' for Active; 'I' for Inactive)
REMARK    1  A    between atoms: N1_2  and  C3_4 
REMARK    2  A    between atoms: N1_2  and  C9_10 
REMARK    3  A    between atoms: C14_18  and  C15_19 
REMARK    4  A    between atoms: C15_19  and  C16_20 
REMARK    5  A    between atoms: C16_20  and  C17_21 
REMARK    6  A    between atoms: C17_21  and  N3_22 
REMARK    7  A    between atoms: C20_31  and  C21_32 
REMARK    8  A    between atoms: C21_32  and  C22_33 
REMARK    9  A    between atoms: C22_33  and  C23_34 
REMARK   10  A    between atoms: C23_34  and  C24_35 
REMARK   11  A    between atoms: C24_35  and  N7_36 
ROOT
HETATM    1  C9  UNL     1       3.199 -11.644  17.641  1.00  0.00     0.293 C 
HETATM    2  C10 UNL     1       2.341 -10.845  18.618  1.00  0.00     0.058 C 
HETATM    3  C11 UNL     1       2.408  -9.490  17.982  1.00  0.00     0.039 C 
HETATM    4  C12 UNL     1       3.835  -9.457  17.478  1.00  0.00     0.181 C 
HETATM    5  C13 UNL     1       3.740  -8.928  16.085  1.00  0.00     0.241 C 
HETATM    6  O1  UNL     1       3.344  -9.764  15.189  1.00  0.00    -0.271 OA
HETATM    7  N2  UNL     1       4.053  -7.607  15.735  1.00  0.00    -0.346 N 
ATOM      8  H2  UNL     1       3.936  -7.375  14.748  1.00  0.00     0.163 HD
HETATM    9  C14 UNL     1       4.512  -6.536  16.567  1.00  0.00     0.176 C 
HETATM   10  C19 UNL     1       5.221  -5.517  15.729  1.00  0.00     0.241 C 
HETATM   11  O2  UNL     1       4.510  -5.013  14.793  1.00  0.00    -0.271 OA
HETATM   12  N6  UNL     1       6.548  -5.087  15.875  1.00  0.00    -0.347 N 
ATOM     13  H6  UNL     1       7.122  -5.131  15.033  1.00  0.00     0.163 HD
HETATM   14  C20 UNL     1       7.204  -4.594  17.046  1.00  0.00     0.162 C 
HETATM   15  C26 UNL     1       7.394  -5.567  18.136  1.00  0.00     0.217 C 
HETATM   16  O3  UNL     1       6.731  -5.427  19.228  1.00  0.00    -0.287 OA
HETATM   17  C27 UNL     1       8.293  -6.701  18.078  1.00  0.00     0.197 C 
HETATM   18  O4  UNL     1       9.012  -6.993  19.096  1.00  0.00    -0.289 OA
HETATM   19  C28 UNL     1       8.463  -7.585  16.913  1.00  0.00     0.087 C 
HETATM   20  C29 UNL     1       8.928  -8.972  17.327  1.00  0.00     0.008 C 
HETATM   21  C30 UNL     1       7.945 -10.027  16.872  1.00  0.00     0.010 C 
HETATM   22  C31 UNL     1       6.701 -10.035  17.777  1.00  0.00     0.103 C 
HETATM   23  C32 UNL     1       5.706 -10.963  17.210  1.00  0.00     0.222 C 
HETATM   24  O5  UNL     1       6.127 -11.897  16.495  1.00  0.00    -0.273 OA
HETATM   25  N10 UNL     1       4.308 -10.840  17.441  1.00  0.00    -0.310 N 
ENDROOT
BRANCH   1  26
HETATM   26  N1  UNL     1       3.185 -12.977  18.064  1.00  0.00    -0.050 N 
HETATM   27  C1  UNL     1       3.427 -13.944  16.991  1.00  0.00     0.275 C 
HETATM   28  C2  UNL     1       1.743 -13.205  18.381  1.00  0.00     0.275 C 
BRANCH  26  29
HETATM   29  C3  UNL     1       3.824 -13.314  19.291  1.00  0.00     0.192 C 
HETATM   30  C4  UNL     1       2.934 -14.185  20.149  1.00  0.00     0.033 C 
HETATM   31  C5  UNL     1       3.580 -15.541  20.438  1.00  0.00     0.002 C 
HETATM   32  C6  UNL     1       4.759 -15.264  21.340  1.00  0.00     0.000 C 
HETATM   33  C7  UNL     1       5.566 -14.186  20.720  1.00  0.00     0.002 C 
HETATM   34  C8  UNL     1       5.169 -13.917  19.255  1.00  0.00     0.033 C 
ENDBRANCH  26  29
ENDBRANCH   1  26
BRANCH   9  35
HETATM   35  C15 UNL     1       3.546  -5.841  17.425  1.00  0.00     0.036 C 
BRANCH  35  36
HETATM   36  C16 UNL     1       2.476  -5.008  16.873  1.00  0.00     0.022 C 
BRANCH  36  37
HETATM   37  C17 UNL     1       2.525  -3.592  17.320  1.00  0.00     0.122 C 
BRANCH  37  38
HETATM   38  N3  UNL     1       2.557  -2.724  16.107  1.00  0.00    -0.367 N 
HETATM   39  C18 UNL     1       3.614  -2.074  15.837  1.00  0.00     0.196 C 
HETATM   40  N4  UNL     1       3.638  -1.252  14.685  1.00  0.00    -0.067 NA
HETATM   41  N5  UNL     1       4.788  -2.130  16.641  1.00  0.00    -0.067 NA
ATOM     42  H3  UNL     1       1.738  -2.652  15.502  1.00  0.00     0.161 HD
ENDBRANCH  37  38
ENDBRANCH  36  37
ENDBRANCH  35  36
ENDBRANCH   9  35
BRANCH  14  43
HETATM   43  C21 UNL     1       8.561  -3.974  16.704  1.00  0.00     0.033 C 
BRANCH  43  44
HETATM   44  C22 UNL     1       8.495  -3.205  15.418  1.00  0.00     0.004 C 
BRANCH  44  45
HETATM   45  C23 UNL     1       8.489  -1.722  15.666  1.00  0.00     0.020 C 
BRANCH  45  46
HETATM   46  C24 UNL     1       7.612  -0.988  14.681  1.00  0.00     0.122 C 
BRANCH  46  47
HETATM   47  N7  UNL     1       6.775  -1.927  13.942  1.00  0.00    -0.367 N 
HETATM   48  C25 UNL     1       6.411  -1.717  12.716  1.00  0.00     0.196 C 
HETATM   49  N8  UNL     1       6.839  -0.539  12.071  1.00  0.00    -0.067 NA
HETATM   50  N9  UNL     1       5.602  -2.704  12.116  1.00  0.00    -0.067 NA
ATOM     51  H7  UNL     1       6.464  -2.779  14.408  1.00  0.00     0.161 HD
ENDBRANCH  46  47
ENDBRANCH  45  46
ENDBRANCH  44  45
ENDBRANCH  43  44
ENDBRANCH  14  43
TORSDOF 11
ENDMDL
MODEL 2
REMARK VINA RESULT: -7.884250270      2.770      5.926
REMARK  11 active torsions:
REMARK  status: ('A' for Active; 'I' for Inactive)
REMARK    1  A    between atoms: N1_2  and  C3_4 
REMARK    2  A    between atoms: N1_2  and  C9_10 
REMARK    3  A    between atoms: C14_18  and  C15_19 
REMARK    4  A    between atoms: C15_19  and  C16_20 
REMARK    5  A    between atoms: C16_20  and  C17_21 
REMARK    6  A    between atoms: C17_21  and  N3_22 
REMARK    7  A    between atoms: C20_31  and  C21_32 
REMARK    8  A    between atoms: C21_32  and  C22_33 
REMARK    9  A    between atoms: C22_33  and  C23_34 
REMARK   10  A    between atoms: C23_34  and  C24_35 
REMARK   11  A    between atoms: C24_35  and  N7_36 
ROOT
HETATM    1  C9  UNL     1       8.184  -8.379  17.844  1.00  0.00     0.293 C 
HETATM    2  C10 UNL     1       9.074  -7.975  16.673  1.00  0.00     0.058 C 
HETATM    3  C11 UNL     1       8.827  -6.498  16.650  1.00  0.00     0.039 C 
HETATM    4  C12 UNL     1       7.356  -6.426  17.000  1.00  0.00     0.181 C 
HETATM    5  C13 UNL     1       7.255  -5.347  18.027  1.00  0.00     0.241 C 
HETATM    6  O1  UNL     1       7.618  -5.667  19.220  1.00  0.00    -0.271 OA
HETATM    7  N2  UNL     1       6.798  -4.051  17.747  1.00  0.00    -0.346 N 
ATOM      8  H2  UNL     1       6.787  -3.409  18.540  1.00  0.00     0.163 HD
HETATM    9  C14 UNL     1       6.345  -3.502  16.505  1.00  0.00     0.176 C 
HETATM   10  C19 UNL     1       5.468  -2.317  16.770  1.00  0.00     0.241 C 
HETATM   11  O2  UNL     1       6.029  -1.380  17.436  1.00  0.00    -0.271 OA
HETATM   12  N6  UNL     1       4.134  -2.154  16.369  1.00  0.00    -0.347 N 
ATOM     13  H6  UNL     1       3.477  -1.905  17.108  1.00  0.00     0.163 HD
HETATM   14  C20 UNL     1       3.570  -2.291  15.062  1.00  0.00     0.162 C 
HETATM   15  C26 UNL     1       3.581  -3.650  14.494  1.00  0.00     0.217 C 
HETATM   16  O3  UNL     1       4.345  -3.910  13.494  1.00  0.00    -0.287 OA
HETATM   17  C27 UNL     1       2.777  -4.752  14.983  1.00  0.00     0.197 C 
HETATM   18  O4  UNL     1       2.200  -5.534  14.151  1.00  0.00    -0.289 OA
HETATM   19  C28 UNL     1       2.555  -5.069  16.404  1.00  0.00     0.087 C 
HETATM   20  C29 UNL     1       2.253  -6.545  16.607  1.00  0.00     0.008 C 
HETATM   21  C30 UNL     1       3.265  -7.178  17.535  1.00  0.00     0.010 C 
HETATM   22  C31 UNL     1       4.596  -7.419  16.804  1.00  0.00     0.103 C 
HETATM   23  C32 UNL     1       5.597  -7.889  17.779  1.00  0.00     0.222 C 
HETATM   24  O5  UNL     1       5.179  -8.473  18.801  1.00  0.00    -0.273 OA
HETATM   25  N10 UNL     1       6.997  -7.708  17.605  1.00  0.00    -0.310 N 
ENDROOT
BRANCH   1  26
HETATM   26  N1  UNL     1       8.353  -9.753  18.046  1.00  0.00    -0.050 N 
HETATM   27  C1  UNL     1       8.359 -10.152  19.455  1.00  0.00     0.275 C 
HETATM   28  C2  UNL     1       9.776  -9.970  17.646  1.00  0.00     0.275 C 
BRANCH  26  29
HETATM   29  C3  UNL     1       7.657 -10.661  17.199  1.00  0.00     0.192 C 
HETATM   30  C4  UNL     1       8.556 -11.795  16.758  1.00  0.00     0.033 C 
HETATM   31  C5  UNL     1       8.016 -13.152  17.211  1.00  0.00     0.002 C 
HETATM   32  C6  UNL     1       6.753 -13.391  16.420  1.00  0.00     0.000 C 
HETATM   33  C7  UNL     1       5.899 -12.185  16.546  1.00  0.00     0.002 C 
HETATM   34  C8  UNL     1       6.379 -11.234  17.661  1.00  0.00     0.033 C 
ENDBRANCH  26  29
ENDBRANCH   1  26
BRANCH   9  35
HETATM   35  C15 UNL     1       7.339  -3.126  15.492  1.00  0.00     0.036 C 
BRANCH  35  36
HETATM   36  C16 UNL     1       8.389  -2.143  15.761  1.00  0.00     0.022 C 
BRANCH  36  37
HETATM   37  C17 UNL     1       8.517  -1.098  14.713  1.00  0.00     0.122 C 
BRANCH  37  38
HETATM   38  N3  UNL     1       7.282  -0.263  14.737  1.00  0.00    -0.367 N 
HETATM   39  C18 UNL     1       6.546  -0.214  13.703  1.00  0.00     0.196 C 
HETATM   40  N4  UNL     1       5.375   0.580  13.732  1.00  0.00    -0.067 NA
HETATM   41  N5  UNL     1       6.843  -0.924  12.504  1.00  0.00    -0.067 NA
ATOM     42  H3  UNL     1       7.031   0.263  15.574  1.00  0.00     0.161 HD
ENDBRANCH  37  38
ENDBRANCH  36  37
ENDBRANCH  35  36
ENDBRANCH   9  35
BRANCH  14  43
HETATM   43  C21 UNL     1       2.138  -1.754  15.014  1.00  0.00     0.033 C 
BRANCH  43  44
HETATM   44  C22 UNL     1       2.045  -0.538  14.141  1.00  0.00     0.004 C 
BRANCH  44  45
HETATM   45  C23 UNL     1       0.624  -0.258  13.740  1.00  0.00     0.020 C 
BRANCH  45  46
HETATM   46  C24 UNL     1       0.537   0.404  12.387  1.00  0.00     0.122 C 
BRANCH  46  47
HETATM   47  N7  UNL     1       1.738   1.190  12.124  1.00  0.00    -0.367 N 
HETATM   48  C25 UNL     1       1.694   2.456  11.854  1.00  0.00     0.196 C 
HETATM   49  N8  UNL     1       0.441   3.100  11.811  1.00  0.00    -0.067 NA
HETATM   50  N9  UNL     1       2.927   3.100  11.621  1.00  0.00    -0.067 NA
ATOM     51  H7  UNL     1       2.646   0.725  12.155  1.00  0.00     0.161 HD
ENDBRANCH  46  47
ENDBRANCH  45  46
ENDBRANCH  44  45
ENDBRANCH  43  44
ENDBRANCH  14  43
TORSDOF 11
ENDMDL
MODEL 3
REMARK VINA RESULT: -7.787013265      0.776      1.500
REMARK  11 active torsions:
REMARK  status: ('A' for Active; 'I' for Inactive)
REMARK    1  A    between atoms: N1_2  and  C3_4 
REMARK    2  A    between atoms: N1_2  and  C9_10 
REMARK    3  A    between atoms: C14_18  and  C15_19 
REMARK    4  A    between atoms: C15_19  and  C16_20 
REMARK    5  A    between atoms: C16_20  and  C17_21 
REMARK    6  A    between atoms: C17_21  and  N3_22 
REMARK    7  A    between atoms: C20_31  and  C21_32 
REMARK    8  A    between atoms: C21_32  and  C22_33 
REMARK    9  A    between atoms: C22_33  and  C23_34 
REMARK   10  A    between atoms: C23_34  and  C24_35 
REMARK   11  A    between atoms: C24_35  and  N7_36 
ROOT
HETATM    1  C9  UNL     1       3.216 -11.668  17.624  1.00  0.00     0.293 C 
HETATM    2  C10 UNL     1       2.347 -10.872  18.593  1.00  0.00     0.058 C 
HETATM    3  C11 UNL     1       2.415  -9.516  17.958  1.00  0.00     0.039 C 
HETATM    4  C12 UNL     1       3.847  -9.479  17.467  1.00  0.00     0.181 C 
HETATM    5  C13 UNL     1       3.763  -8.950  16.073  1.00  0.00     0.241 C 
HETATM    6  O1  UNL     1       3.379  -9.787  15.173  1.00  0.00    -0.271 OA
HETATM    7  N2  UNL     1       4.076  -7.627  15.726  1.00  0.00    -0.346 N 
ATOM      8  H2  UNL     1       3.968  -7.396  14.739  1.00  0.00     0.163 HD
HETATM    9  C14 UNL     1       4.523  -6.556  16.563  1.00  0.00     0.176 C 
HETATM   10  C19 UNL     1       5.237  -5.534  15.732  1.00  0.00     0.241 C 
HETATM   11  O2  UNL     1       4.533  -5.032  14.789  1.00  0.00    -0.271 OA
HETATM   12  N6  UNL     1       6.561  -5.099  15.891  1.00  0.00    -0.347 N 
ATOM     13  H6  UNL     1       7.144  -5.141  15.054  1.00  0.00     0.163 HD
HETATM   14  C20 UNL     1       7.204  -4.605  17.068  1.00  0.00     0.162 C 
HETATM   15  C26 UNL     1       7.387  -5.577  18.160  1.00  0.00     0.217 C 
HETATM   16  O3  UNL     1       6.713  -5.439  19.245  1.00  0.00    -0.287 OA
HETATM   17  C27 UNL     1       8.290  -6.708  18.111  1.00  0.00     0.197 C 
HETATM   18  O4  UNL     1       9.000  -6.998  19.135  1.00  0.00    -0.289 OA
HETATM   19  C28 UNL     1       8.474  -7.591  16.947  1.00  0.00     0.087 C 
HETATM   20  C29 UNL     1       8.940  -8.977  17.365  1.00  0.00     0.008 C 
HETATM   21  C30 UNL     1       7.965 -10.035  16.901  1.00  0.00     0.010 C 
HETATM   22  C31 UNL     1       6.712 -10.047  17.794  1.00  0.00     0.103 C 
HETATM   23  C32 UNL     1       5.726 -10.978  17.217  1.00  0.00     0.222 C 
HETATM   24  O5  UNL     1       6.157 -11.911  16.506  1.00  0.00    -0.273 OA
HETATM   25  N10 UNL     1       4.325 -10.860  17.435  1.00  0.00    -0.310 N 
ENDROOT
BRANCH   1  26
HETATM   26  N1  UNL     1       3.203 -13.001  18.047  1.00  0.00    -0.050 N 
HETATM   27  C1  UNL     1       1.888 -13.473  18.485  1.00  0.00     0.275 C 
HETATM   28  C2  UNL     1       3.967 -12.946  19.329  1.00  0.00     0.275 C 
BRANCH  26  29
HETATM   29  C3  UNL     1       3.934 -13.965  17.296  1.00  0.00     0.192 C 
HETATM   30  C4  UNL     1       4.150 -15.230  18.098  1.00  0.00     0.033 C 
HETATM   31  C5  UNL     1       3.521 -16.445  17.414  1.00  0.00     0.002 C 
HETATM   32  C6  UNL     1       4.329 -16.692  16.162  1.00  0.00     0.000 C 
HETATM   33  C7  UNL     1       4.432 -15.410  15.425  1.00  0.00     0.002 C 
HETATM   34  C8  UNL     1       3.454 -14.342  15.955  1.00  0.00     0.033 C 
ENDBRANCH  26  29
ENDBRANCH   1  26
BRANCH   9  35
HETATM   35  C15 UNL     1       3.546  -5.863  17.412  1.00  0.00     0.036 C 
BRANCH  35  36
HETATM   36  C16 UNL     1       2.480  -5.033  16.849  1.00  0.00     0.022 C 
BRANCH  36  37
HETATM   37  C17 UNL     1       2.528  -3.614  17.287  1.00  0.00     0.122 C 
BRANCH  37  38
HETATM   38  N3  UNL     1       2.565  -2.754  16.070  1.00  0.00    -0.367 N 
HETATM   39  C18 UNL     1       3.622  -2.103  15.802  1.00  0.00     0.196 C 
HETATM   40  N4  UNL     1       3.651  -1.288  14.645  1.00  0.00    -0.067 NA
HETATM   41  N5  UNL     1       4.791  -2.151  16.614  1.00  0.00    -0.067 NA
ATOM     42  H3  UNL     1       1.750  -2.689  15.459  1.00  0.00     0.161 HD
ENDBRANCH  37  38
ENDBRANCH  36  37
ENDBRANCH  35  36
ENDBRANCH   9  35
BRANCH  14  43
HETATM   43  C21 UNL     1       8.562  -3.980  16.739  1.00  0.00     0.033 C 
BRANCH  43  44
HETATM   44  C22 UNL     1       8.507  -3.214  15.451  1.00  0.00     0.004 C 
BRANCH  44  45
HETATM   45  C23 UNL     1       8.513  -1.730  15.694  1.00  0.00     0.020 C 
BRANCH  45  46
HETATM   46  C24 UNL     1       7.632  -0.993  14.715  1.00  0.00     0.122 C 
BRANCH  46  47
HETATM   47  N7  UNL     1       6.793  -1.930  13.976  1.00  0.00    -0.367 N 
HETATM   48  C25 UNL     1       6.434  -1.721  12.748  1.00  0.00     0.196 C 
HETATM   49  N8  UNL     1       6.868  -0.547  12.102  1.00  0.00    -0.067 NA
HETATM   50  N9  UNL     1       5.622  -2.706  12.148  1.00  0.00    -0.067 NA
ATOM     51  H7  UNL     1       6.477  -2.780  14.442  1.00  0.00     0.161 HD
ENDBRANCH  46  47
ENDBRANCH  45  46
ENDBRANCH  44  45
ENDBRANCH  43  44
ENDBRANCH  14  43
TORSDOF 11
ENDMDL
MODEL 4
REMARK VINA RESULT: -7.680518817      3.184      9.177
REMARK  11 active torsions:
REMARK  status: ('A' for Active; 'I' for Inactive)
REMARK    1  A    between atoms: N1_2  and  C3_4 
REMARK    2  A    between atoms: N1_2  and  C9_10 
REMARK    3  A    between atoms: C14_18  and  C15_19 
REMARK    4  A    between atoms: C15_19  and  C16_20 
REMARK    5  A    between atoms: C16_20  and  C17_21 
REMARK    6  A    between atoms: C17_21  and  N3_22 
REMARK    7  A    between atoms: C20_31  and  C21_32 
REMARK    8  A    between atoms: C21_32  and  C22_33 
REMARK    9  A    between atoms: C22_33  and  C23_34 
REMARK   10  A    between atoms: C23_34  and  C24_35 
REMARK   11  A    between atoms: C24_35  and  N7_36 
ROOT
HETATM    1  C9  UNL     1       3.942  -4.752  16.271  1.00  0.00     0.293 C 
HETATM    2  C10 UNL     1       3.492  -5.313  14.926  1.00  0.00     0.058 C 
HETATM    3  C11 UNL     1       3.046  -6.681  15.345  1.00  0.00     0.039 C 
HETATM    4  C12 UNL     1       4.073  -7.028  16.403  1.00  0.00     0.181 C 
HETATM    5  C13 UNL     1       3.283  -7.589  17.538  1.00  0.00     0.241 C 
HETATM    6  O1  UNL     1       2.672  -6.733  18.280  1.00  0.00    -0.271 OA
HETATM    7  N2  UNL     1       3.188  -8.962  17.812  1.00  0.00    -0.346 N 
ATOM      8  H2  UNL     1       2.608  -9.209  18.614  1.00  0.00     0.163 HD
HETATM    9  C14 UNL     1       3.788 -10.064  17.124  1.00  0.00     0.176 C 
HETATM   10  C19 UNL     1       3.873 -11.244  18.043  1.00  0.00     0.241 C 
HETATM   11  O2  UNL     1       2.748 -11.634  18.510  1.00  0.00    -0.271 OA
HETATM   12  N6  UNL     1       5.036 -11.929  18.423  1.00  0.00    -0.347 N 
ATOM     13  H6  UNL     1       5.175 -12.042  19.428  1.00  0.00     0.163 HD
HETATM   14  C20 UNL     1       6.055 -12.491  17.592  1.00  0.00     0.162 C 
HETATM   15  C26 UNL     1       6.866 -11.529  16.825  1.00  0.00     0.217 C 
HETATM   16  O3  UNL     1       6.745 -11.480  15.548  1.00  0.00    -0.287 OA
HETATM   17  C27 UNL     1       7.817 -10.605  17.411  1.00  0.00     0.197 C 
HETATM   18  O4  UNL     1       8.950 -10.420  16.846  1.00  0.00    -0.289 OA
HETATM   19  C28 UNL     1       7.592  -9.829  18.641  1.00  0.00     0.087 C 
HETATM   20  C29 UNL     1       8.412  -8.549  18.653  1.00  0.00     0.008 C 
HETATM   21  C30 UNL     1       7.516  -7.338  18.777  1.00  0.00     0.010 C 
HETATM   22  C31 UNL     1       6.824  -7.035  17.437  1.00  0.00     0.103 C 
HETATM   23  C32 UNL     1       5.847  -5.950  17.640  1.00  0.00     0.222 C 
HETATM   24  O5  UNL     1       6.052  -5.155  18.582  1.00  0.00    -0.273 OA
HETATM   25  N10 UNL     1       4.699  -5.774  16.819  1.00  0.00    -0.310 N 
ENDROOT
BRANCH   1  26
HETATM   26  N1  UNL     1       4.335  -3.426  16.062  1.00  0.00    -0.050 N 
HETATM   27  C1  UNL     1       3.885  -2.500  17.104  1.00  0.00     0.275 C 
HETATM   28  C2  UNL     1       3.504  -3.019  14.890  1.00  0.00     0.275 C 
BRANCH  26  29
HETATM   29  C3  UNL     1       5.658  -3.168  15.603  1.00  0.00     0.192 C 
HETATM   30  C4  UNL     1       5.643  -2.403  14.298  1.00  0.00     0.033 C 
HETATM   31  C5  UNL     1       6.350  -1.053  14.426  1.00  0.00     0.002 C 
HETATM   32  C6  UNL     1       7.815  -1.359  14.626  1.00  0.00     0.000 C 
HETATM   33  C7  UNL     1       7.929  -2.353  15.721  1.00  0.00     0.002 C 
HETATM   34  C8  UNL     1       6.617  -2.515  16.513  1.00  0.00     0.033 C 
ENDBRANCH  26  29
ENDBRANCH   1  26
BRANCH   9  35
HETATM   35  C15 UNL     1       3.206 -10.508  15.852  1.00  0.00     0.036 C 
BRANCH  35  36
HETATM   36  C16 UNL     1       3.769 -10.112  14.559  1.00  0.00     0.022 C 
BRANCH  36  37
HETATM   37  C17 UNL     1       3.560 -11.113  13.481  1.00  0.00     0.122 C 
BRANCH  37  38
HETATM   38  N3  UNL     1       3.502 -10.387  12.180  1.00  0.00    -0.367 N 
HETATM   39  C18 UNL     1       2.736 -10.818  11.263  1.00  0.00     0.196 C 
HETATM   40  N4  UNL     1       2.686 -10.124  10.029  1.00  0.00    -0.067 NA
HETATM   41  N5  UNL     1       1.918 -11.974  11.412  1.00  0.00    -0.067 NA
ATOM     42  H3  UNL     1       4.072  -9.554  12.028  1.00  0.00     0.161 HD
ENDBRANCH  37  38
ENDBRANCH  36  37
ENDBRANCH  35  36
ENDBRANCH   9  35
BRANCH  14  43
HETATM   43  C21 UNL     1       6.996 -13.390  18.397  1.00  0.00     0.033 C 
BRANCH  43  44
HETATM   44  C22 UNL     1       7.350 -14.628  17.628  1.00  0.00     0.004 C 
BRANCH  44  45
HETATM   45  C23 UNL     1       8.461 -14.366  16.649  1.00  0.00     0.020 C 
BRANCH  45  46
HETATM   46  C24 UNL     1       9.820 -14.448  17.299  1.00  0.00     0.122 C 
BRANCH  46  47
HETATM   47  N7  UNL     1      10.264 -13.126  17.726  1.00  0.00    -0.367 N 
HETATM   48  C25 UNL     1      10.576 -12.862  18.956  1.00  0.00     0.196 C 
HETATM   49  N8  UNL     1      10.484 -13.888  19.918  1.00  0.00    -0.067 NA
HETATM   50  N9  UNL     1      10.991 -11.544  19.237  1.00  0.00    -0.067 NA
ATOM     51  H7  UNL     1      10.330 -12.382  17.032  1.00  0.00     0.161 HD
ENDBRANCH  46  47
ENDBRANCH  45  46
ENDBRANCH  44  45
ENDBRANCH  43  44
ENDBRANCH  14  43
TORSDOF 11
ENDMDL
MODEL 5
REMARK VINA RESULT: -7.661807851      3.709      9.513
REMARK  11 active torsions:
REMARK  status: ('A' for Active; 'I' for Inactive)
REMARK    1  A    between atoms: N1_2  and  C3_4 
REMARK    2  A    between atoms: N1_2  and  C9_10 
REMARK    3  A    between atoms: C14_18  and  C15_19 
REMARK    4  A    between atoms: C15_19  and  C16_20 
REMARK    5  A    between atoms: C16_20  and  C17_21 
REMARK    6  A    between atoms: C17_21  and  N3_22 
REMARK    7  A    between atoms: C20_31  and  C21_32 
REMARK    8  A    between atoms: C21_32  and  C22_33 
REMARK    9  A    between atoms: C22_33  and  C23_34 
REMARK   10  A    between atoms: C23_34  and  C24_35 
REMARK   11  A    between atoms: C24_35  and  N7_36 
ROOT
HETATM    1  C9  UNL     1       4.004  -4.723  16.285  1.00  0.00     0.293 C 
HETATM    2  C10 UNL     1       3.538  -5.301  14.953  1.00  0.00     0.058 C 
HETATM    3  C11 UNL     1       3.108  -6.668  15.392  1.00  0.00     0.039 C 
HETATM    4  C12 UNL     1       4.153  -6.996  16.439  1.00  0.00     0.181 C 
HETATM    5  C13 UNL     1       3.383  -7.551  17.592  1.00  0.00     0.241 C 
HETATM    6  O1  UNL     1       2.776  -6.691  18.333  1.00  0.00    -0.271 OA
HETATM    7  N2  UNL     1       3.301  -8.921  17.881  1.00  0.00    -0.346 N 
ATOM      8  H2  UNL     1       2.735  -9.164  18.694  1.00  0.00     0.163 HD
HETATM    9  C14 UNL     1       3.899 -10.026  17.196  1.00  0.00     0.176 C 
HETATM   10  C19 UNL     1       4.006 -11.196  18.126  1.00  0.00     0.241 C 
HETATM   11  O2  UNL     1       2.890 -11.589  18.613  1.00  0.00    -0.271 OA
HETATM   12  N6  UNL     1       5.179 -11.869  18.497  1.00  0.00    -0.347 N 
ATOM     13  H6  UNL     1       5.332 -11.970  19.500  1.00  0.00     0.163 HD
HETATM   14  C20 UNL     1       6.190 -12.432  17.657  1.00  0.00     0.162 C 
HETATM   15  C26 UNL     1       6.983 -11.472  16.869  1.00  0.00     0.217 C 
HETATM   16  O3  UNL     1       6.844 -11.438  15.593  1.00  0.00    -0.287 OA
HETATM   17  C27 UNL     1       7.936 -10.536  17.432  1.00  0.00     0.197 C 
HETATM   18  O4  UNL     1       9.059 -10.349  16.849  1.00  0.00    -0.289 OA
HETATM   19  C28 UNL     1       7.723  -9.749  18.657  1.00  0.00     0.087 C 
HETATM   20  C29 UNL     1       8.534  -8.463  18.643  1.00  0.00     0.008 C 
HETATM   21  C30 UNL     1       7.630  -7.257  18.767  1.00  0.00     0.010 C 
HETATM   22  C31 UNL     1       6.918  -6.973  17.434  1.00  0.00     0.103 C 
HETATM   23  C32 UNL     1       5.936  -5.893  17.640  1.00  0.00     0.222 C 
HETATM   24  O5  UNL     1       6.149  -5.086  18.570  1.00  0.00    -0.273 OA
HETATM   25  N10 UNL     1       4.775  -5.733  16.833  1.00  0.00    -0.310 N 
ENDROOT
BRANCH   1  26
HETATM   26  N1  UNL     1       4.384  -3.396  16.057  1.00  0.00    -0.050 N 
HETATM   27  C1  UNL     1       3.909  -2.457  17.075  1.00  0.00     0.275 C 
HETATM   28  C2  UNL     1       3.565  -3.021  14.866  1.00  0.00     0.275 C 
BRANCH  26  29
HETATM   29  C3  UNL     1       5.710  -3.131  15.611  1.00  0.00     0.192 C 
HETATM   30  C4  UNL     1       5.705  -2.379  14.298  1.00  0.00     0.033 C 
HETATM   31  C5  UNL     1       6.398  -1.022  14.422  1.00  0.00     0.002 C 
HETATM   32  C6  UNL     1       7.863  -1.313  14.642  1.00  0.00     0.000 C 
HETATM   33  C7  UNL     1       7.973  -2.295  15.748  1.00  0.00     0.002 C 
HETATM   34  C8  UNL     1       6.652  -2.461  16.526  1.00  0.00     0.033 C 
ENDBRANCH  26  29
ENDBRANCH   1  26
BRANCH   9  35
HETATM   35  C15 UNL     1       3.302 -10.487  15.937  1.00  0.00     0.036 C 
BRANCH  35  36
HETATM   36  C16 UNL     1       3.805 -10.052  14.633  1.00  0.00     0.022 C 
BRANCH  36  37
HETATM   37  C17 UNL     1       3.661 -11.071  13.562  1.00  0.00     0.122 C 
BRANCH  37  38
HETATM   38  N3  UNL     1       3.584 -10.361  12.253  1.00  0.00    -0.367 N 
HETATM   39  C18 UNL     1       2.821 -10.815  11.344  1.00  0.00     0.196 C 
HETATM   40  N4  UNL     1       2.752 -10.137  10.104  1.00  0.00    -0.067 NA
HETATM   41  N5  UNL     1       2.024 -11.984  11.511  1.00  0.00    -0.067 NA
ATOM     42  H3  UNL     1       4.138  -9.520  12.089  1.00  0.00     0.161 HD
ENDBRANCH  37  38
ENDBRANCH  36  37
ENDBRANCH  35  36
ENDBRANCH   9  35
BRANCH  14  43
HETATM   43  C21 UNL     1       7.149 -13.316  18.458  1.00  0.00     0.033 C 
BRANCH  43  44
HETATM   44  C22 UNL     1       7.844 -14.303  17.569  1.00  0.00     0.004 C 
BRANCH  44  45
HETATM   45  C23 UNL     1       9.328 -14.066  17.542  1.00  0.00     0.020 C 
BRANCH  45  46
HETATM   46  C24 UNL     1      10.109 -15.353  17.654  1.00  0.00     0.122 C 
BRANCH  46  47
HETATM   47  N7  UNL     1      11.089 -15.452  16.577  1.00  0.00    -0.367 N 
HETATM   48  C25 UNL     1      12.286 -15.909  16.768  1.00  0.00     0.196 C 
HETATM   49  N8  UNL     1      12.659 -16.325  18.063  1.00  0.00    -0.067 NA
HETATM   50  N9  UNL     1      13.136 -15.954  15.644  1.00  0.00    -0.067 NA
ATOM     51  H7  UNL     1      10.822 -15.152  15.640  1.00  0.00     0.161 HD
ENDBRANCH  46  47
ENDBRANCH  45  46
ENDBRANCH  44  45
ENDBRANCH  43  44
ENDBRANCH  14  43
TORSDOF 11
ENDMDL
