MODEL 1
REMARK VINA RESULT: -8.044028901      0.000      0.000
REMARK  17 active torsions:
REMARK  status: ('A' for Active; 'I' for Inactive)
REMARK    1  A    between atoms: C2_2  and  C3_3 
REMARK    2  A    between atoms: C3_3  and  C4_4 
REMARK    3  A    between atoms: C4_4  and  C5_5 
REMARK    4  A    between atoms: C11_11  and  O1_12 
REMARK    5  A    between atoms: N1_15  and  C13_16 
REMARK    6  A    between atoms: C13_16  and  C14_17 
REMARK    7  A    between atoms: C14_17  and  N2_18 
REMARK    8  A    between atoms: C15_22  and  O2_23 
REMARK    9  A    between atoms: C16_25  and  C17_26 
REMARK   10  A    between atoms: C17_26  and  C18_27 
REMARK   11  A    between atoms: C18_27  and  C19_28 
REMARK   12  A    between atoms: C19_28  and  C20_29 
REMARK   13  A    between atoms: C20_29  and  N3_30 
REMARK       I    between atoms: N3_30  and  C21_32 
REMARK       I    between atoms: N5_34  and  C22_36 
REMARK   14  A    between atoms: C25_41  and  O4_42 
REMARK   15  A    between atoms: C26_44  and  C27_45 
REMARK   16  A    between atoms: C27_45  and  C28_46 
REMARK   17  A    between atoms: C31_51  and  O5_52 
ROOT
HETATM    1  C5  UNL     1       7.523  -7.220  17.989  1.00  0.00     0.001 A 
HETATM    2  C6  UNL     1       7.433  -5.851  17.788  1.00  0.00    -0.043 A 
HETATM    3  C7  UNL     1       6.270  -5.203  17.377  1.00  0.00     0.021 A 
HETATM    4  C8  UNL     1       5.130  -5.932  17.121  1.00  0.00    -0.011 A 
HETATM    5  C9  UNL     1       5.226  -7.342  17.314  1.00  0.00    -0.016 A 
HETATM    6  C10 UNL     1       4.014  -8.226  17.065  1.00  0.00     0.052 C 
HETATM    7  C11 UNL     1       6.336  -8.000  17.726  1.00  0.00     0.083 A 
HETATM    8  C12 UNL     1       3.930  -5.588  16.693  1.00  0.00     0.105 C 
HETATM    9  N1  UNL     1       3.312  -4.320  16.321  1.00  0.00    -0.337 N 
HETATM   10  C15 UNL     1       3.977  -3.123  16.038  1.00  0.00     0.141 C 
HETATM   11  C16 UNL     1       5.000  -2.769  14.993  1.00  0.00     0.160 C 
HETATM   12  N6  UNL     1       5.742  -1.593  15.493  1.00  0.00    -0.352 N 
HETATM   13  C24 UNL     1       4.889  -0.371  15.475  1.00  0.00     0.152 C 
HETATM   14  C25 UNL     1       7.049  -1.498  15.981  1.00  0.00     0.161 C 
HETATM   15  C26 UNL     1       8.414  -1.550  15.484  1.00  0.00     0.062 C 
HETATM   16  N7  UNL     1       9.319  -2.599  15.702  1.00  0.00    -0.340 N 
ATOM     17  H7  UNL     1      10.153  -2.203  16.136  1.00  0.00     0.167 HD
HETATM   18  C31 UNL     1       9.524  -3.955  15.559  1.00  0.00     0.124 C 
HETATM   19  C32 UNL     1       9.307  -5.215  16.266  1.00  0.00     0.021 C 
HETATM   20  C33 UNL     1       8.478  -6.084  15.332  1.00  0.00     0.024 C 
HETATM   21  C34 UNL     1      10.685  -5.956  16.219  1.00  0.00     0.024 C 
HETATM   22  C35 UNL     1       8.810  -5.220  17.685  1.00  0.00     0.056 C 
ENDROOT
BRANCH  11  23
HETATM   23  C17 UNL     1       4.494  -2.414  13.655  1.00  0.00     0.034 C 
BRANCH  23  24
HETATM   24  C18 UNL     1       5.478  -2.308  12.534  1.00  0.00     0.004 C 
BRANCH  24  25
HETATM   25  C19 UNL     1       5.494  -0.868  12.063  1.00  0.00     0.020 C 
BRANCH  25  26
HETATM   26  C20 UNL     1       4.161  -0.212  12.003  1.00  0.00     0.122 C 
BRANCH  26  27
HETATM   27  N3  UNL     1       4.313   1.191  11.668  1.00  0.00    -0.364 N 
HETATM   28  C21 UNL     1       3.234   2.113  11.667  1.00  0.00     0.190 C 
HETATM   29  N4  UNL     1       3.419   3.510  11.805  1.00  0.00    -0.063 NA
HETATM   30  N5  UNL     1       2.038   1.637  11.535  1.00  0.00    -0.302 N 
HETATM   31  C22 UNL     1       0.898   2.483  11.524  1.00  0.00     0.220 C 
ATOM     32  H5  UNL     1       1.911   0.630  11.437  1.00  0.00     0.171 HD
HETATM   33  C23 UNL     1      -0.374   1.979  12.092  1.00  0.00     0.117 C 
HETATM   34  O3  UNL     1       0.949   3.641  11.044  1.00  0.00    -0.274 OA
ATOM     35  H3  UNL     1       5.242   1.532  11.422  1.00  0.00     0.162 HD
ENDBRANCH  26  27
ENDBRANCH  25  26
ENDBRANCH  24  25
ENDBRANCH  23  24
ENDBRANCH  11  23
BRANCH  10  36
HETATM   36  O2  UNL     1       3.652  -2.133  16.827  1.00  0.00    -0.348 OA
ATOM     37  H2  UNL     1       4.329  -1.474  16.921  1.00  0.00     0.219 HD
ENDBRANCH  10  36
BRANCH   9  38
HETATM   38  C13 UNL     1       1.832  -4.276  16.309  1.00  0.00     0.157 C 
BRANCH  38  39
HETATM   39  C14 UNL     1       1.192  -4.916  15.140  1.00  0.00     0.249 C 
BRANCH  39  40
HETATM   40  N2  UNL     1      -0.207  -4.930  15.015  1.00  0.00    -0.078 N 
ATOM     41  H23 UNL     1      -0.587  -5.560  15.722  1.00  0.00     0.274 HD
ATOM     42  H22 UNL     1      -0.566  -4.027  15.329  1.00  0.00     0.274 HD
ATOM     43  H21 UNL     1      -0.643  -5.154  14.120  1.00  0.00     0.274 HD
ENDBRANCH  39  40
ENDBRANCH  38  39
ENDBRANCH   9  38
BRANCH  14  44
HETATM   44  O4  UNL     1       7.023  -1.292  17.291  1.00  0.00    -0.345 OA
ATOM     45  H4  UNL     1       7.313  -2.075  17.743  1.00  0.00     0.219 HD
ENDBRANCH  14  44
BRANCH  15  46
HETATM   46  C27 UNL     1       8.515  -0.953  14.060  1.00  0.00     0.065 C 
BRANCH  46  47
HETATM   47  C28 UNL     1       8.809   0.488  13.997  1.00  0.00    -0.017 C 
HETATM   48  C29 UNL     1       7.590   1.371  14.173  1.00  0.00     0.010 C 
HETATM   49  C30 UNL     1       9.248   0.739  12.524  1.00  0.00     0.010 C 
ENDBRANCH  46  47
ENDBRANCH  15  46
BRANCH  18  50
HETATM   50  O5  UNL     1      10.125  -4.320  14.405  1.00  0.00    -0.349 OA
ATOM     51  H5  UNL     1       9.558  -4.324  13.644  1.00  0.00     0.219 HD
ENDBRANCH  18  50
BRANCH   7  52
HETATM   52  O1  UNL     1       6.380  -9.351  17.898  1.00  0.00    -0.359 OA
ATOM     53  H1  UNL     1       5.648  -9.878  17.603  1.00  0.00     0.217 HD
ENDBRANCH   7  52
BRANCH   1  54
HETATM   54  C4  UNL     1       8.404  -7.946  18.616  1.00  0.00    -0.008 C 
BRANCH  54  55
HETATM   55  C3  UNL     1       9.484  -8.863  18.297  1.00  0.00     0.054 C 
BRANCH  55  56
HETATM   56  C2  UNL     1       9.369 -10.135  19.143  1.00  0.00    -0.033 C 
HETATM   57  C1  UNL     1       8.858 -10.119  20.349  1.00  0.00     0.007 C 
ENDBRANCH  55  56
ENDBRANCH  54  55
ENDBRANCH   1  54
TORSDOF 17
ENDMDL
MODEL 2
REMARK VINA RESULT: -7.858411126      2.709      9.269
REMARK  17 active torsions:
REMARK  status: ('A' for Active; 'I' for Inactive)
REMARK    1  A    between atoms: C2_2  and  C3_3 
REMARK    2  A    between atoms: C3_3  and  C4_4 
REMARK    3  A    between atoms: C4_4  and  C5_5 
REMARK    4  A    between atoms: C11_11  and  O1_12 
REMARK    5  A    between atoms: N1_15  and  C13_16 
REMARK    6  A    between atoms: C13_16  and  C14_17 
REMARK    7  A    between atoms: C14_17  and  N2_18 
REMARK    8  A    between atoms: C15_22  and  O2_23 
REMARK    9  A    between atoms: C16_25  and  C17_26 
REMARK   10  A    between atoms: C17_26  and  C18_27 
REMARK   11  A    between atoms: C18_27  and  C19_28 
REMARK   12  A    between atoms: C19_28  and  C20_29 
REMARK   13  A    between atoms: C20_29  and  N3_30 
REMARK       I    between atoms: N3_30  and  C21_32 
REMARK       I    between atoms: N5_34  and  C22_36 
REMARK   14  A    between atoms: C25_41  and  O4_42 
REMARK   15  A    between atoms: C26_44  and  C27_45 
REMARK   16  A    between atoms: C27_45  and  C28_46 
REMARK   17  A    between atoms: C31_51  and  O5_52 
ROOT
HETATM    1  C5  UNL     1       8.674  -1.596  14.874  1.00  0.00     0.001 A 
HETATM    2  C6  UNL     1       7.491  -1.821  15.561  1.00  0.00    -0.043 A 
HETATM    3  C7  UNL     1       7.230  -2.972  16.300  1.00  0.00     0.021 A 
HETATM    4  C8  UNL     1       8.167  -3.980  16.356  1.00  0.00    -0.011 A 
HETATM    5  C9  UNL     1       9.378  -3.757  15.638  1.00  0.00    -0.016 A 
HETATM    6  C10 UNL     1      10.474  -4.810  15.651  1.00  0.00     0.052 C 
HETATM    7  C11 UNL     1       9.668  -2.643  14.923  1.00  0.00     0.083 A 
HETATM    8  C12 UNL     1       8.166  -5.167  16.935  1.00  0.00     0.105 C 
HETATM    9  N1  UNL     1       7.199  -5.897  17.746  1.00  0.00    -0.337 N 
HETATM   10  C15 UNL     1       5.836  -5.611  17.873  1.00  0.00     0.141 C 
HETATM   11  C16 UNL     1       4.727  -5.549  16.858  1.00  0.00     0.160 C 
HETATM   12  N6  UNL     1       3.670  -4.684  17.421  1.00  0.00    -0.352 N 
HETATM   13  C24 UNL     1       2.974  -5.353  18.557  1.00  0.00     0.152 C 
HETATM   14  C25 UNL     1       3.290  -3.386  17.066  1.00  0.00     0.161 C 
HETATM   15  C26 UNL     1       2.610  -2.698  15.981  1.00  0.00     0.062 C 
HETATM   16  N7  UNL     1       3.223  -1.860  15.039  1.00  0.00    -0.340 N 
ATOM     17  H7  UNL     1       2.753  -0.956  15.076  1.00  0.00     0.167 HD
HETATM   18  C31 UNL     1       4.212  -1.778  14.082  1.00  0.00     0.124 C 
HETATM   19  C32 UNL     1       5.629  -1.447  13.940  1.00  0.00     0.021 C 
HETATM   20  C33 UNL     1       6.287  -2.673  13.324  1.00  0.00     0.024 C 
HETATM   21  C34 UNL     1       5.698  -0.438  12.746  1.00  0.00     0.024 C 
HETATM   22  C35 UNL     1       6.399  -0.873  15.097  1.00  0.00     0.056 C 
ENDROOT
BRANCH  11  23
HETATM   23  C17 UNL     1       4.082  -6.825  16.495  1.00  0.00     0.034 C 
BRANCH  23  24
HETATM   24  C18 UNL     1       4.452  -8.048  17.273  1.00  0.00     0.004 C 
BRANCH  24  25
HETATM   25  C19 UNL     1       3.990  -9.257  16.486  1.00  0.00     0.020 C 
BRANCH  25  26
HETATM   26  C20 UNL     1       4.781 -10.494  16.713  1.00  0.00     0.122 C 
BRANCH  26  27
HETATM   27  N3  UNL     1       6.186 -10.238  16.459  1.00  0.00    -0.364 N 
HETATM   28  C21 UNL     1       7.209 -10.500  17.407  1.00  0.00     0.190 C 
HETATM   29  N4  UNL     1       8.562 -10.700  17.039  1.00  0.00    -0.063 NA
HETATM   30  N5  UNL     1       6.872 -10.555  18.655  1.00  0.00    -0.302 N 
HETATM   31  C22 UNL     1       7.827 -10.812  19.673  1.00  0.00     0.220 C 
ATOM     32  H5  UNL     1       5.896 -10.410  18.913  1.00  0.00     0.171 HD
HETATM   33  C23 UNL     1       7.405 -11.566  20.877  1.00  0.00     0.117 C 
HETATM   34  O3  UNL     1       9.012 -10.415  19.572  1.00  0.00    -0.274 OA
ATOM     35  H3  UNL     1       6.452  -9.851  15.554  1.00  0.00     0.162 HD
ENDBRANCH  26  27
ENDBRANCH  25  26
ENDBRANCH  24  25
ENDBRANCH  23  24
ENDBRANCH  11  23
BRANCH  10  36
HETATM   36  O2  UNL     1       5.459  -5.344  19.096  1.00  0.00    -0.348 OA
ATOM     37  H2  UNL     1       4.531  -5.157  19.184  1.00  0.00     0.219 HD
ENDBRANCH  10  36
BRANCH   9  38
HETATM   38  C13 UNL     1       7.722  -7.009  18.571  1.00  0.00     0.157 C 
BRANCH  38  39
HETATM   39  C14 UNL     1       9.195  -7.070  18.685  1.00  0.00     0.249 C 
BRANCH  39  40
HETATM   40  N2  UNL     1       9.922  -8.046  17.982  1.00  0.00    -0.078 N 
ATOM     41  H23 UNL     1       9.540  -8.962  18.217  1.00  0.00     0.274 HD
ATOM     42  H22 UNL     1       9.686  -7.971  16.992  1.00  0.00     0.274 HD
ATOM     43  H21 UNL     1      10.938  -8.092  18.066  1.00  0.00     0.274 HD
ENDBRANCH  39  40
ENDBRANCH  38  39
ENDBRANCH   9  38
BRANCH  14  44
HETATM   44  O4  UNL     1       3.661  -2.536  18.015  1.00  0.00    -0.345 OA
ATOM     45  H4  UNL     1       4.593  -2.368  17.946  1.00  0.00     0.219 HD
ENDBRANCH  14  44
BRANCH  15  46
HETATM   46  C27 UNL     1       1.497  -3.581  15.368  1.00  0.00     0.065 C 
BRANCH  46  47
HETATM   47  C28 UNL     1       1.777  -5.026  15.345  1.00  0.00    -0.017 C 
HETATM   48  C29 UNL     1       2.442  -5.501  14.069  1.00  0.00     0.010 C 
HETATM   49  C30 UNL     1       0.374  -5.701  15.314  1.00  0.00     0.010 C 
ENDBRANCH  46  47
ENDBRANCH  15  46
BRANCH  18  50
HETATM   50  O5  UNL     1       3.817  -2.092  12.829  1.00  0.00    -0.349 OA
ATOM     51  H5  UNL     1       4.475  -1.957  12.157  1.00  0.00     0.219 HD
ENDBRANCH  18  50
BRANCH   7  52
HETATM   52  O1  UNL     1      10.842  -2.472  14.254  1.00  0.00    -0.359 OA
ATOM     53  H1  UNL     1      11.581  -3.030  14.467  1.00  0.00     0.217 HD
ENDBRANCH   7  52
BRANCH   1  54
HETATM   54  C4  UNL     1       9.195  -0.509  14.381  1.00  0.00    -0.008 C 
BRANCH  54  55
HETATM   55  C3  UNL     1       9.054   0.327  13.202  1.00  0.00     0.054 C 
BRANCH  55  56
HETATM   56  C2  UNL     1       8.591   1.732  13.599  1.00  0.00    -0.033 C 
HETATM   57  C1  UNL     1       7.869   2.474  12.797  1.00  0.00     0.007 C 
ENDBRANCH  55  56
ENDBRANCH  54  55
ENDBRANCH   1  54
TORSDOF 17
ENDMDL
MODEL 3
REMARK VINA RESULT: -7.573297006      3.002      9.415
REMARK  17 active torsions:
REMARK  status: ('A' for Active; 'I' for Inactive)
REMARK    1  A    between atoms: C2_2  and  C3_3 
REMARK    2  A    between atoms: C3_3  and  C4_4 
REMARK    3  A    between atoms: C4_4  and  C5_5 
REMARK    4  A    between atoms: C11_11  and  O1_12 
REMARK    5  A    between atoms: N1_15  and  C13_16 
REMARK    6  A    between atoms: C13_16  and  C14_17 
REMARK    7  A    between atoms: C14_17  and  N2_18 
REMARK    8  A    between atoms: C15_22  and  O2_23 
REMARK    9  A    between atoms: C16_25  and  C17_26 
REMARK   10  A    between atoms: C17_26  and  C18_27 
REMARK   11  A    between atoms: C18_27  and  C19_28 
REMARK   12  A    between atoms: C19_28  and  C20_29 
REMARK   13  A    between atoms: C20_29  and  N3_30 
REMARK       I    between atoms: N3_30  and  C21_32 
REMARK       I    between atoms: N5_34  and  C22_36 
REMARK   14  A    between atoms: C25_41  and  O4_42 
REMARK   15  A    between atoms: C26_44  and  C27_45 
REMARK   16  A    between atoms: C27_45  and  C28_46 
REMARK   17  A    between atoms: C31_51  and  O5_52 
ROOT
HETATM    1  C5  UNL     1       8.688  -1.850  14.959  1.00  0.00     0.001 A 
HETATM    2  C6  UNL     1       7.510  -2.044  15.664  1.00  0.00    -0.043 A 
HETATM    3  C7  UNL     1       7.224  -3.196  16.393  1.00  0.00     0.021 A 
HETATM    4  C8  UNL     1       8.127  -4.235  16.420  1.00  0.00    -0.011 A 
HETATM    5  C9  UNL     1       9.333  -4.043  15.683  1.00  0.00    -0.016 A 
HETATM    6  C10 UNL     1      10.393  -5.133  15.663  1.00  0.00     0.052 C 
HETATM    7  C11 UNL     1       9.647  -2.930  14.976  1.00  0.00     0.083 A 
HETATM    8  C12 UNL     1       8.097  -5.428  16.985  1.00  0.00     0.105 C 
HETATM    9  N1  UNL     1       7.120  -6.136  17.804  1.00  0.00    -0.337 N 
HETATM   10  C15 UNL     1       5.770  -5.806  17.959  1.00  0.00     0.141 C 
HETATM   11  C16 UNL     1       4.646  -5.695  16.965  1.00  0.00     0.160 C 
HETATM   12  N6  UNL     1       3.629  -4.802  17.558  1.00  0.00    -0.352 N 
HETATM   13  C24 UNL     1       2.931  -5.461  18.698  1.00  0.00     0.152 C 
HETATM   14  C25 UNL     1       3.287  -3.487  17.226  1.00  0.00     0.161 C 
HETATM   15  C26 UNL     1       2.611  -2.763  16.162  1.00  0.00     0.062 C 
HETATM   16  N7  UNL     1       3.235  -1.934  15.219  1.00  0.00    -0.340 N 
ATOM     17  H7  UNL     1       2.796  -1.015  15.276  1.00  0.00     0.167 HD
HETATM   18  C31 UNL     1       4.209  -1.873  14.245  1.00  0.00     0.124 C 
HETATM   19  C32 UNL     1       5.633  -1.588  14.082  1.00  0.00     0.021 C 
HETATM   20  C33 UNL     1       6.239  -2.827  13.439  1.00  0.00     0.024 C 
HETATM   21  C34 UNL     1       5.715  -0.567  12.899  1.00  0.00     0.024 C 
HETATM   22  C35 UNL     1       6.443  -1.055  15.231  1.00  0.00     0.056 C 
ENDROOT
BRANCH  11  23
HETATM   23  C17 UNL     1       3.952  -6.943  16.599  1.00  0.00     0.034 C 
BRANCH  23  24
HETATM   24  C18 UNL     1       4.482  -8.231  17.146  1.00  0.00     0.004 C 
BRANCH  24  25
HETATM   25  C19 UNL     1       3.926  -9.359  16.301  1.00  0.00     0.020 C 
BRANCH  25  26
HETATM   26  C20 UNL     1       4.876 -10.471  16.036  1.00  0.00     0.122 C 
BRANCH  26  27
HETATM   27  N3  UNL     1       6.170 -10.167  16.615  1.00  0.00    -0.364 N 
HETATM   28  C21 UNL     1       7.158 -11.153  16.875  1.00  0.00     0.190 C 
HETATM   29  N4  UNL     1       8.536 -10.847  16.988  1.00  0.00    -0.063 NA
HETATM   30  N5  UNL     1       6.763 -12.378  17.010  1.00  0.00    -0.302 N 
HETATM   31  C22 UNL     1       7.679 -13.431  17.270  1.00  0.00     0.220 C 
ATOM     32  H5  UNL     1       5.770 -12.592  16.926  1.00  0.00     0.171 HD
HETATM   33  C23 UNL     1       7.398 -14.777  16.720  1.00  0.00     0.117 C 
HETATM   34  O3  UNL     1       8.714 -13.242  17.953  1.00  0.00    -0.274 OA
ATOM     35  H3  UNL     1       6.382  -9.197  16.848  1.00  0.00     0.162 HD
ENDBRANCH  26  27
ENDBRANCH  25  26
ENDBRANCH  24  25
ENDBRANCH  23  24
ENDBRANCH  11  23
BRANCH  10  36
HETATM   36  O2  UNL     1       5.424  -5.543  19.192  1.00  0.00    -0.348 OA
ATOM     37  H2  UNL     1       5.039  -6.280  19.652  1.00  0.00     0.219 HD
ENDBRANCH  10  36
BRANCH   9  38
HETATM   38  C13 UNL     1       7.621  -7.276  18.605  1.00  0.00     0.157 C 
BRANCH  38  39
HETATM   39  C14 UNL     1       9.090  -7.344  18.755  1.00  0.00     0.249 C 
BRANCH  39  40
HETATM   40  N2  UNL     1       9.833  -8.305  18.050  1.00  0.00    -0.078 N 
ATOM     41  H23 UNL     1       9.621  -8.208  17.056  1.00  0.00     0.274 HD
ATOM     42  H22 UNL     1      10.816  -8.035  18.078  1.00  0.00     0.274 HD
ATOM     43  H21 UNL     1       9.764  -9.293  18.296  1.00  0.00     0.274 HD
ENDBRANCH  39  40
ENDBRANCH  38  39
ENDBRANCH   9  38
BRANCH  14  44
HETATM   44  O4  UNL     1       3.703  -2.663  18.178  1.00  0.00    -0.345 OA
ATOM     45  H4  UNL     1       4.381  -3.084  18.692  1.00  0.00     0.219 HD
ENDBRANCH  14  44
BRANCH  15  46
HETATM   46  C27 UNL     1       1.458  -3.601  15.559  1.00  0.00     0.065 C 
BRANCH  46  47
HETATM   47  C28 UNL     1       1.742  -5.035  15.384  1.00  0.00    -0.017 C 
HETATM   48  C29 UNL     1       2.551  -5.353  14.143  1.00  0.00     0.010 C 
HETATM   49  C30 UNL     1       0.354  -5.683  15.107  1.00  0.00     0.010 C 
ENDBRANCH  46  47
ENDBRANCH  15  46
BRANCH  18  50
HETATM   50  O5  UNL     1       3.782  -2.158  12.996  1.00  0.00    -0.349 OA
ATOM     51  H5  UNL     1       4.282  -1.748  12.300  1.00  0.00     0.219 HD
ENDBRANCH  18  50
BRANCH   7  52
HETATM   52  O1  UNL     1      10.814  -2.790  14.288  1.00  0.00    -0.359 OA
ATOM     53  H1  UNL     1      11.412  -3.527  14.237  1.00  0.00     0.217 HD
ENDBRANCH   7  52
BRANCH   1  54
HETATM   54  C4  UNL     1       9.236  -0.775  14.469  1.00  0.00    -0.008 C 
BRANCH  54  55
HETATM   55  C3  UNL     1       9.108   0.076  13.300  1.00  0.00     0.054 C 
BRANCH  55  56
HETATM   56  C2  UNL     1       8.711   1.496  13.717  1.00  0.00    -0.033 C 
HETATM   57  C1  UNL     1       8.008   2.275  12.933  1.00  0.00     0.007 C 
ENDBRANCH  55  56
ENDBRANCH  54  55
ENDBRANCH   1  54
TORSDOF 17
ENDMDL
MODEL 4
REMARK VINA RESULT: -7.443751777      1.155      1.612
REMARK  17 active torsions:
REMARK  status: ('A' for Active; 'I' for Inactive)
REMARK    1  A    between atoms: C2_2  and  C3_3 
REMARK    2  A    between atoms: C3_3  and  C4_4 
REMARK    3  A    between atoms: C4_4  and  C5_5 
REMARK    4  A    between atoms: C11_11  and  O1_12 
REMARK    5  A    between atoms: N1_15  and  C13_16 
REMARK    6  A    between atoms: C13_16  and  C14_17 
REMARK    7  A    between atoms: C14_17  and  N2_18 
REMARK    8  A    between atoms: C15_22  and  O2_23 
REMARK    9  A    between atoms: C16_25  and  C17_26 
REMARK   10  A    between atoms: C17_26  and  C18_27 
REMARK   11  A    between atoms: C18_27  and  C19_28 
REMARK   12  A    between atoms: C19_28  and  C20_29 
REMARK   13  A    between atoms: C20_29  and  N3_30 
REMARK       I    between atoms: N3_30  and  C21_32 
REMARK       I    between atoms: N5_34  and  C22_36 
REMARK   14  A    between atoms: C25_41  and  O4_42 
REMARK   15  A    between atoms: C26_44  and  C27_45 
REMARK   16  A    between atoms: C27_45  and  C28_46 
REMARK   17  A    between atoms: C31_51  and  O5_52 
ROOT
HETATM    1  C5  UNL     1       7.567  -7.221  18.018  1.00  0.00     0.001 A 
HETATM    2  C6  UNL     1       7.461  -5.854  17.815  1.00  0.00    -0.043 A 
HETATM    3  C7  UNL     1       6.289  -5.218  17.410  1.00  0.00     0.021 A 
HETATM    4  C8  UNL     1       5.156  -5.960  17.162  1.00  0.00    -0.011 A 
HETATM    5  C9  UNL     1       5.267  -7.368  17.357  1.00  0.00    -0.016 A 
HETATM    6  C10 UNL     1       4.064  -8.266  17.117  1.00  0.00     0.052 C 
HETATM    7  C11 UNL     1       6.387  -8.015  17.763  1.00  0.00     0.083 A 
HETATM    8  C12 UNL     1       3.949  -5.629  16.741  1.00  0.00     0.105 C 
HETATM    9  N1  UNL     1       3.316  -4.369  16.370  1.00  0.00    -0.337 N 
HETATM   10  C15 UNL     1       3.967  -3.165  16.081  1.00  0.00     0.141 C 
HETATM   11  C16 UNL     1       4.981  -2.803  15.029  1.00  0.00     0.160 C 
HETATM   12  N6  UNL     1       5.713  -1.618  15.522  1.00  0.00    -0.352 N 
HETATM   13  C24 UNL     1       4.847  -0.405  15.507  1.00  0.00     0.152 C 
HETATM   14  C25 UNL     1       7.021  -1.509  16.002  1.00  0.00     0.161 C 
HETATM   15  C26 UNL     1       8.384  -1.547  15.498  1.00  0.00     0.062 C 
HETATM   16  N7  UNL     1       9.301  -2.586  15.712  1.00  0.00    -0.340 N 
ATOM     17  H7  UNL     1      10.133  -2.181  16.141  1.00  0.00     0.167 HD
HETATM   18  C31 UNL     1       9.520  -3.940  15.570  1.00  0.00     0.124 C 
HETATM   19  C32 UNL     1       9.320  -5.201  16.282  1.00  0.00     0.021 C 
HETATM   20  C33 UNL     1       8.495  -6.081  15.354  1.00  0.00     0.024 C 
HETATM   21  C34 UNL     1      10.706  -5.928  16.228  1.00  0.00     0.024 C 
HETATM   22  C35 UNL     1       8.831  -5.208  17.703  1.00  0.00     0.056 C 
ENDROOT
BRANCH  11  23
HETATM   23  C17 UNL     1       4.462  -2.456  13.693  1.00  0.00     0.034 C 
BRANCH  23  24
HETATM   24  C18 UNL     1       5.445  -2.289  12.577  1.00  0.00     0.004 C 
BRANCH  24  25
HETATM   25  C19 UNL     1       5.451  -0.829  12.177  1.00  0.00     0.020 C 
BRANCH  25  26
HETATM   26  C20 UNL     1       4.180  -0.333  11.587  1.00  0.00     0.122 C 
BRANCH  26  27
HETATM   27  N3  UNL     1       3.876   0.988  12.103  1.00  0.00    -0.364 N 
HETATM   28  C21 UNL     1       4.211   2.187  11.420  1.00  0.00     0.190 C 
HETATM   29  N4  UNL     1       3.541   3.413  11.650  1.00  0.00    -0.063 NA
HETATM   30  N5  UNL     1       5.170   2.137  10.553  1.00  0.00    -0.302 N 
HETATM   31  C22 UNL     1       5.574   3.285   9.822  1.00  0.00     0.220 C 
ATOM     32  H5  UNL     1       5.648   1.251  10.392  1.00  0.00     0.171 HD
HETATM   33  C23 UNL     1       6.071   3.114   8.437  1.00  0.00     0.117 C 
HETATM   34  O3  UNL     1       5.516   4.432  10.325  1.00  0.00    -0.274 OA
ATOM     35  H3  UNL     1       3.398   1.060  13.000  1.00  0.00     0.162 HD
ENDBRANCH  26  27
ENDBRANCH  25  26
ENDBRANCH  24  25
ENDBRANCH  23  24
ENDBRANCH  11  23
BRANCH  10  36
HETATM   36  O2  UNL     1       3.636  -2.177  16.870  1.00  0.00    -0.348 OA
ATOM     37  H2  UNL     1       4.135  -2.143  17.678  1.00  0.00     0.219 HD
ENDBRANCH  10  36
BRANCH   9  38
HETATM   38  C13 UNL     1       1.836  -4.340  16.366  1.00  0.00     0.157 C 
BRANCH  38  39
HETATM   39  C14 UNL     1       1.197  -4.922  15.167  1.00  0.00     0.249 C 
BRANCH  39  40
HETATM   40  N2  UNL     1      -0.201  -4.904  15.026  1.00  0.00    -0.078 N 
ATOM     41  H23 UNL     1      -0.494  -5.792  14.618  1.00  0.00     0.274 HD
ATOM     42  H22 UNL     1      -0.617  -4.957  15.956  1.00  0.00     0.274 HD
ATOM     43  H21 UNL     1      -0.658  -4.149  14.513  1.00  0.00     0.274 HD
ENDBRANCH  39  40
ENDBRANCH  38  39
ENDBRANCH   9  38
BRANCH  14  44
HETATM   44  O4  UNL     1       7.001  -1.300  17.312  1.00  0.00    -0.345 OA
ATOM     45  H4  UNL     1       7.685  -1.811  17.728  1.00  0.00     0.219 HD
ENDBRANCH  14  44
BRANCH  15  46
HETATM   46  C27 UNL     1       8.470  -0.952  14.072  1.00  0.00     0.065 C 
BRANCH  46  47
HETATM   47  C28 UNL     1       8.797   0.482  14.004  1.00  0.00    -0.017 C 
HETATM   48  C29 UNL     1       7.600   1.393  14.187  1.00  0.00     0.010 C 
HETATM   49  C30 UNL     1       9.230   0.719  12.527  1.00  0.00     0.010 C 
ENDBRANCH  46  47
ENDBRANCH  15  46
BRANCH  18  50
HETATM   50  O5  UNL     1      10.118  -4.301  14.414  1.00  0.00    -0.349 OA
ATOM     51  H5  UNL     1      10.328  -5.225  14.345  1.00  0.00     0.219 HD
ENDBRANCH  18  50
BRANCH   7  52
HETATM   52  O1  UNL     1       6.446  -9.364  17.938  1.00  0.00    -0.359 OA
ATOM     53  H1  UNL     1       5.668  -9.885  17.779  1.00  0.00     0.217 HD
ENDBRANCH   7  52
BRANCH   1  54
HETATM   54  C4  UNL     1       8.459  -7.937  18.641  1.00  0.00    -0.008 C 
BRANCH  54  55
HETATM   55  C3  UNL     1       9.593  -8.785  18.319  1.00  0.00     0.054 C 
BRANCH  55  56
HETATM   56  C2  UNL     1       9.462 -10.139  19.023  1.00  0.00    -0.033 C 
HETATM   57  C1  UNL     1      10.163 -11.181  18.653  1.00  0.00     0.007 C 
ENDBRANCH  55  56
ENDBRANCH  54  55
ENDBRANCH   1  54
TORSDOF 17
ENDMDL
MODEL 5
REMARK VINA RESULT: -7.374766095      0.767      1.021
REMARK  17 active torsions:
REMARK  status: ('A' for Active; 'I' for Inactive)
REMARK    1  A    between atoms: C2_2  and  C3_3 
REMARK    2  A    between atoms: C3_3  and  C4_4 
REMARK    3  A    between atoms: C4_4  and  C5_5 
REMARK    4  A    between atoms: C11_11  and  O1_12 
REMARK    5  A    between atoms: N1_15  and  C13_16 
REMARK    6  A    between atoms: C13_16  and  C14_17 
REMARK    7  A    between atoms: C14_17  and  N2_18 
REMARK    8  A    between atoms: C15_22  and  O2_23 
REMARK    9  A    between atoms: C16_25  and  C17_26 
REMARK   10  A    between atoms: C17_26  and  C18_27 
REMARK   11  A    between atoms: C18_27  and  C19_28 
REMARK   12  A    between atoms: C19_28  and  C20_29 
REMARK   13  A    between atoms: C20_29  and  N3_30 
REMARK       I    between atoms: N3_30  and  C21_32 
REMARK       I    between atoms: N5_34  and  C22_36 
REMARK   14  A    between atoms: C25_41  and  O4_42 
REMARK   15  A    between atoms: C26_44  and  C27_45 
REMARK   16  A    between atoms: C27_45  and  C28_46 
REMARK   17  A    between atoms: C31_51  and  O5_52 
ROOT
HETATM    1  C5  UNL     1       7.571  -7.220  17.998  1.00  0.00     0.001 A 
HETATM    2  C6  UNL     1       7.446  -5.853  17.800  1.00  0.00    -0.043 A 
HETATM    3  C7  UNL     1       6.265  -5.233  17.398  1.00  0.00     0.021 A 
HETATM    4  C8  UNL     1       5.141  -5.990  17.149  1.00  0.00    -0.011 A 
HETATM    5  C9  UNL     1       5.273  -7.397  17.338  1.00  0.00    -0.016 A 
HETATM    6  C10 UNL     1       4.082  -8.311  17.096  1.00  0.00     0.052 C 
HETATM    7  C11 UNL     1       6.402  -8.029  17.741  1.00  0.00     0.083 A 
HETATM    8  C12 UNL     1       3.930  -5.675  16.729  1.00  0.00     0.105 C 
HETATM    9  N1  UNL     1       3.278  -4.423  16.363  1.00  0.00    -0.337 N 
HETATM   10  C15 UNL     1       3.912  -3.209  16.078  1.00  0.00     0.141 C 
HETATM   11  C16 UNL     1       4.919  -2.828  15.027  1.00  0.00     0.160 C 
HETATM   12  N6  UNL     1       5.635  -1.635  15.523  1.00  0.00    -0.352 N 
HETATM   13  C24 UNL     1       4.752  -0.434  15.513  1.00  0.00     0.152 C 
HETATM   14  C25 UNL     1       6.942  -1.509  16.002  1.00  0.00     0.161 C 
HETATM   15  C26 UNL     1       8.305  -1.526  15.496  1.00  0.00     0.062 C 
HETATM   16  N7  UNL     1       9.237  -2.552  15.706  1.00  0.00    -0.340 N 
ATOM     17  H7  UNL     1      10.064  -2.137  16.135  1.00  0.00     0.167 HD
HETATM   18  C31 UNL     1       9.475  -3.903  15.559  1.00  0.00     0.124 C 
HETATM   19  C32 UNL     1       9.294  -5.169  16.266  1.00  0.00     0.021 C 
HETATM   20  C33 UNL     1       8.480  -6.057  15.336  1.00  0.00     0.024 C 
HETATM   21  C34 UNL     1      10.689  -5.875  16.209  1.00  0.00     0.024 C 
HETATM   22  C35 UNL     1       8.806  -5.188  17.689  1.00  0.00     0.056 C 
ENDROOT
BRANCH  11  23
HETATM   23  C17 UNL     1       4.395  -2.484  13.692  1.00  0.00     0.034 C 
BRANCH  23  24
HETATM   24  C18 UNL     1       5.375  -2.131  12.619  1.00  0.00     0.004 C 
BRANCH  24  25
HETATM   25  C19 UNL     1       5.222  -0.655  12.315  1.00  0.00     0.020 C 
BRANCH  25  26
HETATM   26  C20 UNL     1       4.006  -0.296  11.539  1.00  0.00     0.122 C 
BRANCH  26  27
HETATM   27  N3  UNL     1       2.930   0.063  12.442  1.00  0.00    -0.364 N 
HETATM   28  C21 UNL     1       1.943   1.035  12.129  1.00  0.00     0.190 C 
HETATM   29  N4  UNL     1       0.672   1.064  12.753  1.00  0.00    -0.063 NA
HETATM   30  N5  UNL     1       2.235   1.922  11.234  1.00  0.00    -0.302 N 
HETATM   31  C22 UNL     1       1.311   2.932  10.857  1.00  0.00     0.220 C 
ATOM     32  H5  UNL     1       3.152   1.894  10.788  1.00  0.00     0.171 HD
HETATM   33  C23 UNL     1       1.315   3.418   9.458  1.00  0.00     0.117 C 
HETATM   34  O3  UNL     1       0.499   3.414  11.681  1.00  0.00    -0.274 OA
ATOM     35  H3  UNL     1       2.878  -0.406  13.346  1.00  0.00     0.162 HD
ENDBRANCH  26  27
ENDBRANCH  25  26
ENDBRANCH  24  25
ENDBRANCH  23  24
ENDBRANCH  11  23
BRANCH  10  36
HETATM   36  O2  UNL     1       3.568  -2.228  16.871  1.00  0.00    -0.348 OA
ATOM     37  H2  UNL     1       4.239  -1.982  17.497  1.00  0.00     0.219 HD
ENDBRANCH  10  36
BRANCH   9  38
HETATM   38  C13 UNL     1       1.798  -4.415  16.361  1.00  0.00     0.157 C 
BRANCH  38  39
HETATM   39  C14 UNL     1       1.167  -4.958  15.140  1.00  0.00     0.249 C 
BRANCH  39  40
HETATM   40  N2  UNL     1       1.918  -5.725  14.232  1.00  0.00    -0.078 N 
ATOM     41  H23 UNL     1       2.745  -5.189  13.967  1.00  0.00     0.274 HD
ATOM     42  H22 UNL     1       2.333  -6.507  14.740  1.00  0.00     0.274 HD
ATOM     43  H21 UNL     1       1.485  -6.087  13.382  1.00  0.00     0.274 HD
ENDBRANCH  39  40
ENDBRANCH  38  39
ENDBRANCH   9  38
BRANCH  14  44
HETATM   44  O4  UNL     1       6.921  -1.305  17.312  1.00  0.00    -0.345 OA
ATOM     45  H4  UNL     1       6.525  -0.462  17.498  1.00  0.00     0.219 HD
ENDBRANCH  14  44
BRANCH  15  46
HETATM   46  C27 UNL     1       8.381  -0.924  14.072  1.00  0.00     0.065 C 
BRANCH  46  47
HETATM   47  C28 UNL     1       8.749   0.499  14.006  1.00  0.00    -0.017 C 
HETATM   48  C29 UNL     1       7.594   1.443  14.270  1.00  0.00     0.010 C 
HETATM   49  C30 UNL     1       9.105   0.747  12.510  1.00  0.00     0.010 C 
ENDBRANCH  46  47
ENDBRANCH  15  46
BRANCH  18  50
HETATM   50  O5  UNL     1      10.076  -4.251  14.401  1.00  0.00    -0.349 OA
ATOM     51  H5  UNL     1      11.025  -4.294  14.441  1.00  0.00     0.219 HD
ENDBRANCH  18  50
BRANCH   7  52
HETATM   52  O1  UNL     1       6.481  -9.378  17.911  1.00  0.00    -0.359 OA
ATOM     53  H1  UNL     1       6.413  -9.737  18.788  1.00  0.00     0.217 HD
ENDBRANCH   7  52
BRANCH   1  54
HETATM   54  C4  UNL     1       8.474  -7.924  18.617  1.00  0.00    -0.008 C 
BRANCH  54  55
HETATM   55  C3  UNL     1       9.634  -8.736  18.292  1.00  0.00     0.054 C 
BRANCH  55  56
HETATM   56  C2  UNL     1       9.423 -10.178  18.764  1.00  0.00    -0.033 C 
HETATM   57  C1  UNL     1       9.630 -11.201  17.973  1.00  0.00     0.007 C 
ENDBRANCH  55  56
ENDBRANCH  54  55
ENDBRANCH   1  54
TORSDOF 17
ENDMDL
