MODEL 1
REMARK VINA RESULT: -7.518453481      0.000      0.000
REMARK  12 active torsions:
REMARK  status: ('A' for Active; 'I' for Inactive)
REMARK    1  A    between atoms: C2_2  and  C3_3 
REMARK    2  A    between atoms: C3_3  and  C4_4 
REMARK    3  A    between atoms: C4_4  and  C5_5 
REMARK    4  A    between atoms: C7_10  and  C8_11 
REMARK    5  A    between atoms: C8_11  and  C9_12 
REMARK    6  A    between atoms: C13_19  and  C14_20 
REMARK    7  A    between atoms: C14_20  and  C15_21 
REMARK    8  A    between atoms: C18_26  and  O3_27 
REMARK    9  A    between atoms: C19_29  and  C20_30 
REMARK   10  A    between atoms: C20_30  and  C21_31 
REMARK   11  A    between atoms: C30_45  and  C31_46 
REMARK   12  A    between atoms: C31_46  and  C33_48 
ROOT
HETATM    1  C5  UNL     1       2.748 -12.213  16.095  1.00  0.00     0.178 C 
HETATM    2  N1  UNL     1       3.201 -11.440  17.237  1.00  0.00    -0.346 N 
ATOM      3  H1  UNL     1       3.485 -12.023  18.024  1.00  0.00     0.163 HD
HETATM    4  C6  UNL     1       3.331 -10.102  17.491  1.00  0.00     0.241 C 
HETATM    5  O1  UNL     1       4.539  -9.660  17.626  1.00  0.00    -0.271 OA
HETATM    6  C7  UNL     1       2.373  -8.984  17.659  1.00  0.00     0.177 C 
HETATM    7  N2  UNL     1       2.400  -8.165  16.474  1.00  0.00    -0.346 N 
ATOM      8  H2  UNL     1       1.957  -8.601  15.666  1.00  0.00     0.163 HD
HETATM    9  C12 UNL     1       2.908  -6.903  16.216  1.00  0.00     0.241 C 
HETATM   10  O2  UNL     1       2.015  -5.986  15.988  1.00  0.00    -0.271 OA
HETATM   11  C13 UNL     1       4.316  -6.398  16.148  1.00  0.00     0.175 C 
HETATM   12  N3  UNL     1       4.805  -5.907  17.421  1.00  0.00    -0.359 N 
ATOM     13  H3  UNL     1       4.438  -4.993  17.686  1.00  0.00     0.162 HD
HETATM   14  C18 UNL     1       5.681  -6.457  18.342  1.00  0.00     0.135 C 
HETATM   15  C19 UNL     1       7.104  -6.804  18.263  1.00  0.00     0.159 C 
HETATM   16  N4  UNL     1       7.473  -7.789  17.280  1.00  0.00    -0.347 N 
ATOM     17  H4  UNL     1       7.109  -7.638  16.340  1.00  0.00     0.163 HD
HETATM   18  C24 UNL     1       8.272  -8.935  17.451  1.00  0.00     0.241 C 
HETATM   19  O4  UNL     1       9.243  -9.118  16.614  1.00  0.00    -0.271 OA
HETATM   20  C25 UNL     1       8.151  -9.981  18.479  1.00  0.00     0.179 C 
HETATM   21  C26 UNL     1       9.050  -9.607  19.664  1.00  0.00     0.037 C 
HETATM   22  C27 UNL     1       9.953 -10.785  19.871  1.00  0.00     0.022 C 
HETATM   23  C28 UNL     1      10.077 -11.280  18.443  1.00  0.00     0.127 C 
HETATM   24  N5  UNL     1       8.701 -11.256  18.002  1.00  0.00    -0.337 N 
HETATM   25  C29 UNL     1       7.967 -12.208  17.253  1.00  0.00     0.245 C 
HETATM   26  O5  UNL     1       8.497 -12.699  16.195  1.00  0.00    -0.271 OA
HETATM   27  C30 UNL     1       6.576 -12.683  17.633  1.00  0.00     0.195 C 
HETATM   28  N6  UNL     1       5.743 -12.753  16.513  1.00  0.00    -0.320 N 
ATOM     29  H6  UNL     1       5.838 -12.054  15.775  1.00  0.00     0.181 HD
HETATM   30  N7  UNL     1       4.801 -13.742  16.387  1.00  0.00    -0.272 N 
ATOM     31  H7  UNL     1       5.134 -14.700  16.489  1.00  0.00     0.189 HD
HETATM   32  C35 UNL     1       3.411 -13.580  16.130  1.00  0.00     0.258 C 
HETATM   33  O6  UNL     1       2.651 -14.547  15.918  1.00  0.00    -0.269 OA
ENDROOT
BRANCH   1  34
HETATM   34  C4  UNL     1       3.109 -11.631  14.775  1.00  0.00     0.035 C 
BRANCH  34  35
HETATM   35  C3  UNL     1       2.217 -12.181  13.697  1.00  0.00     0.002 C 
BRANCH  35  36
HETATM   36  C2  UNL     1       2.593 -11.774  12.307  1.00  0.00    -0.004 C 
HETATM   37  C1  UNL     1       3.758 -10.788  12.437  1.00  0.00     0.005 C 
ENDBRANCH  35  36
ENDBRANCH  34  35
ENDBRANCH   1  34
BRANCH   6  38
HETATM   38  C8  UNL     1       0.971  -9.477  17.968  1.00  0.00     0.038 C 
BRANCH  38  39
HETATM   39  C9  UNL     1       0.867 -10.391  19.129  1.00  0.00    -0.020 C 
HETATM   40  C10 UNL     1       0.053 -11.639  18.906  1.00  0.00     0.009 C 
HETATM   41  C11 UNL     1       0.146  -9.606  20.236  1.00  0.00     0.009 C 
ENDBRANCH  38  39
ENDBRANCH   6  38
BRANCH  27  42
HETATM   42  C31 UNL     1       6.765 -13.902  18.478  1.00  0.00     0.014 C 
HETATM   43  C32 UNL     1       6.561 -13.672  19.957  1.00  0.00     0.012 C 
BRANCH  42  44
HETATM   44  C33 UNL     1       7.911 -14.780  18.128  1.00  0.00     0.002 C 
HETATM   45  C34 UNL     1       7.414 -15.979  17.305  1.00  0.00     0.005 C 
ENDBRANCH  42  44
ENDBRANCH  27  42
BRANCH  11  46
HETATM   46  C14 UNL     1       4.316  -5.145  15.236  1.00  0.00     0.038 C 
BRANCH  46  47
HETATM   47  C15 UNL     1       4.773  -3.901  15.862  1.00  0.00    -0.020 C 
HETATM   48  C16 UNL     1       3.566  -2.931  15.786  1.00  0.00     0.009 C 
HETATM   49  C17 UNL     1       5.879  -3.186  15.143  1.00  0.00     0.009 C 
ENDBRANCH  46  47
ENDBRANCH  11  46
BRANCH  14  50
HETATM   50  O3  UNL     1       5.130  -6.712  19.496  1.00  0.00    -0.348 OA
ATOM     51  H3  UNL     1       5.444  -7.514  19.897  1.00  0.00     0.219 HD
ENDBRANCH  14  50
BRANCH  15  52
HETATM   52  C20 UNL     1       8.004  -5.565  18.132  1.00  0.00     0.037 C 
BRANCH  52  53
HETATM   53  C21 UNL     1       8.996  -5.801  17.016  1.00  0.00    -0.020 C 
HETATM   54  C22 UNL     1       8.949  -4.748  15.939  1.00  0.00     0.009 C 
HETATM   55  C23 UNL     1      10.422  -5.832  17.568  1.00  0.00     0.009 C 
ENDBRANCH  52  53
ENDBRANCH  15  52
TORSDOF 12
ENDMDL
MODEL 2
REMARK VINA RESULT: -7.072987808      0.931      1.175
REMARK  12 active torsions:
REMARK  status: ('A' for Active; 'I' for Inactive)
REMARK    1  A    between atoms: C2_2  and  C3_3 
REMARK    2  A    between atoms: C3_3  and  C4_4 
REMARK    3  A    between atoms: C4_4  and  C5_5 
REMARK    4  A    between atoms: C7_10  and  C8_11 
REMARK    5  A    between atoms: C8_11  and  C9_12 
REMARK    6  A    between atoms: C13_19  and  C14_20 
REMARK    7  A    between atoms: C14_20  and  C15_21 
REMARK    8  A    between atoms: C18_26  and  O3_27 
REMARK    9  A    between atoms: C19_29  and  C20_30 
REMARK   10  A    between atoms: C20_30  and  C21_31 
REMARK   11  A    between atoms: C30_45  and  C31_46 
REMARK   12  A    between atoms: C31_46  and  C33_48 
ROOT
HETATM    1  C5  UNL     1       2.528 -12.545  16.973  1.00  0.00     0.178 C 
HETATM    2  N1  UNL     1       3.049 -11.645  17.986  1.00  0.00    -0.346 N 
ATOM      3  H1  UNL     1       3.358 -12.131  18.827  1.00  0.00     0.163 HD
HETATM    4  C6  UNL     1       3.216 -10.290  18.060  1.00  0.00     0.241 C 
HETATM    5  O1  UNL     1       4.438  -9.864  18.084  1.00  0.00    -0.271 OA
HETATM    6  C7  UNL     1       2.289  -9.136  18.126  1.00  0.00     0.177 C 
HETATM    7  N2  UNL     1       2.275  -8.474  16.846  1.00  0.00    -0.346 N 
ATOM      8  H2  UNL     1       1.787  -8.998  16.120  1.00  0.00     0.163 HD
HETATM    9  C12 UNL     1       2.795  -7.269  16.405  1.00  0.00     0.241 C 
HETATM   10  O2  UNL     1       1.911  -6.367  16.101  1.00  0.00    -0.271 OA
HETATM   11  C13 UNL     1       4.208  -6.813  16.211  1.00  0.00     0.175 C 
HETATM   12  N3  UNL     1       4.765  -6.176  17.388  1.00  0.00    -0.359 N 
ATOM     13  H3  UNL     1       4.429  -5.227  17.550  1.00  0.00     0.162 HD
HETATM   14  C18 UNL     1       5.673  -6.626  18.332  1.00  0.00     0.135 C 
HETATM   15  C19 UNL     1       7.084  -7.016  18.235  1.00  0.00     0.159 C 
HETATM   16  N4  UNL     1       7.387  -8.127  17.372  1.00  0.00    -0.347 N 
ATOM     17  H4  UNL     1       6.983  -8.087  16.436  1.00  0.00     0.163 HD
HETATM   18  C24 UNL     1       8.172  -9.262  17.653  1.00  0.00     0.241 C 
HETATM   19  O4  UNL     1       9.099  -9.574  16.804  1.00  0.00    -0.271 OA
HETATM   20  C25 UNL     1       8.079 -10.164  18.811  1.00  0.00     0.179 C 
HETATM   21  C26 UNL     1       9.040  -9.666  19.897  1.00  0.00     0.037 C 
HETATM   22  C27 UNL     1       9.929 -10.830  20.212  1.00  0.00     0.022 C 
HETATM   23  C28 UNL     1       9.976 -11.506  18.856  1.00  0.00     0.127 C 
HETATM   24  N5  UNL     1       8.581 -11.504  18.477  1.00  0.00    -0.337 N 
HETATM   25  C29 UNL     1       7.795 -12.524  17.889  1.00  0.00     0.245 C 
HETATM   26  O5  UNL     1       8.264 -13.159  16.880  1.00  0.00    -0.271 OA
HETATM   27  C30 UNL     1       6.414 -12.912  18.388  1.00  0.00     0.195 C 
HETATM   28  N6  UNL     1       5.528 -13.103  17.324  1.00  0.00    -0.320 N 
ATOM     29  H6  UNL     1       5.602 -12.506  16.500  1.00  0.00     0.181 HD
HETATM   30  N7  UNL     1       4.562 -14.076  17.367  1.00  0.00    -0.272 N 
ATOM     31  H7  UNL     1       4.881 -15.022  17.577  1.00  0.00     0.189 HD
HETATM   32  C35 UNL     1       3.165 -13.913  17.154  1.00  0.00     0.258 C 
HETATM   33  O6  UNL     1       2.377 -14.880  17.101  1.00  0.00    -0.269 OA
ENDROOT
BRANCH   1  34
HETATM   34  C4  UNL     1       2.837 -12.145  15.575  1.00  0.00     0.035 C 
BRANCH  34  35
HETATM   35  C3  UNL     1       1.644 -12.368  14.688  1.00  0.00     0.002 C 
BRANCH  35  36
HETATM   36  C2  UNL     1       0.326 -12.347  15.397  1.00  0.00    -0.004 C 
HETATM   37  C1  UNL     1      -0.738 -12.719  14.359  1.00  0.00     0.005 C 
ENDBRANCH  35  36
ENDBRANCH  34  35
ENDBRANCH   1  34
BRANCH   6  38
HETATM   38  C8  UNL     1       0.894  -9.549  18.557  1.00  0.00     0.038 C 
BRANCH  38  39
HETATM   39  C9  UNL     1       0.821 -10.257  19.857  1.00  0.00    -0.020 C 
HETATM   40  C10 UNL     1       0.093 -11.575  19.843  1.00  0.00     0.009 C 
HETATM   41  C11 UNL     1       0.027  -9.342  20.803  1.00  0.00     0.009 C 
ENDBRANCH  38  39
ENDBRANCH   6  38
BRANCH  27  42
HETATM   42  C31 UNL     1       6.619 -14.018  19.373  1.00  0.00     0.014 C 
HETATM   43  C32 UNL     1       6.589 -13.579  20.818  1.00  0.00     0.012 C 
BRANCH  42  44
HETATM   44  C33 UNL     1       7.666 -15.018  19.039  1.00  0.00     0.002 C 
HETATM   45  C34 UNL     1       7.015 -16.387  18.784  1.00  0.00     0.005 C 
ENDBRANCH  42  44
ENDBRANCH  27  42
BRANCH  11  46
HETATM   46  C14 UNL     1       4.189  -5.686  15.147  1.00  0.00     0.038 C 
BRANCH  46  47
HETATM   47  C15 UNL     1       4.694  -4.383  15.589  1.00  0.00    -0.020 C 
HETATM   48  C16 UNL     1       3.518  -3.393  15.389  1.00  0.00     0.009 C 
HETATM   49  C17 UNL     1       5.813  -3.813  14.767  1.00  0.00     0.009 C 
ENDBRANCH  46  47
ENDBRANCH  11  46
BRANCH  14  50
HETATM   50  O3  UNL     1       5.172  -6.719  19.533  1.00  0.00    -0.348 OA
ATOM     51  H3  UNL     1       4.579  -6.009  19.751  1.00  0.00     0.219 HD
ENDBRANCH  14  50
BRANCH  15  52
HETATM   52  C20 UNL     1       8.000  -5.826  17.907  1.00  0.00     0.037 C 
BRANCH  52  53
HETATM   53  C21 UNL     1       8.985  -6.251  16.841  1.00  0.00    -0.020 C 
HETATM   54  C22 UNL     1       8.956  -5.375  15.615  1.00  0.00     0.009 C 
HETATM   55  C23 UNL     1      10.412  -6.227  17.392  1.00  0.00     0.009 C 
ENDBRANCH  52  53
ENDBRANCH  15  52
TORSDOF 12
ENDMDL
MODEL 3
REMARK VINA RESULT: -6.775676498      1.607      7.031
REMARK  12 active torsions:
REMARK  status: ('A' for Active; 'I' for Inactive)
REMARK    1  A    between atoms: C2_2  and  C3_3 
REMARK    2  A    between atoms: C3_3  and  C4_4 
REMARK    3  A    between atoms: C4_4  and  C5_5 
REMARK    4  A    between atoms: C7_10  and  C8_11 
REMARK    5  A    between atoms: C8_11  and  C9_12 
REMARK    6  A    between atoms: C13_19  and  C14_20 
REMARK    7  A    between atoms: C14_20  and  C15_21 
REMARK    8  A    between atoms: C18_26  and  O3_27 
REMARK    9  A    between atoms: C19_29  and  C20_30 
REMARK   10  A    between atoms: C20_30  and  C21_31 
REMARK   11  A    between atoms: C30_45  and  C31_46 
REMARK   12  A    between atoms: C31_46  and  C33_48 
ROOT
HETATM    1  C5  UNL     1       2.674  -8.393  16.391  1.00  0.00     0.178 C 
HETATM    2  N1  UNL     1       3.927  -8.853  15.822  1.00  0.00    -0.346 N 
ATOM      3  H1  UNL     1       4.331  -8.188  15.162  1.00  0.00     0.163 HD
HETATM    4  C6  UNL     1       4.686  -9.980  15.975  1.00  0.00     0.241 C 
HETATM    5  O1  UNL     1       5.836  -9.823  16.546  1.00  0.00    -0.271 OA
HETATM    6  C7  UNL     1       4.499 -11.408  15.623  1.00  0.00     0.177 C 
HETATM    7  N2  UNL     1       4.208 -12.150  16.824  1.00  0.00    -0.346 N 
ATOM      8  H2  UNL     1       3.273 -11.979  17.193  1.00  0.00     0.163 HD
HETATM    9  C12 UNL     1       4.946 -13.048  17.575  1.00  0.00     0.241 C 
HETATM   10  O2  UNL     1       4.517 -14.274  17.545  1.00  0.00    -0.271 OA
HETATM   11  C13 UNL     1       6.161 -12.859  18.430  1.00  0.00     0.175 C 
HETATM   12  N3  UNL     1       7.401 -13.049  17.703  1.00  0.00    -0.359 N 
ATOM     13  H3  UNL     1       7.627 -14.025  17.509  1.00  0.00     0.162 HD
HETATM   14  C18 UNL     1       8.332 -12.143  17.224  1.00  0.00     0.135 C 
HETATM   15  C19 UNL     1       9.217 -11.190  17.901  1.00  0.00     0.159 C 
HETATM   16  N4  UNL     1       8.581 -10.164  18.685  1.00  0.00    -0.347 N 
ATOM     17  H4  UNL     1       7.865 -10.483  19.338  1.00  0.00     0.163 HD
HETATM   18  C24 UNL     1       8.819  -8.777  18.667  1.00  0.00     0.241 C 
HETATM   19  O4  UNL     1       9.026  -8.190  19.802  1.00  0.00    -0.271 OA
HETATM   20  C25 UNL     1       8.867  -7.880  17.502  1.00  0.00     0.179 C 
HETATM   21  C26 UNL     1      10.320  -7.780  17.021  1.00  0.00     0.037 C 
HETATM   22  C27 UNL     1      10.643  -6.317  17.016  1.00  0.00     0.022 C 
HETATM   23  C28 UNL     1       9.777  -5.849  18.169  1.00  0.00     0.127 C 
HETATM   24  N5  UNL     1       8.522  -6.504  17.881  1.00  0.00    -0.337 N 
HETATM   25  C29 UNL     1       7.198  -6.005  17.941  1.00  0.00     0.245 C 
HETATM   26  O5  UNL     1       6.835  -5.348  18.980  1.00  0.00    -0.271 OA
HETATM   27  C30 UNL     1       6.174  -6.205  16.838  1.00  0.00     0.195 C 
HETATM   28  N6  UNL     1       4.925  -6.544  17.365  1.00  0.00    -0.320 N 
ATOM     29  H6  UNL     1       4.876  -7.137  18.193  1.00  0.00     0.181 HD
HETATM   30  N7  UNL     1       3.763  -6.093  16.790  1.00  0.00    -0.272 N 
ATOM     31  H7  UNL     1       3.690  -5.086  16.647  1.00  0.00     0.189 HD
HETATM   32  C35 UNL     1       2.650  -6.873  16.371  1.00  0.00     0.258 C 
HETATM   33  O6  UNL     1       1.588  -6.362  15.962  1.00  0.00    -0.269 OA
ENDROOT
BRANCH   1  34
HETATM   34  C4  UNL     1       2.467  -8.774  17.813  1.00  0.00     0.035 C 
BRANCH  34  35
HETATM   35  C3  UNL     1       1.153  -9.486  17.980  1.00  0.00     0.002 C 
BRANCH  35  36
HETATM   36  C2  UNL     1       1.269 -10.936  18.335  1.00  0.00    -0.004 C 
HETATM   37  C1  UNL     1       2.216 -11.021  19.536  1.00  0.00     0.005 C 
ENDBRANCH  35  36
ENDBRANCH  34  35
ENDBRANCH   1  34
BRANCH   6  38
HETATM   38  C8  UNL     1       3.422 -11.599  14.571  1.00  0.00     0.038 C 
BRANCH  38  39
HETATM   39  C9  UNL     1       2.601 -12.822  14.727  1.00  0.00    -0.020 C 
HETATM   40  C10 UNL     1       2.625 -13.778  13.563  1.00  0.00     0.009 C 
HETATM   41  C11 UNL     1       1.144 -12.351  14.860  1.00  0.00     0.009 C 
ENDBRANCH  38  39
ENDBRANCH   6  38
BRANCH  27  42
HETATM   42  C31 UNL     1       6.288  -5.017  15.938  1.00  0.00     0.014 C 
HETATM   43  C32 UNL     1       7.591  -4.933  15.179  1.00  0.00     0.012 C 
BRANCH  42  44
HETATM   44  C33 UNL     1       5.787  -3.726  16.478  1.00  0.00     0.002 C 
HETATM   45  C34 UNL     1       6.881  -2.652  16.355  1.00  0.00     0.005 C 
ENDBRANCH  42  44
ENDBRANCH  27  42
BRANCH  11  46
HETATM   46  C14 UNL     1       6.166 -13.994  19.486  1.00  0.00     0.038 C 
BRANCH  46  47
HETATM   47  C15 UNL     1       5.992 -13.570  20.878  1.00  0.00    -0.020 C 
HETATM   48  C16 UNL     1       4.488 -13.776  21.190  1.00  0.00     0.009 C 
HETATM   49  C17 UNL     1       6.238 -12.113  21.143  1.00  0.00     0.009 C 
ENDBRANCH  46  47
ENDBRANCH  11  46
BRANCH  14  50
HETATM   50  O3  UNL     1       8.437 -12.143  15.924  1.00  0.00    -0.348 OA
ATOM     51  H3  UNL     1       8.999 -12.831  15.589  1.00  0.00     0.219 HD
ENDBRANCH  14  50
BRANCH  15  52
HETATM   52  C20 UNL     1      10.308 -11.888  18.729  1.00  0.00     0.037 C 
BRANCH  52  53
HETATM   53  C21 UNL     1       9.785 -12.112  20.130  1.00  0.00    -0.020 C 
HETATM   54  C22 UNL     1       9.714 -13.566  20.518  1.00  0.00     0.009 C 
HETATM   55  C23 UNL     1      10.677 -11.404  21.152  1.00  0.00     0.009 C 
ENDBRANCH  52  53
ENDBRANCH  15  52
TORSDOF 12
ENDMDL
MODEL 4
REMARK VINA RESULT: -6.767633936      2.216      8.978
REMARK  12 active torsions:
REMARK  status: ('A' for Active; 'I' for Inactive)
REMARK    1  A    between atoms: C2_2  and  C3_3 
REMARK    2  A    between atoms: C3_3  and  C4_4 
REMARK    3  A    between atoms: C4_4  and  C5_5 
REMARK    4  A    between atoms: C7_10  and  C8_11 
REMARK    5  A    between atoms: C8_11  and  C9_12 
REMARK    6  A    between atoms: C13_19  and  C14_20 
REMARK    7  A    between atoms: C14_20  and  C15_21 
REMARK    8  A    between atoms: C18_26  and  O3_27 
REMARK    9  A    between atoms: C19_29  and  C20_30 
REMARK   10  A    between atoms: C20_30  and  C21_31 
REMARK   11  A    between atoms: C30_45  and  C31_46 
REMARK   12  A    between atoms: C31_46  and  C33_48 
ROOT
HETATM    1  C5  UNL     1       8.217  -7.906  18.421  1.00  0.00     0.178 C 
HETATM    2  N1  UNL     1       7.503  -8.969  19.103  1.00  0.00    -0.346 N 
ATOM      3  H1  UNL     1       6.627  -8.655  19.522  1.00  0.00     0.163 HD
HETATM    4  C6  UNL     1       7.744 -10.300  19.308  1.00  0.00     0.241 C 
HETATM    5  O1  UNL     1       6.945 -11.125  18.714  1.00  0.00    -0.271 OA
HETATM    6  C7  UNL     1       8.749 -11.060  20.088  1.00  0.00     0.177 C 
HETATM    7  N2  UNL     1       9.714 -11.625  19.179  1.00  0.00    -0.346 N 
ATOM      8  H2  UNL     1      10.349 -10.936  18.777  1.00  0.00     0.163 HD
HETATM    9  C12 UNL     1       9.950 -12.918  18.744  1.00  0.00     0.241 C 
HETATM   10  O2  UNL     1      11.065 -13.443  19.156  1.00  0.00    -0.271 OA
HETATM   11  C13 UNL     1       9.145 -13.830  17.871  1.00  0.00     0.175 C 
HETATM   12  N3  UNL     1       8.227 -14.667  18.618  1.00  0.00    -0.359 N 
ATOM     13  H3  UNL     1       8.671 -15.444  19.106  1.00  0.00     0.162 HD
HETATM   14  C18 UNL     1       6.854 -14.597  18.789  1.00  0.00     0.135 C 
HETATM   15  C19 UNL     1       5.737 -14.720  17.847  1.00  0.00     0.159 C 
HETATM   16  N4  UNL     1       5.682 -13.752  16.783  1.00  0.00    -0.347 N 
ATOM     17  H4  UNL     1       6.548 -13.612  16.263  1.00  0.00     0.163 HD
HETATM   18  C24 UNL     1       4.585 -12.974  16.367  1.00  0.00     0.241 C 
HETATM   19  O4  UNL     1       4.297 -12.972  15.105  1.00  0.00    -0.271 OA
HETATM   20  C25 UNL     1       3.699 -12.141  17.194  1.00  0.00     0.179 C 
HETATM   21  C26 UNL     1       2.489 -12.984  17.617  1.00  0.00     0.037 C 
HETATM   22  C27 UNL     1       1.285 -12.216  17.165  1.00  0.00     0.022 C 
HETATM   23  C28 UNL     1       1.845 -11.548  15.924  1.00  0.00     0.127 C 
HETATM   24  N5  UNL     1       3.113 -11.049  16.405  1.00  0.00    -0.337 N 
HETATM   25  C29 UNL     1       3.740  -9.796  16.194  1.00  0.00     0.245 C 
HETATM   26  O5  UNL     1       3.790  -9.326  15.004  1.00  0.00    -0.271 OA
HETATM   27  C30 UNL     1       4.361  -8.971  17.307  1.00  0.00     0.195 C 
HETATM   28  N6  UNL     1       5.594  -8.443  16.914  1.00  0.00    -0.320 N 
ATOM     29  H6  UNL     1       6.206  -8.995  16.313  1.00  0.00     0.181 HD
HETATM   30  N7  UNL     1       5.997  -7.196  17.322  1.00  0.00    -0.272 N 
ATOM     31  H7  UNL     1       5.349  -6.430  17.144  1.00  0.00     0.189 HD
HETATM   32  C35 UNL     1       7.219  -6.854  17.966  1.00  0.00     0.258 C 
HETATM   33  O6  UNL     1       7.547  -5.672  18.198  1.00  0.00    -0.269 OA
ENDROOT
BRANCH   1  34
HETATM   34  C4  UNL     1       8.930  -8.334  17.189  1.00  0.00     0.035 C 
BRANCH  34  35
HETATM   35  C3  UNL     1       9.596  -7.157  16.532  1.00  0.00     0.002 C 
BRANCH  35  36
HETATM   36  C2  UNL     1      10.872  -6.718  17.179  1.00  0.00    -0.004 C 
HETATM   37  C1  UNL     1      10.810  -5.191  17.281  1.00  0.00     0.005 C 
ENDBRANCH  35  36
ENDBRANCH  34  35
ENDBRANCH   1  34
BRANCH   6  38
HETATM   38  C8  UNL     1       9.414 -10.203  21.149  1.00  0.00     0.038 C 
BRANCH  38  39
HETATM   39  C9  UNL     1       9.494 -10.817  22.495  1.00  0.00    -0.020 C 
HETATM   40  C10 UNL     1       8.218 -10.804  23.296  1.00  0.00     0.009 C 
HETATM   41  C11 UNL     1      10.506  -9.980  23.294  1.00  0.00     0.009 C 
ENDBRANCH  38  39
ENDBRANCH   6  38
BRANCH  27  42
HETATM   42  C31 UNL     1       3.293  -8.045  17.791  1.00  0.00     0.014 C 
HETATM   43  C32 UNL     1       2.094  -8.738  18.395  1.00  0.00     0.012 C 
BRANCH  42  44
HETATM   44  C33 UNL     1       2.977  -6.883  16.920  1.00  0.00     0.002 C 
HETATM   45  C34 UNL     1       3.032  -5.586  17.743  1.00  0.00     0.005 C 
ENDBRANCH  42  44
ENDBRANCH  27  42
BRANCH  11  46
HETATM   46  C14 UNL     1      10.128 -14.838  17.222  1.00  0.00     0.038 C 
BRANCH  46  47
HETATM   47  C15 UNL     1       9.512 -15.940  16.477  1.00  0.00    -0.020 C 
HETATM   48  C16 UNL     1       9.997 -17.235  17.176  1.00  0.00     0.009 C 
HETATM   49  C17 UNL     1       9.962 -16.086  15.053  1.00  0.00     0.009 C 
ENDBRANCH  46  47
ENDBRANCH  11  46
BRANCH  14  50
HETATM   50  O3  UNL     1       6.493 -14.383  20.024  1.00  0.00    -0.348 OA
ATOM     51  H3  UNL     1       5.566 -14.520  20.177  1.00  0.00     0.219 HD
ENDBRANCH  14  50
BRANCH  15  52
HETATM   52  C20 UNL     1       5.604 -16.141  17.275  1.00  0.00     0.037 C 
BRANCH  52  53
HETATM   53  C21 UNL     1       5.387 -16.046  15.781  1.00  0.00    -0.020 C 
HETATM   54  C22 UNL     1       6.359 -16.874  14.981  1.00  0.00     0.009 C 
HETATM   55  C23 UNL     1       3.976 -16.509  15.417  1.00  0.00     0.009 C 
ENDBRANCH  52  53
ENDBRANCH  15  52
TORSDOF 12
ENDMDL
MODEL 5
REMARK VINA RESULT: -6.693745667      2.168      6.998
REMARK  12 active torsions:
REMARK  status: ('A' for Active; 'I' for Inactive)
REMARK    1  A    between atoms: C2_2  and  C3_3 
REMARK    2  A    between atoms: C3_3  and  C4_4 
REMARK    3  A    between atoms: C4_4  and  C5_5 
REMARK    4  A    between atoms: C7_10  and  C8_11 
REMARK    5  A    between atoms: C8_11  and  C9_12 
REMARK    6  A    between atoms: C13_19  and  C14_20 
REMARK    7  A    between atoms: C14_20  and  C15_21 
REMARK    8  A    between atoms: C18_26  and  O3_27 
REMARK    9  A    between atoms: C19_29  and  C20_30 
REMARK   10  A    between atoms: C20_30  and  C21_31 
REMARK   11  A    between atoms: C30_45  and  C31_46 
REMARK   12  A    between atoms: C31_46  and  C33_48 
ROOT
HETATM    1  C5  UNL     1       2.655 -11.138  17.828  1.00  0.00     0.178 C 
HETATM    2  N1  UNL     1       3.742 -10.651  16.998  1.00  0.00    -0.346 N 
ATOM      3  H1  UNL     1       3.416 -10.172  16.159  1.00  0.00     0.163 HD
HETATM    4  C6  UNL     1       5.105 -10.692  17.094  1.00  0.00     0.241 C 
HETATM    5  O1  UNL     1       5.701  -9.559  17.281  1.00  0.00    -0.271 OA
HETATM    6  C7  UNL     1       6.114 -11.776  17.028  1.00  0.00     0.177 C 
HETATM    7  N2  UNL     1       6.599 -12.043  18.358  1.00  0.00    -0.346 N 
ATOM      8  H2  UNL     1       5.923 -12.524  18.951  1.00  0.00     0.163 HD
HETATM    9  C12 UNL     1       7.801 -11.775  18.992  1.00  0.00     0.241 C 
HETATM   10  O2  UNL     1       8.521 -12.820  19.270  1.00  0.00    -0.271 OA
HETATM   11  C13 UNL     1       8.426 -10.484  19.423  1.00  0.00     0.175 C 
HETATM   12  N3  UNL     1       9.280  -9.901  18.408  1.00  0.00    -0.359 N 
ATOM     13  H3  UNL     1      10.183 -10.361  18.305  1.00  0.00     0.162 HD
HETATM   14  C18 UNL     1       9.087  -8.829  17.552  1.00  0.00     0.135 C 
HETATM   15  C19 UNL     1       8.893  -7.396  17.795  1.00  0.00     0.159 C 
HETATM   16  N4  UNL     1       7.736  -7.024  18.567  1.00  0.00    -0.347 N 
ATOM     17  H4  UNL     1       7.599  -7.536  19.438  1.00  0.00     0.163 HD
HETATM   18  C24 UNL     1       6.770  -6.043  18.274  1.00  0.00     0.241 C 
HETATM   19  O4  UNL     1       6.489  -5.184  19.201  1.00  0.00    -0.271 OA
HETATM   20  C25 UNL     1       6.018  -5.856  17.024  1.00  0.00     0.179 C 
HETATM   21  C26 UNL     1       6.782  -4.865  16.137  1.00  0.00     0.037 C 
HETATM   22  C27 UNL     1       5.806  -3.773  15.821  1.00  0.00     0.022 C 
HETATM   23  C28 UNL     1       4.978  -3.779  17.091  1.00  0.00     0.127 C 
HETATM   24  N5  UNL     1       4.733  -5.191  17.276  1.00  0.00    -0.337 N 
HETATM   25  C29 UNL     1       3.544  -5.870  17.639  1.00  0.00     0.245 C 
HETATM   26  O5  UNL     1       2.860  -5.428  18.628  1.00  0.00    -0.271 OA
HETATM   27  C30 UNL     1       3.029  -7.104  16.919  1.00  0.00     0.195 C 
HETATM   28  N6  UNL     1       2.581  -8.067  17.827  1.00  0.00    -0.320 N 
ATOM     29  H6  UNL     1       3.072  -8.186  18.714  1.00  0.00     0.181 HD
HETATM   30  N7  UNL     1       1.493  -8.856  17.549  1.00  0.00    -0.272 N 
ATOM     31  H7  UNL     1       0.637  -8.369  17.285  1.00  0.00     0.189 HD
HETATM   32  C35 UNL     1       1.426 -10.276  17.589  1.00  0.00     0.258 C 
HETATM   33  O6  UNL     1       0.358 -10.902  17.430  1.00  0.00    -0.269 OA
ENDROOT
BRANCH   1  34
HETATM   34  C4  UNL     1       2.915 -11.061  19.290  1.00  0.00     0.035 C 
BRANCH  34  35
HETATM   35  C3  UNL     1       3.178 -12.432  19.850  1.00  0.00     0.002 C 
BRANCH  35  36
HETATM   36  C2  UNL     1       4.240 -12.484  20.902  1.00  0.00    -0.004 C 
HETATM   37  C1  UNL     1       4.766 -13.923  20.926  1.00  0.00     0.005 C 
ENDBRANCH  35  36
ENDBRANCH  34  35
ENDBRANCH   1  34
BRANCH   6  38
HETATM   38  C8  UNL     1       5.564 -13.027  16.371  1.00  0.00     0.038 C 
BRANCH  38  39
HETATM   39  C9  UNL     1       5.360 -14.179  17.281  1.00  0.00    -0.020 C 
HETATM   40  C10 UNL     1       6.246 -15.372  17.033  1.00  0.00     0.009 C 
HETATM   41  C11 UNL     1       3.920 -14.664  17.050  1.00  0.00     0.009 C 
ENDBRANCH  38  39
ENDBRANCH   6  38
BRANCH  27  42
HETATM   42  C31 UNL     1       2.099  -6.614  15.858  1.00  0.00     0.014 C 
HETATM   43  C32 UNL     1       2.728  -6.476  14.492  1.00  0.00     0.012 C 
BRANCH  42  44
HETATM   44  C33 UNL     1       1.176  -5.513  16.241  1.00  0.00     0.002 C 
HETATM   45  C34 UNL     1       1.540  -4.236  15.466  1.00  0.00     0.005 C 
ENDBRANCH  42  44
ENDBRANCH  27  42
BRANCH  11  46
HETATM   46  C14 UNL     1       9.394 -10.805  20.591  1.00  0.00     0.038 C 
BRANCH  46  47
HETATM   47  C15 UNL     1       8.921 -10.440  21.929  1.00  0.00    -0.020 C 
HETATM   48  C16 UNL     1      10.196 -10.087  22.737  1.00  0.00     0.009 C 
HETATM   49  C17 UNL     1       8.274 -11.548  22.708  1.00  0.00     0.009 C 
ENDBRANCH  46  47
ENDBRANCH  11  46
BRANCH  14  50
HETATM   50  O3  UNL     1       9.077  -9.165  16.292  1.00  0.00    -0.348 OA
ATOM     51  H3  UNL     1       8.550  -9.934  16.109  1.00  0.00     0.219 HD
ENDBRANCH  14  50
BRANCH  15  52
HETATM   52  C20 UNL     1      10.151  -6.723  18.371  1.00  0.00     0.037 C 
BRANCH  52  53
HETATM   53  C21 UNL     1      10.687  -5.743  17.351  1.00  0.00    -0.020 C 
HETATM   54  C22 UNL     1      10.286  -6.072  15.936  1.00  0.00     0.009 C 
HETATM   55  C23 UNL     1      10.188  -4.330  17.656  1.00  0.00     0.009 C 
ENDBRANCH  52  53
ENDBRANCH  15  52
TORSDOF 12
ENDMDL
