MODEL 1
REMARK VINA RESULT: -9.206068494      0.000      0.000
REMARK  5 active torsions:
REMARK  status: ('A' for Active; 'I' for Inactive)
REMARK    1  A    between atoms: C4_7  and  N2_8 
REMARK    2  A    between atoms: N2_8  and  N3_10 
REMARK    3  A    between atoms: N3_10  and  C5_12 
REMARK    4  A    between atoms: C5_12  and  C6_13 
REMARK    5  A    between atoms: C10_24  and  N7_25 
ROOT
HETATM    1  C1  UNL     1     146.265  71.116  67.134  1.00  0.00     0.089 C 
HETATM    2  C2  UNL     1     145.767  70.105  66.145  1.00  0.00     0.096 C 
HETATM    3  N1  UNL     1     146.314  68.860  66.217  1.00  0.00    -0.310 N 
ATOM      4  H1  UNL     1     147.139  68.755  66.810  1.00  0.00     0.170 HD
HETATM    5  C3  UNL     1     145.871  67.735  65.575  1.00  0.00     0.292 C 
HETATM    6  O1  UNL     1     146.671  66.773  65.491  1.00  0.00    -0.264 OA
HETATM    7  C4  UNL     1     144.640  67.519  65.000  1.00  0.00     0.204 C 
HETATM    8  N6  UNL     1     143.975  68.481  64.272  1.00  0.00    -0.170 N 
ATOM      9  H6  UNL     1     143.324  68.132  63.569  1.00  0.00     0.186 HD
HETATM   10  C10 UNL     1     144.073  69.837  64.365  1.00  0.00     0.678 C 
HETATM   11  N8  UNL     1     144.823  70.517  65.283  1.00  0.00    -0.181 N 
ATOM     12  H8  UNL     1     144.632  71.519  65.320  1.00  0.00     0.185 HD
ENDROOT
BRANCH   7  13
HETATM   13  N2  UNL     1     144.059  66.412  65.138  1.00  0.00    -0.281 N 
ATOM     14  H2  UNL     1     143.539  66.301  66.009  1.00  0.00     0.188 HD
BRANCH  13  15
HETATM   15  N3  UNL     1     144.020  65.349  64.307  1.00  0.00    -0.309 N 
ATOM     16  H3  UNL     1     144.749  64.653  64.468  1.00  0.00     0.186 HD
BRANCH  15  17
HETATM   17  C5  UNL     1     143.222  65.074  63.357  1.00  0.00     0.126 C 
BRANCH  17  18
HETATM   18  C6  UNL     1     143.536  63.939  62.497  1.00  0.00     0.074 A 
HETATM   19  C7  UNL     1     143.897  63.934  61.167  1.00  0.00     0.039 A 
HETATM   20  C8  UNL     1     144.056  65.135  60.291  1.00  0.00     0.071 C 
HETATM   21  N4  UNL     1     144.090  62.643  60.788  1.00  0.00    -0.301 N 
HETATM   22  N5  UNL     1     143.871  61.833  61.806  1.00  0.00    -0.266 N 
ATOM     23  H4  UNL     1     144.363  62.345  59.852  1.00  0.00     0.186 HD
HETATM   24  C9  UNL     1     143.531  62.587  62.863  1.00  0.00     0.273 A 
ATOM     25  H5  UNL     1     143.947  60.815  61.793  1.00  0.00     0.190 HD
HETATM   26  O2  UNL     1     143.240  62.208  64.036  1.00  0.00    -0.266 OA
ENDBRANCH  17  18
ENDBRANCH  15  17
ENDBRANCH  13  15
ENDBRANCH   7  13
BRANCH  10  27
HETATM   27  N7  UNL     1     143.402  70.537  63.525  1.00  0.00    -0.234 N 
ATOM     28  H72 UNL     1     142.484  70.184  63.255  1.00  0.00     0.174 HD
ATOM     29  H71 UNL     1     143.831  71.396  63.181  1.00  0.00     0.174 HD
ENDBRANCH  10  27
TORSDOF 5
ENDMDL
MODEL 2
REMARK VINA RESULT: -8.739731811      2.566      7.161
REMARK  5 active torsions:
REMARK  status: ('A' for Active; 'I' for Inactive)
REMARK    1  A    between atoms: C4_7  and  N2_8 
REMARK    2  A    between atoms: N2_8  and  N3_10 
REMARK    3  A    between atoms: N3_10  and  C5_12 
REMARK    4  A    between atoms: C5_12  and  C6_13 
REMARK    5  A    between atoms: C10_24  and  N7_25 
ROOT
HETATM    1  C1  UNL     1     145.066  65.729  61.879  1.00  0.00     0.089 C 
HETATM    2  C2  UNL     1     144.840  66.534  63.123  1.00  0.00     0.096 C 
HETATM    3  N1  UNL     1     145.446  66.085  64.257  1.00  0.00    -0.310 N 
ATOM      4  H1  UNL     1     145.857  65.152  64.220  1.00  0.00     0.170 HD
HETATM    5  C3  UNL     1     145.561  66.761  65.442  1.00  0.00     0.292 C 
HETATM    6  O1  UNL     1     145.847  66.085  66.459  1.00  0.00    -0.264 OA
HETATM    7  C4  UNL     1     145.400  68.109  65.668  1.00  0.00     0.204 C 
HETATM    8  N6  UNL     1     144.407  68.853  65.069  1.00  0.00    -0.170 N 
ATOM      9  H6  UNL     1     144.107  69.683  65.580  1.00  0.00     0.186 HD
HETATM   10  C10 UNL     1     143.773  68.629  63.885  1.00  0.00     0.678 C 
HETATM   11  N8  UNL     1     144.066  67.624  63.005  1.00  0.00    -0.181 N 
ATOM     12  H8  UNL     1     143.614  67.720  62.095  1.00  0.00     0.185 HD
ENDROOT
BRANCH   7  13
HETATM   13  N2  UNL     1     146.185  68.724  66.434  1.00  0.00    -0.281 N 
ATOM     14  H2  UNL     1     146.377  68.260  67.321  1.00  0.00     0.188 HD
BRANCH  13  15
HETATM   15  N3  UNL     1     146.811  69.907  66.257  1.00  0.00    -0.309 N 
ATOM     16  H3  UNL     1     147.604  69.880  65.616  1.00  0.00     0.186 HD
BRANCH  15  17
HETATM   17  C5  UNL     1     146.570  71.049  66.761  1.00  0.00     0.126 C 
BRANCH  17  18
HETATM   18  C6  UNL     1     146.268  72.153  65.856  1.00  0.00     0.074 A 
HETATM   19  C7  UNL     1     147.095  73.162  65.414  1.00  0.00     0.039 A 
HETATM   20  C8  UNL     1     148.535  73.344  65.773  1.00  0.00     0.071 C 
HETATM   21  N4  UNL     1     146.376  73.964  64.586  1.00  0.00    -0.301 N 
HETATM   22  N5  UNL     1     145.138  73.516  64.481  1.00  0.00    -0.266 N 
ATOM     23  H4  UNL     1     146.739  74.793  64.115  1.00  0.00     0.186 HD
HETATM   24  C9  UNL     1     145.037  72.415  65.241  1.00  0.00     0.273 A 
ATOM     25  H5  UNL     1     144.393  73.932  63.921  1.00  0.00     0.190 HD
HETATM   26  O2  UNL     1     144.023  71.678  65.423  1.00  0.00    -0.266 OA
ENDBRANCH  17  18
ENDBRANCH  15  17
ENDBRANCH  13  15
ENDBRANCH   7  13
BRANCH  10  27
HETATM   27  N7  UNL     1     142.822  69.428  63.563  1.00  0.00    -0.234 N 
ATOM     28  H72 UNL     1     142.517  70.096  64.271  1.00  0.00     0.174 HD
ATOM     29  H71 UNL     1     142.432  69.340  62.624  1.00  0.00     0.174 HD
ENDBRANCH  10  27
TORSDOF 5
ENDMDL
MODEL 3
REMARK VINA RESULT: -8.494662216      1.269      1.852
REMARK  5 active torsions:
REMARK  status: ('A' for Active; 'I' for Inactive)
REMARK    1  A    between atoms: C4_7  and  N2_8 
REMARK    2  A    between atoms: N2_8  and  N3_10 
REMARK    3  A    between atoms: N3_10  and  C5_12 
REMARK    4  A    between atoms: C5_12  and  C6_13 
REMARK    5  A    between atoms: C10_24  and  N7_25 
ROOT
HETATM    1  C1  UNL     1     145.764  70.961  66.894  1.00  0.00     0.089 C 
HETATM    2  C2  UNL     1     145.398  69.875  65.926  1.00  0.00     0.096 C 
HETATM    3  N1  UNL     1     146.095  68.710  66.027  1.00  0.00    -0.310 N 
ATOM      4  H1  UNL     1     146.923  68.719  66.623  1.00  0.00     0.170 HD
HETATM    5  C3  UNL     1     145.797  67.525  65.408  1.00  0.00     0.292 C 
HETATM    6  O1  UNL     1     146.709  66.667  65.347  1.00  0.00    -0.264 OA
HETATM    7  C4  UNL     1     144.604  67.146  64.835  1.00  0.00     0.204 C 
HETATM    8  N6  UNL     1     143.830  68.004  64.085  1.00  0.00    -0.170 N 
ATOM      9  H6  UNL     1     143.231  67.563  63.388  1.00  0.00     0.186 HD
HETATM   10  C10 UNL     1     143.759  69.363  64.149  1.00  0.00     0.678 C 
HETATM   11  N8  UNL     1     144.416  70.150  65.054  1.00  0.00    -0.181 N 
ATOM     12  H8  UNL     1     144.103  71.121  65.068  1.00  0.00     0.185 HD
ENDROOT
BRANCH   7  13
HETATM   13  N2  UNL     1     144.163  65.980  64.996  1.00  0.00    -0.281 N 
ATOM     14  H2  UNL     1     143.894  65.746  65.951  1.00  0.00     0.188 HD
BRANCH  13  15
HETATM   15  N3  UNL     1     143.994  64.990  64.094  1.00  0.00    -0.309 N 
ATOM     16  H3  UNL     1     143.023  64.802  63.842  1.00  0.00     0.186 HD
BRANCH  15  17
HETATM   17  C5  UNL     1     144.849  64.255  63.507  1.00  0.00     0.126 C 
BRANCH  17  18
HETATM   18  C6  UNL     1     144.407  63.453  62.372  1.00  0.00     0.074 A 
HETATM   19  C7  UNL     1     144.060  62.120  62.335  1.00  0.00     0.039 A 
HETATM   20  C8  UNL     1     144.054  61.177  63.496  1.00  0.00     0.071 C 
HETATM   21  N4  UNL     1     143.717  61.809  61.058  1.00  0.00    -0.301 N 
HETATM   22  N5  UNL     1     143.827  62.874  60.285  1.00  0.00    -0.266 N 
ATOM     23  H4  UNL     1     143.417  60.886  60.742  1.00  0.00     0.186 HD
HETATM   24  C9  UNL     1     144.246  63.893  61.051  1.00  0.00     0.273 A 
ATOM     25  H5  UNL     1     143.630  62.915  59.285  1.00  0.00     0.190 HD
HETATM   26  O2  UNL     1     144.480  65.089  60.707  1.00  0.00    -0.266 OA
ENDBRANCH  17  18
ENDBRANCH  15  17
ENDBRANCH  13  15
ENDBRANCH   7  13
BRANCH  10  27
HETATM   27  N7  UNL     1     143.011  69.957  63.292  1.00  0.00    -0.234 N 
ATOM     28  H72 UNL     1     142.005  69.811  63.374  1.00  0.00     0.174 HD
ATOM     29  H71 UNL     1     143.471  70.530  62.585  1.00  0.00     0.174 HD
ENDBRANCH  10  27
TORSDOF 5
ENDMDL
MODEL 4
REMARK VINA RESULT: -8.422642662      2.195      6.409
REMARK  5 active torsions:
REMARK  status: ('A' for Active; 'I' for Inactive)
REMARK    1  A    between atoms: C4_7  and  N2_8 
REMARK    2  A    between atoms: N2_8  and  N3_10 
REMARK    3  A    between atoms: N3_10  and  C5_12 
REMARK    4  A    between atoms: C5_12  and  C6_13 
REMARK    5  A    between atoms: C10_24  and  N7_25 
ROOT
HETATM    1  C1  UNL     1     146.699  64.974  61.249  1.00  0.00     0.089 C 
HETATM    2  C2  UNL     1     145.853  65.260  62.454  1.00  0.00     0.096 C 
HETATM    3  N1  UNL     1     146.504  65.714  63.561  1.00  0.00    -0.310 N 
ATOM      4  H1  UNL     1     147.523  65.658  63.549  1.00  0.00     0.170 HD
HETATM    5  C3  UNL     1     145.929  66.239  64.687  1.00  0.00     0.292 C 
HETATM    6  O1  UNL     1     146.641  66.295  65.718  1.00  0.00    -0.264 OA
HETATM    7  C4  UNL     1     144.649  66.721  64.838  1.00  0.00     0.204 C 
HETATM    8  N6  UNL     1     143.549  66.110  64.277  1.00  0.00    -0.170 N 
ATOM      9  H6  UNL     1     142.664  66.266  64.757  1.00  0.00     0.186 HD
HETATM   10  C10 UNL     1     143.487  65.325  63.165  1.00  0.00     0.678 C 
HETATM   11  N8  UNL     1     144.534  65.047  62.331  1.00  0.00    -0.181 N 
ATOM     12  H8  UNL     1     144.263  64.596  61.456  1.00  0.00     0.185 HD
ENDROOT
BRANCH   7  13
HETATM   13  N2  UNL     1     144.439  67.771  65.497  1.00  0.00    -0.281 N 
ATOM     14  H2  UNL     1     143.624  67.743  66.109  1.00  0.00     0.188 HD
BRANCH  13  15
HETATM   15  N3  UNL     1     145.130  68.931  65.513  1.00  0.00    -0.309 N 
ATOM     16  H3  UNL     1     146.118  68.844  65.274  1.00  0.00     0.186 HD
BRANCH  15  17
HETATM   17  C5  UNL     1     144.748  70.113  65.778  1.00  0.00     0.126 C 
BRANCH  17  18
HETATM   18  C6  UNL     1     144.186  70.916  64.698  1.00  0.00     0.074 A 
HETATM   19  C7  UNL     1     144.339  72.263  64.449  1.00  0.00     0.039 A 
HETATM   20  C8  UNL     1     145.150  73.224  65.260  1.00  0.00     0.071 C 
HETATM   21  N4  UNL     1     143.628  72.569  63.333  1.00  0.00    -0.301 N 
HETATM   22  N5  UNL     1     143.034  71.488  62.861  1.00  0.00    -0.266 N 
ATOM     23  H4  UNL     1     143.563  73.499  62.919  1.00  0.00     0.186 HD
HETATM   24  C9  UNL     1     143.352  70.463  63.668  1.00  0.00     0.273 A 
ATOM     25  H5  UNL     1     142.442  71.441  62.033  1.00  0.00     0.190 HD
HETATM   26  O2  UNL     1     142.992  69.253  63.576  1.00  0.00    -0.266 OA
ENDBRANCH  17  18
ENDBRANCH  15  17
ENDBRANCH  13  15
ENDBRANCH   7  13
BRANCH  10  27
HETATM   27  N7  UNL     1     142.352  64.804  62.873  1.00  0.00    -0.234 N 
ATOM     28  H72 UNL     1     142.327  64.158  62.083  1.00  0.00     0.174 HD
ATOM     29  H71 UNL     1     141.551  65.071  63.444  1.00  0.00     0.174 HD
ENDBRANCH  10  27
TORSDOF 5
ENDMDL
MODEL 5
REMARK VINA RESULT: -8.391946952      2.495      7.312
REMARK  5 active torsions:
REMARK  status: ('A' for Active; 'I' for Inactive)
REMARK    1  A    between atoms: C4_7  and  N2_8 
REMARK    2  A    between atoms: N2_8  and  N3_10 
REMARK    3  A    between atoms: N3_10  and  C5_12 
REMARK    4  A    between atoms: C5_12  and  C6_13 
REMARK    5  A    between atoms: C10_24  and  N7_25 
ROOT
HETATM    1  C1  UNL     1     144.836  65.745  61.836  1.00  0.00     0.089 C 
HETATM    2  C2  UNL     1     144.691  66.543  63.097  1.00  0.00     0.096 C 
HETATM    3  N1  UNL     1     145.316  66.054  64.203  1.00  0.00    -0.310 N 
ATOM      4  H1  UNL     1     145.683  65.103  64.141  1.00  0.00     0.170 HD
HETATM    5  C3  UNL     1     145.503  66.708  65.391  1.00  0.00     0.292 C 
HETATM    6  O1  UNL     1     145.795  66.007  66.389  1.00  0.00    -0.264 OA
HETATM    7  C4  UNL     1     145.410  68.059  65.638  1.00  0.00     0.204 C 
HETATM    8  N6  UNL     1     144.432  68.854  65.083  1.00  0.00    -0.170 N 
ATOM      9  H6  UNL     1     144.188  69.689  65.615  1.00  0.00     0.186 HD
HETATM   10  C10 UNL     1     143.746  68.673  63.920  1.00  0.00     0.678 C 
HETATM   11  N8  UNL     1     143.962  67.668  63.020  1.00  0.00    -0.181 N 
ATOM     12  H8  UNL     1     143.484  67.796  62.127  1.00  0.00     0.185 HD
ENDROOT
BRANCH   7  13
HETATM   13  N2  UNL     1     146.249  68.629  66.382  1.00  0.00    -0.281 N 
ATOM     14  H2  UNL     1     146.620  68.053  67.138  1.00  0.00     0.188 HD
BRANCH  13  15
HETATM   15  N3  UNL     1     146.731  69.889  66.331  1.00  0.00    -0.309 N 
ATOM     16  H3  UNL     1     147.693  69.966  66.000  1.00  0.00     0.186 HD
BRANCH  15  17
HETATM   17  C5  UNL     1     146.179  70.994  66.627  1.00  0.00     0.126 C 
BRANCH  17  18
HETATM   18  C6  UNL     1     146.555  72.180  65.865  1.00  0.00     0.074 A 
HETATM   19  C7  UNL     1     145.808  72.898  64.956  1.00  0.00     0.039 A 
HETATM   20  C8  UNL     1     144.398  72.609  64.548  1.00  0.00     0.071 C 
HETATM   21  N4  UNL     1     146.573  73.922  64.497  1.00  0.00    -0.301 N 
HETATM   22  N5  UNL     1     147.764  73.891  65.067  1.00  0.00    -0.266 N 
ATOM     23  H4  UNL     1     146.272  74.614  63.811  1.00  0.00     0.186 HD
HETATM   24  C9  UNL     1     147.788  72.843  65.905  1.00  0.00     0.273 A 
ATOM     25  H5  UNL     1     148.528  74.546  64.900  1.00  0.00     0.190 HD
HETATM   26  O2  UNL     1     148.738  72.453  66.646  1.00  0.00    -0.266 OA
ENDBRANCH  17  18
ENDBRANCH  15  17
ENDBRANCH  13  15
ENDBRANCH   7  13
BRANCH  10  27
HETATM   27  N7  UNL     1     142.821  69.518  63.642  1.00  0.00    -0.234 N 
ATOM     28  H72 UNL     1     143.110  70.402  63.223  1.00  0.00     0.174 HD
ATOM     29  H71 UNL     1     141.861  69.252  63.861  1.00  0.00     0.174 HD
ENDBRANCH  10  27
TORSDOF 5
ENDMDL
