MODEL 1
REMARK VINA RESULT: -1.546553631      0.000      0.000
REMARK  3 active torsions:
REMARK  status: ('A' for Active; 'I' for Inactive)
REMARK    1  A    between atoms: O1_2  and  C2_3 
REMARK    2  A    between atoms: C7_10  and  C8_11 
REMARK    3  A    between atoms: C9_12  and  C10_13 
ROOT
HETATM    1  C8  UNL     1      21.697   9.692  31.943  1.00  0.00    -0.042 C 
HETATM    2  C9  UNL     1      22.844  10.045  31.805  1.00  0.00    -0.041 C 
ENDROOT
BRANCH   1   3
HETATM    3  C7  UNL     1      20.331   9.287  32.127  1.00  0.00     0.088 A 
HETATM    4  N1  UNL     1      19.502   8.633  31.320  1.00  0.00    -0.348 N 
HETATM    5  C6  UNL     1      18.293   8.445  31.867  1.00  0.00     0.046 A 
ATOM      6  H1  UNL     1      19.758   8.310  30.387  1.00  0.00     0.167 HD
HETATM    7  C5  UNL     1      17.139   7.827  31.403  1.00  0.00     0.030 A 
HETATM    8  C20 UNL     1      18.340   9.017  33.120  1.00  0.00     0.027 A 
HETATM    9  C4  UNL     1      16.042   7.818  32.264  1.00  0.00     0.005 A 
HETATM   10  C3  UNL     1      16.076   8.382  33.507  1.00  0.00     0.038 A 
HETATM   11  C2  UNL     1      17.242   8.996  33.954  1.00  0.00     0.080 A 
HETATM   12  C19 UNL     1      19.601   9.545  33.294  1.00  0.00     0.055 A 
BRANCH  11  13
HETATM   13  O1  UNL     1      17.296   9.570  35.202  1.00  0.00    -0.355 OA
HETATM   14  C1  UNL     1      18.030   8.986  36.250  1.00  0.00     0.210 C 
ENDBRANCH  11  13
ENDBRANCH   1   3
BRANCH   2  15
HETATM   15  C10 UNL     1      24.204  10.481  31.659  1.00  0.00     0.098 A 
HETATM   16  N2  UNL     1      25.135   9.749  31.019  1.00  0.00    -0.358 N 
HETATM   17  C11 UNL     1      26.409  10.157  30.882  1.00  0.00     0.090 A 
ATOM     18  H2  UNL     1      24.863   8.850  30.621  1.00  0.00     0.166 HD
HETATM   19  C12 UNL     1      26.796  11.365  31.411  1.00  0.00     0.029 A 
HETATM   20  C13 UNL     1      25.878  12.135  32.069  1.00  0.00    -0.022 A 
HETATM   21  C14 UNL     1      26.243  13.353  32.609  1.00  0.00     0.012 A 
HETATM   22  C18 UNL     1      24.578  11.686  32.191  1.00  0.00     0.010 A 
HETATM   23  C15 UNL     1      25.321  14.124  33.268  1.00  0.00     0.001 A 
HETATM   24  C16 UNL     1      24.018  13.653  33.379  1.00  0.00     0.001 A 
HETATM   25  C17 UNL     1      23.636  12.452  32.853  1.00  0.00     0.015 A 
ENDBRANCH   2  15
TORSDOF 3
ENDMDL
MODEL 2
REMARK VINA RESULT: -1.529940935      2.209      2.535
REMARK  3 active torsions:
REMARK  status: ('A' for Active; 'I' for Inactive)
REMARK    1  A    between atoms: O1_2  and  C2_3 
REMARK    2  A    between atoms: C7_10  and  C8_11 
REMARK    3  A    between atoms: C9_12  and  C10_13 
ROOT
HETATM    1  C8  UNL     1      22.226   9.896  33.738  1.00  0.00    -0.042 C 
HETATM    2  C9  UNL     1      23.242  10.123  33.125  1.00  0.00    -0.041 C 
ENDROOT
BRANCH   1   3
HETATM    3  C7  UNL     1      21.012   9.651  34.467  1.00  0.00     0.088 A 
HETATM    4  N1  UNL     1      20.710   8.716  35.361  1.00  0.00    -0.348 N 
HETATM    5  C6  UNL     1      19.455   8.827  35.818  1.00  0.00     0.046 A 
ATOM      6  H1  UNL     1      21.361   7.993  35.667  1.00  0.00     0.167 HD
HETATM    7  C5  UNL     1      18.723   8.090  36.739  1.00  0.00     0.030 A 
HETATM    8  C20 UNL     1      18.902   9.913  35.174  1.00  0.00     0.027 A 
HETATM    9  C4  UNL     1      17.411   8.503  36.973  1.00  0.00     0.005 A 
HETATM   10  C3  UNL     1      16.852   9.577  36.342  1.00  0.00     0.038 A 
HETATM   11  C2  UNL     1      17.603  10.303  35.422  1.00  0.00     0.080 A 
HETATM   12  C19 UNL     1      19.860  10.434  34.330  1.00  0.00     0.055 A 
BRANCH  11  13
HETATM   13  O1  UNL     1      17.058  11.387  34.775  1.00  0.00    -0.355 OA
HETATM   14  C1  UNL     1      17.853  12.467  34.349  1.00  0.00     0.210 C 
ENDBRANCH  11  13
ENDBRANCH   1   3
BRANCH   2  15
HETATM   15  C10 UNL     1      24.442  10.416  32.394  1.00  0.00     0.098 A 
HETATM   16  N2  UNL     1      25.125   9.477  31.714  1.00  0.00    -0.358 N 
HETATM   17  C11 UNL     1      26.249   9.751  31.030  1.00  0.00     0.090 A 
ATOM     18  H2  UNL     1      24.775   8.518  31.717  1.00  0.00     0.166 HD
HETATM   19  C12 UNL     1      26.739  11.035  31.014  1.00  0.00     0.029 A 
HETATM   20  C13 UNL     1      26.073  12.017  31.695  1.00  0.00    -0.022 A 
HETATM   21  C14 UNL     1      26.545  13.314  31.693  1.00  0.00     0.012 A 
HETATM   22  C18 UNL     1      24.920  11.700  32.387  1.00  0.00     0.010 A 
HETATM   23  C15 UNL     1      25.876  14.297  32.377  1.00  0.00     0.001 A 
HETATM   24  C16 UNL     1      24.718  13.956  33.066  1.00  0.00     0.001 A 
HETATM   25  C17 UNL     1      24.234  12.679  33.080  1.00  0.00     0.015 A 
ENDBRANCH   2  15
TORSDOF 3
ENDMDL
MODEL 3
REMARK VINA RESULT: -0.510431292      2.704      8.460
REMARK  3 active torsions:
REMARK  status: ('A' for Active; 'I' for Inactive)
REMARK    1  A    between atoms: O1_2  and  C2_3 
REMARK    2  A    between atoms: C7_10  and  C8_11 
REMARK    3  A    between atoms: C9_12  and  C10_13 
ROOT
HETATM    1  C8  UNL     1      21.779  10.567  34.039  1.00  0.00    -0.042 C 
HETATM    2  C9  UNL     1      20.654  10.246  34.340  1.00  0.00    -0.041 C 
ENDROOT
BRANCH   1   3
HETATM    3  C7  UNL     1      23.113  10.941  33.658  1.00  0.00     0.088 A 
HETATM    4  N1  UNL     1      24.084  11.525  34.352  1.00  0.00    -0.348 N 
HETATM    5  C6  UNL     1      25.197  11.706  33.629  1.00  0.00     0.046 A 
ATOM      6  H1  UNL     1      23.991  11.804  35.329  1.00  0.00     0.167 HD
HETATM    7  C5  UNL     1      26.432  12.262  33.932  1.00  0.00     0.030 A 
HETATM    8  C20 UNL     1      24.931  11.203  32.373  1.00  0.00     0.027 A 
HETATM    9  C4  UNL     1      27.379  12.285  32.907  1.00  0.00     0.005 A 
HETATM   10  C3  UNL     1      27.127  11.791  31.660  1.00  0.00     0.038 A 
HETATM   11  C2  UNL     1      25.882  11.237  31.376  1.00  0.00     0.080 A 
HETATM   12  C19 UNL     1      23.638  10.725  32.378  1.00  0.00     0.055 A 
BRANCH  11  13
HETATM   13  O1  UNL     1      25.609  10.734  30.126  1.00  0.00    -0.355 OA
HETATM   14  C1  UNL     1      24.306  10.358  29.752  1.00  0.00     0.210 C 
ENDBRANCH  11  13
ENDBRANCH   1   3
BRANCH   2  15
HETATM   15  C10 UNL     1      19.313   9.858  34.674  1.00  0.00     0.098 A 
HETATM   16  N2  UNL     1      18.793  10.030  35.904  1.00  0.00    -0.358 N 
HETATM   17  C11 UNL     1      17.537   9.667  36.217  1.00  0.00     0.090 A 
ATOM     18  H2  UNL     1      19.376  10.453  36.627  1.00  0.00     0.166 HD
HETATM   19  C12 UNL     1      16.736   9.094  35.258  1.00  0.00     0.029 A 
HETATM   20  C13 UNL     1      17.230   8.903  33.997  1.00  0.00    -0.022 A 
HETATM   21  C14 UNL     1      16.444   8.331  33.017  1.00  0.00     0.012 A 
HETATM   22  C18 UNL     1      18.524   9.289  33.710  1.00  0.00     0.010 A 
HETATM   23  C15 UNL     1      16.941   8.140  31.753  1.00  0.00     0.001 A 
HETATM   24  C16 UNL     1      18.246   8.535  31.486  1.00  0.00     0.001 A 
HETATM   25  C17 UNL     1      19.040   9.103  32.441  1.00  0.00     0.015 A 
ENDBRANCH   2  15
TORSDOF 3
ENDMDL
MODEL 4
REMARK VINA RESULT: -0.009893841      2.681      8.454
REMARK  3 active torsions:
REMARK  status: ('A' for Active; 'I' for Inactive)
REMARK    1  A    between atoms: O1_2  and  C2_3 
REMARK    2  A    between atoms: C7_10  and  C8_11 
REMARK    3  A    between atoms: C9_12  and  C10_13 
ROOT
HETATM    1  C8  UNL     1      21.492  10.994  33.942  1.00  0.00    -0.042 C 
HETATM    2  C9  UNL     1      20.393  10.580  34.224  1.00  0.00    -0.041 C 
ENDROOT
BRANCH   1   3
HETATM    3  C7  UNL     1      22.804  11.466  33.594  1.00  0.00     0.088 A 
HETATM    4  N1  UNL     1      23.375  12.653  33.769  1.00  0.00    -0.348 N 
HETATM    5  C6  UNL     1      24.629  12.695  33.299  1.00  0.00     0.046 A 
ATOM      6  H1  UNL     1      22.909  13.446  34.212  1.00  0.00     0.167 HD
HETATM    7  C5  UNL     1      25.585  13.701  33.266  1.00  0.00     0.030 A 
HETATM    8  C20 UNL     1      24.893  11.445  32.782  1.00  0.00     0.027 A 
HETATM    9  C4  UNL     1      26.813  13.381  32.686  1.00  0.00     0.005 A 
HETATM   10  C3  UNL     1      27.086  12.147  32.171  1.00  0.00     0.038 A 
HETATM   11  C2  UNL     1      26.114  11.152  32.214  1.00  0.00     0.080 A 
HETATM   12  C19 UNL     1      23.766  10.671  32.958  1.00  0.00     0.055 A 
BRANCH  11  13
HETATM   13  O1  UNL     1      26.370   9.903  31.700  1.00  0.00    -0.355 OA
HETATM   14  C1  UNL     1      25.613   8.780  32.082  1.00  0.00     0.210 C 
ENDBRANCH  11  13
ENDBRANCH   1   3
BRANCH   2  15
HETATM   15  C10 UNL     1      19.090  10.068  34.544  1.00  0.00     0.098 A 
HETATM   16  N2  UNL     1      18.526  10.227  35.755  1.00  0.00    -0.358 N 
HETATM   17  C11 UNL     1      17.306   9.748  36.055  1.00  0.00     0.090 A 
ATOM     18  H2  UNL     1      19.045  10.731  36.475  1.00  0.00     0.166 HD
HETATM   19  C12 UNL     1      16.591   9.064  35.101  1.00  0.00     0.029 A 
HETATM   20  C13 UNL     1      17.133   8.883  33.858  1.00  0.00    -0.022 A 
HETATM   21  C14 UNL     1      16.433   8.200  32.883  1.00  0.00     0.012 A 
HETATM   22  C18 UNL     1      18.388   9.389  33.584  1.00  0.00     0.010 A 
HETATM   23  C15 UNL     1      16.977   8.019  31.637  1.00  0.00     0.001 A 
HETATM   24  C16 UNL     1      18.241   8.536  31.384  1.00  0.00     0.001 A 
HETATM   25  C17 UNL     1      18.950   9.214  32.334  1.00  0.00     0.015 A 
ENDBRANCH   2  15
TORSDOF 3
ENDMDL
MODEL 5
REMARK VINA RESULT: 0.246865909      1.286      2.339
REMARK  3 active torsions:
REMARK  status: ('A' for Active; 'I' for Inactive)
REMARK    1  A    between atoms: O1_2  and  C2_3 
REMARK    2  A    between atoms: C7_10  and  C8_11 
REMARK    3  A    between atoms: C9_12  and  C10_13 
ROOT
HETATM    1  C8  UNL     1      21.395  11.110  32.826  1.00  0.00    -0.042 C 
HETATM    2  C9  UNL     1      22.449  11.699  32.808  1.00  0.00    -0.041 C 
ENDROOT
BRANCH   1   3
HETATM    3  C7  UNL     1      20.152  10.389  32.845  1.00  0.00     0.088 A 
HETATM    4  N1  UNL     1      19.542   9.682  31.899  1.00  0.00    -0.348 N 
HETATM    5  C6  UNL     1      18.383   9.155  32.317  1.00  0.00     0.046 A 
ATOM      6  H1  UNL     1      19.916   9.556  30.958  1.00  0.00     0.167 HD
HETATM    7  C5  UNL     1      17.432   8.364  31.687  1.00  0.00     0.030 A 
HETATM    8  C20 UNL     1      18.230   9.546  33.630  1.00  0.00     0.027 A 
HETATM    9  C4  UNL     1      16.323   7.992  32.447  1.00  0.00     0.005 A 
HETATM   10  C3  UNL     1      16.159   8.372  33.748  1.00  0.00     0.038 A 
HETATM   11  C2  UNL     1      17.125   9.165  34.361  1.00  0.00     0.080 A 
HETATM   12  C19 UNL     1      19.322  10.314  33.971  1.00  0.00     0.055 A 
BRANCH  11  13
HETATM   13  O1  UNL     1      16.977   9.559  35.670  1.00  0.00    -0.355 OA
HETATM   14  C1  UNL     1      17.686   8.935  36.712  1.00  0.00     0.210 C 
ENDBRANCH  11  13
ENDBRANCH   1   3
BRANCH   2  15
HETATM   15  C10 UNL     1      23.714  12.377  32.787  1.00  0.00     0.098 A 
HETATM   16  N2  UNL     1      23.874  13.630  33.253  1.00  0.00    -0.358 N 
HETATM   17  C11 UNL     1      25.058  14.265  33.233  1.00  0.00     0.090 A 
ATOM     18  H2  UNL     1      23.063  14.117  33.636  1.00  0.00     0.166 HD
HETATM   19  C12 UNL     1      26.163  13.628  32.718  1.00  0.00     0.029 A 
HETATM   20  C13 UNL     1      26.039  12.355  32.235  1.00  0.00    -0.022 A 
HETATM   21  C14 UNL     1      27.134  11.694  31.714  1.00  0.00     0.012 A 
HETATM   22  C18 UNL     1      24.807  11.732  32.272  1.00  0.00     0.010 A 
HETATM   23  C15 UNL     1      27.008  10.417  31.229  1.00  0.00     0.001 A 
HETATM   24  C16 UNL     1      25.759   9.810  31.276  1.00  0.00     0.001 A 
HETATM   25  C17 UNL     1      24.664  10.445  31.787  1.00  0.00     0.015 A 
ENDBRANCH   2  15
TORSDOF 3
ENDMDL
