MODEL 1
REMARK VINA RESULT: -6.946969373      0.000      0.000
REMARK  14 active torsions:
REMARK  status: ('A' for Active; 'I' for Inactive)
REMARK    1  A    between atoms: C1_4  and  C2_6 
REMARK       I    between atoms: C2_6  and  N3_8 
REMARK    2  A    between atoms: N3_8  and  C3_10 
REMARK    3  A    between atoms: C3_10  and  C4_11 
REMARK    4  A    between atoms: C4_11  and  N4_12 
REMARK    5  A    between atoms: C4_11  and  C21_49 
REMARK    6  A    between atoms: N4_12  and  C5_13 
REMARK    7  A    between atoms: C7_18  and  N6_19 
REMARK    8  A    between atoms: N8_24  and  C8_25 
REMARK    9  A    between atoms: C8_25  and  C9_26 
REMARK   10  A    between atoms: N9_31  and  C13_32 
REMARK   11  A    between atoms: C13_32  and  C14_33 
REMARK   12  A    between atoms: C14_33  and  C15_35 
REMARK   13  A    between atoms: C15_35  and  O5_36 
REMARK   14  A    between atoms: C15_35  and  C16_38 
ROOT
HETATM    1  C5  UNL     1       4.264  -8.613   0.233  1.00  0.00     0.261 A 
HETATM    2  C6  UNL     1       4.336  -8.855  -1.161  1.00  0.00     0.319 A 
HETATM    3  O2  UNL     1       3.224  -9.080  -1.766  1.00  0.00    -0.262 OA
HETATM    4  N5  UNL     1       5.482  -8.855  -1.825  1.00  0.00    -0.151 N 
ATOM      5  H5  UNL     1       5.492  -9.035  -2.829  1.00  0.00     0.188 HD
HETATM    6  C7  UNL     1       6.632  -8.619  -1.173  1.00  0.00     0.693 A 
HETATM    7  N7  UNL     1       6.567  -8.393   0.144  1.00  0.00    -0.127 N 
ATOM      8  H7  UNL     1       7.443  -8.214   0.636  1.00  0.00     0.206 HD
HETATM    9  N8  UNL     1       5.450  -8.382   0.860  1.00  0.00    -0.242 N 
ENDROOT
BRANCH   9  10
HETATM   10  C8  UNL     1       5.530  -8.211   2.297  1.00  0.00     0.194 C 
BRANCH  10  11
HETATM   11  C9  UNL     1       5.878  -6.847   2.747  1.00  0.00     0.001 A 
HETATM   12  C10 UNL     1       7.182  -6.672   3.272  1.00  0.00     0.031 A 
HETATM   13  C11 UNL     1       7.626  -5.484   3.747  1.00  0.00     0.060 A 
HETATM   14  C12 UNL     1       8.909  -5.316   4.263  1.00  0.00     0.261 A 
HETATM   15  C18 UNL     1       6.811  -4.375   3.736  1.00  0.00     0.051 A 
HETATM   16  O3  UNL     1       9.650  -6.331   4.270  1.00  0.00    -0.267 OA
HETATM   17  N9  UNL     1       9.289  -4.119   4.716  1.00  0.00    -0.303 N 
HETATM   18  C17 UNL     1       8.473  -3.054   4.693  1.00  0.00     0.187 A 
HETATM   19  N10 UNL     1       7.238  -3.165   4.209  1.00  0.00    -0.351 N 
ATOM     20  H10 UNL     1       6.616  -2.357   4.192  1.00  0.00     0.166 HD
HETATM   21  C19 UNL     1       5.540  -4.504   3.234  1.00  0.00     0.073 A 
HETATM   22  C20 UNL     1       5.090  -5.745   2.743  1.00  0.00     0.126 A 
HETATM   23  F4  UNL     1       3.817  -5.763   2.237  1.00  0.00    -0.205 F 
BRANCH  17  24
HETATM   24  C13 UNL     1      10.647  -3.960   5.257  1.00  0.00     0.214 C 
BRANCH  24  25
HETATM   25  C14 UNL     1      11.478  -3.243   4.262  1.00  0.00     0.182 C 
HETATM   26  O4  UNL     1      11.661  -2.031   4.355  1.00  0.00    -0.293 OA
BRANCH  25  27
HETATM   27  C15 UNL     1      12.106  -3.961   3.139  1.00  0.00     0.296 C 
BRANCH  27  28
HETATM   28  O5  UNL     1      13.423  -3.477   2.971  1.00  0.00    -0.379 OA
ATOM     29  H5  UNL     1      13.845  -3.975   2.281  1.00  0.00     0.210 HD
ENDBRANCH  27  28
BRANCH  27  30
HETATM   30  C16 UNL     1      11.345  -3.841   1.846  1.00  0.00     0.420 C 
HETATM   31  F1  UNL     1      10.366  -2.864   1.926  1.00  0.00    -0.168 F 
HETATM   32  F2  UNL     1      10.840  -5.039   1.460  1.00  0.00    -0.168 F 
HETATM   33  F3  UNL     1      12.302  -3.479   0.884  1.00  0.00    -0.168 F 
ENDBRANCH  27  30
ENDBRANCH  25  27
ENDBRANCH  24  25
ENDBRANCH  17  24
ENDBRANCH  10  11
ENDBRANCH   9  10
BRANCH   1  34
HETATM   34  N4  UNL     1       3.193  -8.555   0.770  1.00  0.00    -0.406 NA
BRANCH  34  35
HETATM   35  C4  UNL     1       1.963  -8.625   1.316  1.00  0.00     0.283 C 
BRANCH  35  36
HETATM   36  C3  UNL     1       0.963  -7.599   0.806  1.00  0.00     0.173 C 
BRANCH  36  37
HETATM   37  N3  UNL     1      -0.349  -7.849   1.310  1.00  0.00    -0.351 N 
HETATM   38  C2  UNL     1      -1.365  -6.885   1.087  1.00  0.00     0.282 C 
HETATM   39  O1  UNL     1      -1.082  -5.815   0.440  1.00  0.00    -0.265 OA
ATOM     40  H3  UNL     1      -0.553  -8.708   1.821  1.00  0.00     0.162 HD
BRANCH  38  41
HETATM   41  C1  UNL     1      -2.736  -7.019   1.547  1.00  0.00     0.178 C 
HETATM   42  N1  UNL     1      -3.607  -6.160   1.200  1.00  0.00    -0.383 N 
ATOM     43  H12 UNL     1      -4.570  -6.255   1.524  1.00  0.00     0.157 HD
ATOM     44  H11 UNL     1      -3.329  -5.385   0.598  1.00  0.00     0.157 HD
HETATM   45  N2  UNL     1      -3.122  -8.093   2.381  1.00  0.00    -0.077 NA
ENDBRANCH  38  41
ENDBRANCH  36  37
ENDBRANCH  35  36
BRANCH  35  46
HETATM   46  C21 UNL     1       2.007  -8.539   2.828  1.00  0.00     0.212 C 
HETATM   47  O6  UNL     1       1.579  -7.630   3.533  1.00  0.00    -0.646 OA
HETATM   48  O7  UNL     1       2.605  -9.619   3.512  1.00  0.00    -0.646 OA
ENDBRANCH  35  46
ENDBRANCH  34  35
ENDBRANCH   1  34
BRANCH   6  49
HETATM   49  N6  UNL     1       7.748  -8.617  -1.818  1.00  0.00    -0.233 N 
ATOM     50  H62 UNL     1       7.825  -8.960  -2.775  1.00  0.00     0.174 HD
ATOM     51  H61 UNL     1       8.593  -8.263  -1.370  1.00  0.00     0.174 HD
ENDBRANCH   6  49
TORSDOF 14
ENDMDL
MODEL 2
REMARK VINA RESULT: -6.909587965      3.258      5.952
REMARK  14 active torsions:
REMARK  status: ('A' for Active; 'I' for Inactive)
REMARK    1  A    between atoms: C1_4  and  C2_6 
REMARK       I    between atoms: C2_6  and  N3_8 
REMARK    2  A    between atoms: N3_8  and  C3_10 
REMARK    3  A    between atoms: C3_10  and  C4_11 
REMARK    4  A    between atoms: C4_11  and  N4_12 
REMARK    5  A    between atoms: C4_11  and  C21_49 
REMARK    6  A    between atoms: N4_12  and  C5_13 
REMARK    7  A    between atoms: C7_18  and  N6_19 
REMARK    8  A    between atoms: N8_24  and  C8_25 
REMARK    9  A    between atoms: C8_25  and  C9_26 
REMARK   10  A    between atoms: N9_31  and  C13_32 
REMARK   11  A    between atoms: C13_32  and  C14_33 
REMARK   12  A    between atoms: C14_33  and  C15_35 
REMARK   13  A    between atoms: C15_35  and  O5_36 
REMARK   14  A    between atoms: C15_35  and  C16_38 
ROOT
HETATM    1  C5  UNL     1       4.244  -8.639   2.071  1.00  0.00     0.261 A 
HETATM    2  C6  UNL     1       3.961  -9.812   2.814  1.00  0.00     0.319 A 
HETATM    3  O2  UNL     1       4.201 -10.934   2.232  1.00  0.00    -0.262 OA
HETATM    4  N5  UNL     1       3.474  -9.775   4.044  1.00  0.00    -0.151 N 
ATOM      5  H5  UNL     1       3.283 -10.643   4.545  1.00  0.00     0.188 HD
HETATM    6  C7  UNL     1       3.231  -8.592   4.631  1.00  0.00     0.693 A 
HETATM    7  N7  UNL     1       3.495  -7.483   3.931  1.00  0.00    -0.127 N 
ATOM      8  H7  UNL     1       3.308  -6.586   4.381  1.00  0.00     0.206 HD
HETATM    9  N8  UNL     1       3.981  -7.459   2.697  1.00  0.00    -0.242 N 
ENDROOT
BRANCH   9  10
HETATM   10  C8  UNL     1       4.137  -6.187   2.021  1.00  0.00     0.194 C 
BRANCH  10  11
HETATM   11  C9  UNL     1       5.210  -5.322   2.554  1.00  0.00     0.001 A 
HETATM   12  C10 UNL     1       6.537  -5.702   2.237  1.00  0.00     0.031 A 
HETATM   13  C11 UNL     1       7.619  -5.018   2.681  1.00  0.00     0.060 A 
HETATM   14  C12 UNL     1       8.923  -5.395   2.368  1.00  0.00     0.261 A 
HETATM   15  C18 UNL     1       7.468  -3.903   3.473  1.00  0.00     0.051 A 
HETATM   16  O3  UNL     1       9.057  -6.414   1.644  1.00  0.00    -0.267 OA
HETATM   17  N9  UNL     1       9.949  -4.680   2.836  1.00  0.00    -0.303 N 
HETATM   18  C17 UNL     1       9.772  -3.596   3.606  1.00  0.00     0.187 A 
HETATM   19  N10 UNL     1       8.545  -3.197   3.932  1.00  0.00    -0.351 N 
ATOM     20  H10 UNL     1       8.409  -2.373   4.518  1.00  0.00     0.166 HD
HETATM   21  C19 UNL     1       6.197  -3.502   3.801  1.00  0.00     0.073 A 
HETATM   22  C20 UNL     1       5.080  -4.222   3.333  1.00  0.00     0.126 A 
HETATM   23  F4  UNL     1       3.855  -3.725   3.692  1.00  0.00    -0.205 F 
BRANCH  17  24
HETATM   24  C13 UNL     1      11.320  -5.093   2.495  1.00  0.00     0.214 C 
BRANCH  24  25
HETATM   25  C14 UNL     1      11.896  -5.830   3.643  1.00  0.00     0.182 C 
HETATM   26  O4  UNL     1      12.503  -5.233   4.530  1.00  0.00    -0.293 OA
BRANCH  25  27
HETATM   27  C15 UNL     1      11.758  -7.292   3.753  1.00  0.00     0.296 C 
BRANCH  27  28
HETATM   28  O5  UNL     1      11.514  -7.823   2.466  1.00  0.00    -0.379 OA
ATOM     29  H5  UNL     1      10.578  -7.943   2.357  1.00  0.00     0.210 HD
ENDBRANCH  27  28
BRANCH  27  30
HETATM   30  C16 UNL     1      10.672  -7.726   4.702  1.00  0.00     0.420 C 
HETATM   31  F1  UNL     1      10.019  -6.636   5.252  1.00  0.00    -0.168 F 
HETATM   32  F2  UNL     1      11.157  -8.564   5.652  1.00  0.00    -0.168 F 
HETATM   33  F3  UNL     1       9.776  -8.476   3.923  1.00  0.00    -0.168 F 
ENDBRANCH  27  30
ENDBRANCH  25  27
ENDBRANCH  24  25
ENDBRANCH  17  24
ENDBRANCH  10  11
ENDBRANCH   9  10
BRANCH   1  34
HETATM   34  N4  UNL     1       4.750  -8.731   0.987  1.00  0.00    -0.406 NA
BRANCH  34  35
HETATM   35  C4  UNL     1       5.402  -8.944  -0.173  1.00  0.00     0.283 C 
BRANCH  35  36
HETATM   36  C3  UNL     1       6.621  -8.066  -0.407  1.00  0.00     0.173 C 
BRANCH  36  37
HETATM   37  N3  UNL     1       7.796  -8.633   0.174  1.00  0.00    -0.351 N 
HETATM   38  C2  UNL     1       8.662  -9.404  -0.643  1.00  0.00     0.282 C 
HETATM   39  O1  UNL     1       8.371  -9.573  -1.879  1.00  0.00    -0.265 OA
ATOM     40  H3  UNL     1       8.009  -8.485   1.160  1.00  0.00     0.162 HD
BRANCH  38  41
HETATM   41  C1  UNL     1       9.884 -10.034  -0.173  1.00  0.00     0.178 C 
HETATM   42  N1  UNL     1      10.114 -10.117   1.075  1.00  0.00    -0.383 N 
ATOM     43  H12 UNL     1      10.972 -10.559   1.404  1.00  0.00     0.157 HD
ATOM     44  H11 UNL     1       9.431  -9.739   1.732  1.00  0.00     0.157 HD
HETATM   45  N2  UNL     1      10.830 -10.556  -1.084  1.00  0.00    -0.077 NA
ENDBRANCH  38  41
ENDBRANCH  36  37
ENDBRANCH  35  36
BRANCH  35  46
HETATM   46  C21 UNL     1       4.484  -8.817  -1.372  1.00  0.00     0.212 C 
HETATM   47  O6  UNL     1       3.257  -8.839  -1.373  1.00  0.00    -0.646 OA
HETATM   48  O7  UNL     1       5.099  -8.656  -2.632  1.00  0.00    -0.646 OA
ENDBRANCH  35  46
ENDBRANCH  34  35
ENDBRANCH   1  34
BRANCH   6  49
HETATM   49  N6  UNL     1       2.759  -8.555   5.830  1.00  0.00    -0.233 N 
ATOM     50  H62 UNL     1       1.763  -8.654   6.027  1.00  0.00     0.174 HD
ATOM     51  H61 UNL     1       3.389  -8.421   6.621  1.00  0.00     0.174 HD
ENDBRANCH   6  49
TORSDOF 14
ENDMDL
MODEL 3
REMARK VINA RESULT: -6.891162891      2.651      5.492
REMARK  14 active torsions:
REMARK  status: ('A' for Active; 'I' for Inactive)
REMARK    1  A    between atoms: C1_4  and  C2_6 
REMARK       I    between atoms: C2_6  and  N3_8 
REMARK    2  A    between atoms: N3_8  and  C3_10 
REMARK    3  A    between atoms: C3_10  and  C4_11 
REMARK    4  A    between atoms: C4_11  and  N4_12 
REMARK    5  A    between atoms: C4_11  and  C21_49 
REMARK    6  A    between atoms: N4_12  and  C5_13 
REMARK    7  A    between atoms: C7_18  and  N6_19 
REMARK    8  A    between atoms: N8_24  and  C8_25 
REMARK    9  A    between atoms: C8_25  and  C9_26 
REMARK   10  A    between atoms: N9_31  and  C13_32 
REMARK   11  A    between atoms: C13_32  and  C14_33 
REMARK   12  A    between atoms: C14_33  and  C15_35 
REMARK   13  A    between atoms: C15_35  and  O5_36 
REMARK   14  A    between atoms: C15_35  and  C16_38 
ROOT
HETATM    1  C5  UNL     1       5.127  -8.663  -0.077  1.00  0.00     0.261 A 
HETATM    2  C6  UNL     1       4.475  -8.691  -1.335  1.00  0.00     0.319 A 
HETATM    3  O2  UNL     1       5.227  -8.799  -2.373  1.00  0.00    -0.262 OA
HETATM    4  N5  UNL     1       3.159  -8.610  -1.457  1.00  0.00    -0.151 N 
ATOM      5  H5  UNL     1       2.728  -8.633  -2.381  1.00  0.00     0.188 HD
HETATM    6  C7  UNL     1       2.392  -8.496  -0.360  1.00  0.00     0.693 A 
HETATM    7  N7  UNL     1       3.006  -8.467   0.829  1.00  0.00    -0.127 N 
ATOM      8  H7  UNL     1       2.420  -8.380   1.660  1.00  0.00     0.206 HD
HETATM    9  N8  UNL     1       4.318  -8.543   1.011  1.00  0.00    -0.242 N 
ENDROOT
BRANCH   9  10
HETATM   10  C8  UNL     1       4.857  -8.410   2.349  1.00  0.00     0.194 C 
BRANCH  10  11
HETATM   11  C9  UNL     1       5.289  -7.045   2.718  1.00  0.00     0.001 A 
HETATM   12  C10 UNL     1       6.625  -6.909   3.168  1.00  0.00     0.031 A 
HETATM   13  C11 UNL     1       7.145  -5.724   3.565  1.00  0.00     0.060 A 
HETATM   14  C12 UNL     1       8.460  -5.594   4.008  1.00  0.00     0.261 A 
HETATM   15  C18 UNL     1       6.382  -4.579   3.544  1.00  0.00     0.051 A 
HETATM   16  O3  UNL     1       9.154  -6.642   4.025  1.00  0.00    -0.267 OA
HETATM   17  N9  UNL     1       8.917  -4.398   4.385  1.00  0.00    -0.303 N 
HETATM   18  C17 UNL     1       8.149  -3.298   4.354  1.00  0.00     0.187 A 
HETATM   19  N10 UNL     1       6.886  -3.372   3.939  1.00  0.00    -0.351 N 
ATOM     20  H10 UNL     1       6.302  -2.536   3.915  1.00  0.00     0.166 HD
HETATM   21  C19 UNL     1       5.082  -4.670   3.113  1.00  0.00     0.073 A 
HETATM   22  C20 UNL     1       4.552  -5.909   2.703  1.00  0.00     0.126 A 
HETATM   23  F4  UNL     1       3.255  -5.889   2.263  1.00  0.00    -0.205 F 
BRANCH  17  24
HETATM   24  C13 UNL     1      10.307  -4.280   4.850  1.00  0.00     0.214 C 
BRANCH  24  25
HETATM   25  C14 UNL     1      11.061  -3.437   3.892  1.00  0.00     0.182 C 
HETATM   26  O4  UNL     1      11.206  -2.234   4.096  1.00  0.00    -0.293 OA
BRANCH  25  27
HETATM   27  C15 UNL     1      11.656  -4.017   2.676  1.00  0.00     0.296 C 
BRANCH  27  28
HETATM   28  O5  UNL     1      12.852  -3.323   2.381  1.00  0.00    -0.379 OA
ATOM     29  H5  UNL     1      13.444  -3.914   1.930  1.00  0.00     0.210 HD
ENDBRANCH  27  28
BRANCH  27  30
HETATM   30  C16 UNL     1      10.738  -3.991   1.484  1.00  0.00     0.420 C 
HETATM   31  F1  UNL     1       9.893  -2.894   1.523  1.00  0.00    -0.168 F 
HETATM   32  F2  UNL     1      10.055  -5.157   1.364  1.00  0.00    -0.168 F 
HETATM   33  F3  UNL     1      11.583  -3.902   0.365  1.00  0.00    -0.168 F 
ENDBRANCH  27  30
ENDBRANCH  25  27
ENDBRANCH  24  25
ENDBRANCH  17  24
ENDBRANCH  10  11
ENDBRANCH   9  10
BRANCH   1  34
HETATM   34  N4  UNL     1       6.316  -8.811  -0.023  1.00  0.00    -0.406 NA
BRANCH  34  35
HETATM   35  C4  UNL     1       7.654  -8.949  -0.108  1.00  0.00     0.283 C 
BRANCH  35  36
HETATM   36  C3  UNL     1       8.172  -9.483  -1.434  1.00  0.00     0.173 C 
BRANCH  36  37
HETATM   37  N3  UNL     1       7.613 -10.760  -1.740  1.00  0.00    -0.351 N 
HETATM   38  C2  UNL     1       8.487 -11.856  -1.962  1.00  0.00     0.282 C 
HETATM   39  O1  UNL     1       9.752 -11.674  -1.882  1.00  0.00    -0.265 OA
ATOM     40  H3  UNL     1       6.603 -10.883  -1.798  1.00  0.00     0.162 HD
BRANCH  38  41
HETATM   41  C1  UNL     1       8.045 -13.203  -2.281  1.00  0.00     0.178 C 
HETATM   42  N1  UNL     1       8.203 -13.657  -3.459  1.00  0.00    -0.383 N 
ATOM     43  H12 UNL     1       7.892 -14.603  -3.682  1.00  0.00     0.157 HD
ATOM     44  H11 UNL     1       8.641 -13.066  -4.165  1.00  0.00     0.157 HD
HETATM   45  N2  UNL     1       7.438 -14.021  -1.303  1.00  0.00    -0.077 NA
ENDBRANCH  38  41
ENDBRANCH  36  37
ENDBRANCH  35  36
BRANCH  35  46
HETATM   46  C21 UNL     1       8.208  -9.815   1.005  1.00  0.00     0.212 C 
HETATM   47  O6  UNL     1       7.810 -10.924   1.352  1.00  0.00    -0.646 OA
HETATM   48  O7  UNL     1       9.302  -9.299   1.733  1.00  0.00    -0.646 OA
ENDBRANCH  35  46
ENDBRANCH  34  35
ENDBRANCH   1  34
BRANCH   6  49
HETATM   49  N6  UNL     1       1.111  -8.419  -0.476  1.00  0.00    -0.233 N 
ATOM     50  H62 UNL     1       0.548  -9.194  -0.828  1.00  0.00     0.174 HD
ATOM     51  H61 UNL     1       0.627  -7.561  -0.211  1.00  0.00     0.174 HD
ENDBRANCH   6  49
TORSDOF 14
ENDMDL
MODEL 4
REMARK VINA RESULT: -6.819412404      1.530      2.169
REMARK  14 active torsions:
REMARK  status: ('A' for Active; 'I' for Inactive)
REMARK    1  A    between atoms: C1_4  and  C2_6 
REMARK       I    between atoms: C2_6  and  N3_8 
REMARK    2  A    between atoms: N3_8  and  C3_10 
REMARK    3  A    between atoms: C3_10  and  C4_11 
REMARK    4  A    between atoms: C4_11  and  N4_12 
REMARK    5  A    between atoms: C4_11  and  C21_49 
REMARK    6  A    between atoms: N4_12  and  C5_13 
REMARK    7  A    between atoms: C7_18  and  N6_19 
REMARK    8  A    between atoms: N8_24  and  C8_25 
REMARK    9  A    between atoms: C8_25  and  C9_26 
REMARK   10  A    between atoms: N9_31  and  C13_32 
REMARK   11  A    between atoms: C13_32  and  C14_33 
REMARK   12  A    between atoms: C14_33  and  C15_35 
REMARK   13  A    between atoms: C15_35  and  O5_36 
REMARK   14  A    between atoms: C15_35  and  C16_38 
ROOT
HETATM    1  C5  UNL     1       3.944  -8.311  -0.130  1.00  0.00     0.261 A 
HETATM    2  C6  UNL     1       4.372  -8.895  -1.348  1.00  0.00     0.319 A 
HETATM    3  O2  UNL     1       3.452  -9.350  -2.123  1.00  0.00    -0.262 OA
HETATM    4  N5  UNL     1       5.649  -8.978  -1.689  1.00  0.00    -0.151 N 
ATOM      5  H5  UNL     1       5.915  -9.406  -2.575  1.00  0.00     0.188 HD
HETATM    6  C7  UNL     1       6.593  -8.496  -0.864  1.00  0.00     0.693 A 
HETATM    7  N7  UNL     1       6.192  -7.946   0.289  1.00  0.00    -0.127 N 
ATOM      8  H7  UNL     1       6.912  -7.582   0.913  1.00  0.00     0.206 HD
HETATM    9  N8  UNL     1       4.929  -7.838   0.682  1.00  0.00    -0.242 N 
ENDROOT
BRANCH   9  10
HETATM   10  C8  UNL     1       4.640  -7.300   1.996  1.00  0.00     0.194 C 
BRANCH  10  11
HETATM   11  C9  UNL     1       5.787  -7.273   2.928  1.00  0.00     0.001 A 
HETATM   12  C10 UNL     1       6.480  -6.043   3.036  1.00  0.00     0.031 A 
HETATM   13  C11 UNL     1       7.565  -5.882   3.829  1.00  0.00     0.060 A 
HETATM   14  C12 UNL     1       8.244  -4.670   3.932  1.00  0.00     0.261 A 
HETATM   15  C18 UNL     1       8.048  -6.929   4.580  1.00  0.00     0.051 A 
HETATM   16  O3  UNL     1       7.800  -3.715   3.245  1.00  0.00    -0.267 OA
HETATM   17  N9  UNL     1       9.309  -4.573   4.732  1.00  0.00    -0.303 N 
HETATM   18  C17 UNL     1       9.757  -5.612   5.453  1.00  0.00     0.187 A 
HETATM   19  N10 UNL     1       9.141  -6.790   5.388  1.00  0.00    -0.351 N 
ATOM     20  H10 UNL     1       9.482  -7.581   5.936  1.00  0.00     0.166 HD
HETATM   21  C19 UNL     1       7.403  -8.139   4.503  1.00  0.00     0.073 A 
HETATM   22  C20 UNL     1       6.275  -8.294   3.675  1.00  0.00     0.126 A 
HETATM   23  F4  UNL     1       5.685  -9.530   3.690  1.00  0.00    -0.205 F 
BRANCH  17  24
HETATM   24  C13 UNL     1      10.014  -3.285   4.829  1.00  0.00     0.214 C 
BRANCH  24  25
HETATM   25  C14 UNL     1      11.161  -3.297   3.891  1.00  0.00     0.182 C 
HETATM   26  O4  UNL     1      12.238  -3.787   4.226  1.00  0.00    -0.293 OA
BRANCH  25  27
HETATM   27  C15 UNL     1      11.043  -2.726   2.539  1.00  0.00     0.296 C 
BRANCH  27  28
HETATM   28  O5  UNL     1       9.910  -1.882   2.501  1.00  0.00    -0.379 OA
ATOM     29  H5  UNL     1       9.351  -2.087   3.241  1.00  0.00     0.210 HD
ENDBRANCH  27  28
BRANCH  27  30
HETATM   30  C16 UNL     1      10.949  -3.763   1.452  1.00  0.00     0.420 C 
HETATM   31  F1  UNL     1      10.781  -5.032   1.979  1.00  0.00    -0.168 F 
HETATM   32  F2  UNL     1      12.015  -3.694   0.615  1.00  0.00    -0.168 F 
HETATM   33  F3  UNL     1       9.820  -3.408   0.696  1.00  0.00    -0.168 F 
ENDBRANCH  27  30
ENDBRANCH  25  27
ENDBRANCH  24  25
ENDBRANCH  17  24
ENDBRANCH  10  11
ENDBRANCH   9  10
BRANCH   1  34
HETATM   34  N4  UNL     1       2.771  -8.200   0.095  1.00  0.00    -0.406 NA
BRANCH  34  35
HETATM   35  C4  UNL     1       1.433  -8.185   0.249  1.00  0.00     0.283 C 
BRANCH  35  36
HETATM   36  C3  UNL     1       0.930  -7.538   1.530  1.00  0.00     0.173 C 
BRANCH  36  37
HETATM   37  N3  UNL     1      -0.482  -7.687   1.675  1.00  0.00    -0.351 N 
HETATM   38  C2  UNL     1      -1.338  -6.732   1.069  1.00  0.00     0.282 C 
HETATM   39  O1  UNL     1      -0.826  -5.762   0.408  1.00  0.00    -0.265 OA
ATOM     40  H3  UNL     1      -0.869  -8.468   2.205  1.00  0.00     0.162 HD
BRANCH  38  41
HETATM   41  C1  UNL     1      -2.789  -6.771   1.143  1.00  0.00     0.178 C 
HETATM   42  N1  UNL     1      -3.389  -7.890   1.200  1.00  0.00    -0.383 N 
ATOM     43  H12 UNL     1      -4.408  -7.917   1.252  1.00  0.00     0.157 HD
ATOM     44  H11 UNL     1      -2.840  -8.750   1.194  1.00  0.00     0.157 HD
HETATM   45  N2  UNL     1      -3.549  -5.580   1.151  1.00  0.00    -0.077 NA
ENDBRANCH  38  41
ENDBRANCH  36  37
ENDBRANCH  35  36
BRANCH  35  46
HETATM   46  C21 UNL     1       0.834  -9.574   0.149  1.00  0.00     0.212 C 
HETATM   47  O6  UNL     1       0.329 -10.095  -0.842  1.00  0.00    -0.646 OA
HETATM   48  O7  UNL     1       0.854 -10.364   1.318  1.00  0.00    -0.646 OA
ENDBRANCH  35  46
ENDBRANCH  34  35
ENDBRANCH   1  34
BRANCH   6  49
HETATM   49  N6  UNL     1       7.836  -8.574  -1.195  1.00  0.00    -0.233 N 
ATOM     50  H62 UNL     1       8.232  -9.404  -1.636  1.00  0.00     0.174 HD
ATOM     51  H61 UNL     1       8.460  -7.787  -1.015  1.00  0.00     0.174 HD
ENDBRANCH   6  49
TORSDOF 14
ENDMDL
MODEL 5
REMARK VINA RESULT: -6.811141369      2.514      5.968
REMARK  14 active torsions:
REMARK  status: ('A' for Active; 'I' for Inactive)
REMARK    1  A    between atoms: C1_4  and  C2_6 
REMARK       I    between atoms: C2_6  and  N3_8 
REMARK    2  A    between atoms: N3_8  and  C3_10 
REMARK    3  A    between atoms: C3_10  and  C4_11 
REMARK    4  A    between atoms: C4_11  and  N4_12 
REMARK    5  A    between atoms: C4_11  and  C21_49 
REMARK    6  A    between atoms: N4_12  and  C5_13 
REMARK    7  A    between atoms: C7_18  and  N6_19 
REMARK    8  A    between atoms: N8_24  and  C8_25 
REMARK    9  A    between atoms: C8_25  and  C9_26 
REMARK   10  A    between atoms: N9_31  and  C13_32 
REMARK   11  A    between atoms: C13_32  and  C14_33 
REMARK   12  A    between atoms: C14_33  and  C15_35 
REMARK   13  A    between atoms: C15_35  and  O5_36 
REMARK   14  A    between atoms: C15_35  and  C16_38 
ROOT
HETATM    1  C5  UNL     1       4.009  -8.692   0.607  1.00  0.00     0.261 A 
HETATM    2  C6  UNL     1       3.051  -8.642  -0.436  1.00  0.00     0.319 A 
HETATM    3  O2  UNL     1       3.427  -9.079  -1.585  1.00  0.00    -0.262 OA
HETATM    4  N5  UNL     1       1.826  -8.171  -0.256  1.00  0.00    -0.151 N 
ATOM      5  H5  UNL     1       1.166  -8.151  -1.033  1.00  0.00     0.188 HD
HETATM    6  C7  UNL     1       1.456  -7.718   0.953  1.00  0.00     0.693 A 
HETATM    7  N7  UNL     1       2.359  -7.763   1.940  1.00  0.00    -0.127 N 
ATOM      8  H7  UNL     1       2.073  -7.418   2.856  1.00  0.00     0.206 HD
HETATM    9  N8  UNL     1       3.598  -8.222   1.817  1.00  0.00    -0.242 N 
ENDROOT
BRANCH   9  10
HETATM   10  C8  UNL     1       4.503  -8.130   2.945  1.00  0.00     0.194 C 
BRANCH  10  11
HETATM   11  C9  UNL     1       5.185  -6.827   3.097  1.00  0.00     0.001 A 
HETATM   12  C10 UNL     1       6.480  -6.728   2.534  1.00  0.00     0.031 A 
HETATM   13  C11 UNL     1       7.231  -5.604   2.622  1.00  0.00     0.060 A 
HETATM   14  C12 UNL     1       8.506  -5.511   2.067  1.00  0.00     0.261 A 
HETATM   15  C18 UNL     1       6.755  -4.490   3.274  1.00  0.00     0.051 A 
HETATM   16  O3  UNL     1       8.937  -6.530   1.471  1.00  0.00    -0.267 OA
HETATM   17  N9  UNL     1       9.198  -4.375   2.186  1.00  0.00    -0.303 N 
HETATM   18  C17 UNL     1       8.708  -3.304   2.829  1.00  0.00     0.187 A 
HETATM   19  N10 UNL     1       7.494  -3.345   3.375  1.00  0.00    -0.351 N 
ATOM     20  H10 UNL     1       7.121  -2.532   3.864  1.00  0.00     0.166 HD
HETATM   21  C19 UNL     1       5.502  -4.548   3.833  1.00  0.00     0.073 A 
HETATM   22  C20 UNL     1       4.731  -5.722   3.735  1.00  0.00     0.126 A 
HETATM   23  F4  UNL     1       3.484  -5.668   4.300  1.00  0.00    -0.205 F 
BRANCH  17  24
HETATM   24  C13 UNL     1      10.542  -4.293   1.594  1.00  0.00     0.214 C 
BRANCH  24  25
HETATM   25  C14 UNL     1      11.548  -4.507   2.660  1.00  0.00     0.182 C 
HETATM   26  O4  UNL     1      11.725  -5.626   3.139  1.00  0.00    -0.293 OA
BRANCH  25  27
HETATM   27  C15 UNL     1      12.360  -3.391   3.172  1.00  0.00     0.296 C 
BRANCH  27  28
HETATM   28  O5  UNL     1      13.702  -3.821   3.288  1.00  0.00    -0.379 OA
ATOM     29  H5  UNL     1      14.262  -3.057   3.364  1.00  0.00     0.210 HD
ENDBRANCH  27  28
BRANCH  27  30
HETATM   30  C16 UNL     1      11.879  -2.850   4.492  1.00  0.00     0.420 C 
HETATM   31  F1  UNL     1      11.045  -3.751   5.132  1.00  0.00    -0.168 F 
HETATM   32  F2  UNL     1      11.296  -1.634   4.341  1.00  0.00    -0.168 F 
HETATM   33  F3  UNL     1      13.039  -2.648   5.257  1.00  0.00    -0.168 F 
ENDBRANCH  27  30
ENDBRANCH  25  27
ENDBRANCH  24  25
ENDBRANCH  17  24
ENDBRANCH  10  11
ENDBRANCH   9  10
BRANCH   1  34
HETATM   34  N4  UNL     1       5.079  -9.194   0.405  1.00  0.00    -0.406 NA
BRANCH  34  35
HETATM   35  C4  UNL     1       6.213  -9.844   0.077  1.00  0.00     0.283 C 
BRANCH  35  36
HETATM   36  C3  UNL     1       7.176 -10.098   1.227  1.00  0.00     0.173 C 
BRANCH  36  37
HETATM   37  N3  UNL     1       8.390  -9.365   1.066  1.00  0.00    -0.351 N 
HETATM   38  C2  UNL     1       9.626 -10.046   1.214  1.00  0.00     0.282 C 
HETATM   39  O1  UNL     1       9.623 -11.298   1.486  1.00  0.00    -0.265 OA
ATOM     40  H3  UNL     1       8.370  -8.369   0.849  1.00  0.00     0.162 HD
BRANCH  38  41
HETATM   41  C1  UNL     1      10.928  -9.416   1.077  1.00  0.00     0.178 C 
HETATM   42  N1  UNL     1      11.221  -8.406   1.793  1.00  0.00    -0.383 N 
ATOM     43  H12 UNL     1      12.135  -7.964   1.696  1.00  0.00     0.157 HD
ATOM     44  H11 UNL     1      10.533  -8.052   2.457  1.00  0.00     0.157 HD
HETATM   45  N2  UNL     1      11.881  -9.906   0.156  1.00  0.00    -0.077 NA
ENDBRANCH  38  41
ENDBRANCH  36  37
ENDBRANCH  35  36
BRANCH  35  46
HETATM   46  C21 UNL     1       6.970  -9.142  -1.033  1.00  0.00     0.212 C 
HETATM   47  O6  UNL     1       7.092  -7.932  -1.199  1.00  0.00    -0.646 OA
HETATM   48  O7  UNL     1       7.608  -9.962  -1.988  1.00  0.00    -0.646 OA
ENDBRANCH  35  46
ENDBRANCH  34  35
ENDBRANCH   1  34
BRANCH   6  49
HETATM   49  N6  UNL     1       0.264  -7.262   1.131  1.00  0.00    -0.233 N 
ATOM     50  H62 UNL     1      -0.566  -7.844   1.014  1.00  0.00     0.174 HD
ATOM     51  H61 UNL     1       0.127  -6.287   1.398  1.00  0.00     0.174 HD
ENDBRANCH   6  49
TORSDOF 14
ENDMDL
