MODEL 1
REMARK VINA RESULT: -7.273147652      0.000      0.000
REMARK  4 active torsions:
REMARK  status: ('A' for Active; 'I' for Inactive)
REMARK    1  A    between atoms: N1_2  and  C3_4 
REMARK    2  A    between atoms: C5_11  and  N5_12 
REMARK    3  A    between atoms: C6_15  and  C7_16 
REMARK    4  A    between atoms: N8_19  and  N9_20 
REMARK       I    between atoms: N9_20  and  C8_22 
ROOT
HETATM    1  N5  UNL     1      40.980  38.947  34.733  1.00  0.00    -0.027 N 
HETATM    2  N6  UNL     1      41.917  39.507  34.013  1.00  0.00    -0.254 N 
ATOM      3  H6  UNL     1      41.858  39.659  33.006  1.00  0.00     0.190 HD
HETATM    4  C6  UNL     1      42.995  39.865  34.792  1.00  0.00     0.213 A 
HETATM    5  N8  UNL     1      42.660  39.489  36.029  1.00  0.00    -0.178 N 
HETATM    6  C9  UNL     1      41.434  38.930  35.991  1.00  0.00     0.383 A 
HETATM    7  O2  UNL     1      40.776  38.457  36.950  1.00  0.00    -0.242 OA
ENDROOT
BRANCH   1   8
HETATM    8  C5  UNL     1      39.706  38.432  34.273  1.00  0.00     0.725 A 
HETATM    9  N4  UNL     1      39.419  37.138  34.489  1.00  0.00    -0.160 N 
HETATM   10  C4  UNL     1      38.241  36.589  34.095  1.00  0.00     0.221 A 
ATOM     11  H4  UNL     1      40.105  36.552  34.964  1.00  0.00     0.187 HD
HETATM   12  N2  UNL     1      37.367  37.417  33.469  1.00  0.00    -0.162 N 
HETATM   13  N3  UNL     1      37.963  35.226  34.332  1.00  0.00    -0.062 NA
HETATM   14  C3  UNL     1      37.654  38.722  33.249  1.00  0.00     0.696 A 
ATOM     15  H2  UNL     1      36.469  37.046  33.157  1.00  0.00     0.187 HD
HETATM   16  N12 UNL     1      38.825  39.213  33.656  1.00  0.00    -0.020 N 
ATOM     17  H12 UNL     1      39.047  40.195  33.492  1.00  0.00     0.203 HD
BRANCH  14  18
HETATM   18  N1  UNL     1      36.661  39.499  32.599  1.00  0.00    -0.226 N 
HETATM   19  C1  UNL     1      36.529  40.880  33.013  1.00  0.00     0.168 C 
HETATM   20  C2  UNL     1      35.833  38.914  31.583  1.00  0.00     0.168 C 
ENDBRANCH  14  18
ENDBRANCH   1   8
BRANCH   4  21
HETATM   21  C7  UNL     1      44.186  40.509  34.255  1.00  0.00     0.302 C 
HETATM   22  N7  UNL     1      45.410  40.446  34.962  1.00  0.00    -0.054 NA
HETATM   23  O1  UNL     1      44.142  41.116  33.179  1.00  0.00    -0.268 OA
ENDBRANCH   4  21
BRANCH   5  24
HETATM   24  N9  UNL     1      43.468  39.655  37.163  1.00  0.00    -0.261 N 
HETATM   25  C8  UNL     1      43.429  40.829  37.956  1.00  0.00     0.201 C 
HETATM   26  N10 UNL     1      44.385  41.674  37.877  1.00  0.00    -0.372 N 
HETATM   27  N11 UNL     1      42.349  41.065  38.827  1.00  0.00    -0.062 NA
ATOM     28 2H10 UNL     1      45.168  41.504  37.246  1.00  0.00     0.158 HD
ATOM     29 1H10 UNL     1      44.357  42.519  38.449  1.00  0.00     0.158 HD
ATOM     30  H9  UNL     1      44.107  38.905  37.426  1.00  0.00     0.190 HD
ENDBRANCH   5  24
TORSDOF 4
ENDMDL
MODEL 2
REMARK VINA RESULT: -7.117560121      2.552      6.569
REMARK  4 active torsions:
REMARK  status: ('A' for Active; 'I' for Inactive)
REMARK    1  A    between atoms: N1_2  and  C3_4 
REMARK    2  A    between atoms: C5_11  and  N5_12 
REMARK    3  A    between atoms: C6_15  and  C7_16 
REMARK    4  A    between atoms: N8_19  and  N9_20 
REMARK       I    between atoms: N9_20  and  C8_22 
ROOT
HETATM    1  N5  UNL     1      40.820  38.437  36.191  1.00  0.00    -0.027 N 
HETATM    2  N6  UNL     1      41.045  37.326  36.844  1.00  0.00    -0.254 N 
ATOM      3  H6  UNL     1      41.916  37.108  37.328  1.00  0.00     0.190 HD
HETATM    4  C6  UNL     1      39.952  36.490  36.794  1.00  0.00     0.213 A 
HETATM    5  N8  UNL     1      39.047  37.156  36.071  1.00  0.00    -0.178 N 
HETATM    6  C9  UNL     1      39.579  38.340  35.704  1.00  0.00     0.383 A 
HETATM    7  O2  UNL     1      39.039  39.244  35.020  1.00  0.00    -0.242 OA
ENDROOT
BRANCH   1   8
HETATM    8  C5  UNL     1      41.729  39.552  36.012  1.00  0.00     0.725 A 
HETATM    9  N4  UNL     1      42.886  39.554  36.693  1.00  0.00    -0.160 N 
HETATM   10  C4  UNL     1      43.789  40.560  36.568  1.00  0.00     0.221 A 
ATOM     11  H4  UNL     1      43.092  38.778  37.321  1.00  0.00     0.187 HD
HETATM   12  N2  UNL     1      43.463  41.565  35.717  1.00  0.00    -0.162 N 
HETATM   13  N3  UNL     1      44.998  40.541  37.297  1.00  0.00    -0.062 NA
HETATM   14  C3  UNL     1      42.296  41.566  35.029  1.00  0.00     0.696 A 
ATOM     15  H2  UNL     1      44.114  42.341  35.592  1.00  0.00     0.187 HD
HETATM   16  N12 UNL     1      41.442  40.554  35.188  1.00  0.00    -0.020 N 
ATOM     17  H12 UNL     1      40.562  40.549  34.672  1.00  0.00     0.203 HD
BRANCH  14  18
HETATM   18  N1  UNL     1      42.064  42.660  34.157  1.00  0.00    -0.226 N 
HETATM   19  C1  UNL     1      42.784  42.666  32.902  1.00  0.00     0.168 C 
HETATM   20  C2  UNL     1      41.153  43.704  34.531  1.00  0.00     0.168 C 
ENDBRANCH  14  18
ENDBRANCH   1   8
BRANCH   4  21
HETATM   21  C7  UNL     1      39.919  35.183  37.435  1.00  0.00     0.302 C 
HETATM   22  N7  UNL     1      40.958  34.251  37.206  1.00  0.00    -0.054 NA
HETATM   23  O1  UNL     1      38.986  34.874  38.185  1.00  0.00    -0.268 OA
ENDBRANCH   4  21
BRANCH   5  24
HETATM   24  N9  UNL     1      37.767  36.681  35.755  1.00  0.00    -0.261 N 
HETATM   25  C8  UNL     1      37.477  36.044  34.522  1.00  0.00     0.201 C 
HETATM   26  N10 UNL     1      36.821  36.676  33.626  1.00  0.00    -0.372 N 
HETATM   27  N11 UNL     1      37.906  34.725  34.284  1.00  0.00    -0.062 NA
ATOM     28 2H10 UNL     1      36.511  37.633  33.798  1.00  0.00     0.158 HD
ATOM     29 1H10 UNL     1      36.612  36.218  32.739  1.00  0.00     0.158 HD
ATOM     30  H9  UNL     1      37.017  36.797  36.436  1.00  0.00     0.190 HD
ENDBRANCH   5  24
TORSDOF 4
ENDMDL
MODEL 3
REMARK VINA RESULT: -6.982488025      2.428      6.889
REMARK  4 active torsions:
REMARK  status: ('A' for Active; 'I' for Inactive)
REMARK    1  A    between atoms: N1_2  and  C3_4 
REMARK    2  A    between atoms: C5_11  and  N5_12 
REMARK    3  A    between atoms: C6_15  and  C7_16 
REMARK    4  A    between atoms: N8_19  and  N9_20 
REMARK       I    between atoms: N9_20  and  C8_22 
ROOT
HETATM    1  N5  UNL     1      40.257  38.286  35.470  1.00  0.00    -0.027 N 
HETATM    2  N6  UNL     1      39.242  38.158  34.655  1.00  0.00    -0.254 N 
ATOM      3  H6  UNL     1      38.903  38.895  34.036  1.00  0.00     0.190 HD
HETATM    4  C6  UNL     1      38.690  36.899  34.742  1.00  0.00     0.213 A 
HETATM    5  N8  UNL     1      39.429  36.267  35.658  1.00  0.00    -0.178 N 
HETATM    6  C9  UNL     1      40.381  37.114  36.100  1.00  0.00     0.383 A 
HETATM    7  O2  UNL     1      41.268  36.889  36.960  1.00  0.00    -0.242 OA
ENDROOT
BRANCH   1   8
HETATM    8  C5  UNL     1      41.083  39.460  35.668  1.00  0.00     0.725 A 
HETATM    9  N4  UNL     1      41.167  40.363  34.678  1.00  0.00    -0.160 N 
HETATM   10  C4  UNL     1      41.914  41.490  34.796  1.00  0.00     0.221 A 
ATOM     11  H4  UNL     1      40.655  40.197  33.811  1.00  0.00     0.187 HD
HETATM   12  N2  UNL     1      42.573  41.659  35.970  1.00  0.00    -0.162 N 
HETATM   13  N3  UNL     1      41.988  42.424  33.740  1.00  0.00    -0.062 NA
HETATM   14  C3  UNL     1      42.491  40.751  36.971  1.00  0.00     0.696 A 
ATOM     15  H2  UNL     1      43.145  42.494  36.103  1.00  0.00     0.187 HD
HETATM   16  N12 UNL     1      41.743  39.659  36.804  1.00  0.00    -0.020 N 
ATOM     17  H12 UNL     1      41.678  38.971  37.555  1.00  0.00     0.203 HD
BRANCH  14  18
HETATM   18  N1  UNL     1      43.209  41.036  38.160  1.00  0.00    -0.226 N 
HETATM   19  C1  UNL     1      42.458  41.044  39.398  1.00  0.00     0.168 C 
HETATM   20  C2  UNL     1      44.618  41.306  38.109  1.00  0.00     0.168 C 
ENDBRANCH  14  18
ENDBRANCH   1   8
BRANCH   4  21
HETATM   21  C7  UNL     1      37.545  36.475  33.948  1.00  0.00     0.302 C 
HETATM   22  N7  UNL     1      36.985  37.345  32.984  1.00  0.00    -0.054 NA
HETATM   23  O1  UNL     1      37.052  35.353  34.107  1.00  0.00    -0.268 OA
ENDBRANCH   4  21
BRANCH   5  24
HETATM   24  N9  UNL     1      39.225  34.945  36.077  1.00  0.00    -0.261 N 
HETATM   25  C8  UNL     1      39.946  33.856  35.526  1.00  0.00     0.201 C 
HETATM   26  N10 UNL     1      39.362  33.064  34.710  1.00  0.00    -0.372 N 
HETATM   27  N11 UNL     1      41.293  33.643  35.875  1.00  0.00    -0.062 NA
ATOM     28 2H10 UNL     1      38.386  33.219  34.456  1.00  0.00     0.158 HD
ATOM     29 1H10 UNL     1      39.880  32.280  34.313  1.00  0.00     0.158 HD
ATOM     30  H9  UNL     1      38.534  34.760  36.805  1.00  0.00     0.190 HD
ENDBRANCH   5  24
TORSDOF 4
ENDMDL
MODEL 4
REMARK VINA RESULT: -6.960874525      2.639      6.265
REMARK  4 active torsions:
REMARK  status: ('A' for Active; 'I' for Inactive)
REMARK    1  A    between atoms: N1_2  and  C3_4 
REMARK    2  A    between atoms: C5_11  and  N5_12 
REMARK    3  A    between atoms: C6_15  and  C7_16 
REMARK    4  A    between atoms: N8_19  and  N9_20 
REMARK       I    between atoms: N9_20  and  C8_22 
ROOT
HETATM    1  N5  UNL     1      40.122  38.451  35.115  1.00  0.00    -0.027 N 
HETATM    2  N6  UNL     1      39.139  38.190  34.292  1.00  0.00    -0.254 N 
ATOM      3  H6  UNL     1      38.800  38.834  33.577  1.00  0.00     0.190 HD
HETATM    4  C6  UNL     1      38.621  36.934  34.517  1.00  0.00     0.213 A 
HETATM    5  N8  UNL     1      39.347  36.443  35.526  1.00  0.00    -0.178 N 
HETATM    6  C9  UNL     1      40.259  37.368  35.888  1.00  0.00     0.383 A 
HETATM    7  O2  UNL     1      41.121  37.279  36.796  1.00  0.00    -0.242 OA
ENDROOT
BRANCH   1   8
HETATM    8  C5  UNL     1      40.906  39.666  35.193  1.00  0.00     0.725 A 
HETATM    9  N4  UNL     1      42.197  39.577  35.550  1.00  0.00    -0.160 N 
HETATM   10  C4  UNL     1      42.996  40.671  35.635  1.00  0.00     0.221 A 
ATOM     11  H4  UNL     1      42.590  38.659  35.763  1.00  0.00     0.187 HD
HETATM   12  N2  UNL     1      42.421  41.864  35.339  1.00  0.00    -0.162 N 
HETATM   13  N3  UNL     1      44.350  40.552  36.014  1.00  0.00    -0.062 NA
HETATM   14  C3  UNL     1      41.119  41.958  34.979  1.00  0.00     0.696 A 
ATOM     15  H2  UNL     1      42.985  42.713  35.389  1.00  0.00     0.187 HD
HETATM   16  N12 UNL     1      40.376  40.852  34.911  1.00  0.00    -0.020 N 
ATOM     17  H12 UNL     1      39.395  40.917  34.641  1.00  0.00     0.203 HD
BRANCH  14  18
HETATM   18  N1  UNL     1      40.625  43.254  34.678  1.00  0.00    -0.226 N 
HETATM   19  C1  UNL     1      39.194  43.450  34.766  1.00  0.00     0.168 C 
HETATM   20  C2  UNL     1      41.528  44.303  34.300  1.00  0.00     0.168 C 
ENDBRANCH  14  18
ENDBRANCH   1   8
BRANCH   4  21
HETATM   21  C7  UNL     1      37.517  36.378  33.747  1.00  0.00     0.302 C 
HETATM   22  N7  UNL     1      37.045  37.046  32.593  1.00  0.00    -0.054 NA
HETATM   23  O1  UNL     1      36.981  35.319  34.092  1.00  0.00    -0.268 OA
ENDBRANCH   4  21
BRANCH   5  24
HETATM   24  N9  UNL     1      39.168  35.176  36.098  1.00  0.00    -0.261 N 
HETATM   25  C8  UNL     1      39.901  34.041  35.670  1.00  0.00     0.201 C 
HETATM   26  N10 UNL     1      39.324  33.151  34.957  1.00  0.00    -0.372 N 
HETATM   27  N11 UNL     1      41.254  33.890  36.028  1.00  0.00    -0.062 NA
ATOM     28 2H10 UNL     1      38.344  33.260  34.697  1.00  0.00     0.158 HD
ATOM     29 1H10 UNL     1      39.852  32.334  34.650  1.00  0.00     0.158 HD
ATOM     30  H9  UNL     1      38.486  35.067  36.848  1.00  0.00     0.190 HD
ENDBRANCH   5  24
TORSDOF 4
ENDMDL
MODEL 5
REMARK VINA RESULT: -6.883776710      2.665      7.166
REMARK  4 active torsions:
REMARK  status: ('A' for Active; 'I' for Inactive)
REMARK    1  A    between atoms: N1_2  and  C3_4 
REMARK    2  A    between atoms: C5_11  and  N5_12 
REMARK    3  A    between atoms: C6_15  and  C7_16 
REMARK    4  A    between atoms: N8_19  and  N9_20 
REMARK       I    between atoms: N9_20  and  C8_22 
ROOT
HETATM    1  N5  UNL     1      40.749  38.318  36.472  1.00  0.00    -0.027 N 
HETATM    2  N6  UNL     1      41.123  37.099  36.765  1.00  0.00    -0.254 N 
ATOM      3  H6  UNL     1      42.059  36.844  37.079  1.00  0.00     0.190 HD
HETATM    4  C6  UNL     1      40.089  36.207  36.593  1.00  0.00     0.213 A 
HETATM    5  N8  UNL     1      39.061  36.953  36.178  1.00  0.00    -0.178 N 
HETATM    6  C9  UNL     1      39.466  38.237  36.105  1.00  0.00     0.383 A 
HETATM    7  O2  UNL     1      38.788  39.236  35.756  1.00  0.00    -0.242 OA
ENDROOT
BRANCH   1   8
HETATM    8  C5  UNL     1      41.554  39.522  36.521  1.00  0.00     0.725 A 
HETATM    9  N4  UNL     1      41.570  40.329  35.448  1.00  0.00    -0.160 N 
HETATM   10  C4  UNL     1      42.293  41.478  35.424  1.00  0.00     0.221 A 
ATOM     11  H4  UNL     1      41.022  40.072  34.626  1.00  0.00     0.187 HD
HETATM   12  N2  UNL     1      43.000  41.770  36.545  1.00  0.00    -0.162 N 
HETATM   13  N3  UNL     1      42.295  42.309  34.284  1.00  0.00    -0.062 NA
HETATM   14  C3  UNL     1      42.987  40.958  37.629  1.00  0.00     0.696 A 
ATOM     15  H2  UNL     1      43.557  42.624  36.572  1.00  0.00     0.187 HD
HETATM   16  N12 UNL     1      42.260  39.840  37.600  1.00  0.00    -0.020 N 
ATOM     17  H12 UNL     1      42.247  39.224  38.414  1.00  0.00     0.203 HD
BRANCH  14  18
HETATM   18  N1  UNL     1      43.752  41.368  38.750  1.00  0.00    -0.226 N 
HETATM   19  C1  UNL     1      45.193  41.353  38.606  1.00  0.00     0.168 C 
HETATM   20  C2  UNL     1      43.101  41.768  39.965  1.00  0.00     0.168 C 
ENDBRANCH  14  18
ENDBRANCH   1   8
BRANCH   4  21
HETATM   21  C7  UNL     1      40.220  34.778  36.844  1.00  0.00     0.302 C 
HETATM   22  N7  UNL     1      41.245  34.035  36.215  1.00  0.00    -0.054 NA
HETATM   23  O1  UNL     1      39.439  34.201  37.609  1.00  0.00    -0.268 OA
ENDBRANCH   4  21
BRANCH   5  24
HETATM   24  N9  UNL     1      37.786  36.459  35.871  1.00  0.00    -0.261 N 
HETATM   25  C8  UNL     1      37.461  35.938  34.594  1.00  0.00     0.201 C 
HETATM   26  N10 UNL     1      36.739  36.629  33.797  1.00  0.00    -0.372 N 
HETATM   27  N11 UNL     1      37.925  34.668  34.204  1.00  0.00    -0.062 NA
ATOM     28 2H10 UNL     1      36.403  37.550  34.079  1.00  0.00     0.158 HD
ATOM     29 1H10 UNL     1      36.505  36.254  32.878  1.00  0.00     0.158 HD
ATOM     30  H9  UNL     1      37.065  36.476  36.593  1.00  0.00     0.190 HD
ENDBRANCH   5  24
TORSDOF 4
ENDMDL
