MODEL 1
REMARK VINA RESULT: -7.121130786      0.000      0.000
REMARK  8 active torsions:
REMARK  status: ('A' for Active; 'I' for Inactive)
REMARK    1  A    between atoms: C2_2  and  O1_3 
REMARK    2  A    between atoms: C2_2  and  C3_5 
REMARK    3  A    between atoms: C3_5  and  O2_6 
REMARK    4  A    between atoms: O2_6  and  N1_7 
REMARK    5  A    between atoms: N1_7  and  C4_9 
REMARK    6  A    between atoms: C10_23  and  N6_24 
REMARK    7  A    between atoms: N6_24  and  N7_26 
REMARK    8  A    between atoms: N7_26  and  N8_27 
ROOT
HETATM    1  C4  UNL     1      39.335  38.410  36.293  1.00  0.00     0.127 C 
HETATM    2  S1  UNL     1      39.605  39.098  34.558  1.00  0.00    -0.062 SA
HETATM    3  C5  UNL     1      41.391  39.362  34.732  1.00  0.00     0.079 C 
HETATM    4  C6  UNL     1      42.310  39.194  33.653  1.00  0.00     0.138 C 
HETATM    5  N2  UNL     1      42.030  38.655  32.379  1.00  0.00    -0.081 NA
HETATM    6  N3  UNL     1      43.516  39.610  33.860  1.00  0.00    -0.318 N 
ATOM      7  H3  UNL     1      44.194  39.455  33.115  1.00  0.00     0.169 HD
HETATM    8  C7  UNL     1      43.979  40.257  35.020  1.00  0.00     0.194 C 
HETATM    9  N4  UNL     1      45.382  40.605  35.212  1.00  0.00    -0.063 NA
HETATM   10  N5  UNL     1      43.133  40.540  35.939  1.00  0.00    -0.326 N 
ATOM     11  H5  UNL     1      43.475  40.977  36.795  1.00  0.00     0.169 HD
HETATM   12  C8  UNL     1      41.714  40.271  35.822  1.00  0.00     0.108 C 
HETATM   13  C9  UNL     1      41.046  40.101  37.134  1.00  0.00     0.230 C 
HETATM   14  O3  UNL     1      41.655  40.510  38.190  1.00  0.00    -0.283 OA
HETATM   15  C10 UNL     1      39.752  39.488  37.241  1.00  0.00     0.134 C 
ENDROOT
BRANCH   1  16
HETATM   16  N1  UNL     1      38.858  37.293  36.519  1.00  0.00    -0.257 N 
ATOM     17  H1  UNL     1      38.107  36.895  35.955  1.00  0.00     0.195 HD
BRANCH  16  18
HETATM   18  O2  UNL     1      39.446  36.586  37.652  1.00  0.00    -0.277 OA
BRANCH  18  19
HETATM   19  C3  UNL     1      40.544  35.746  37.199  1.00  0.00     0.232 C 
BRANCH  19  20
HETATM   20  C2  UNL     1      40.127  34.323  36.897  1.00  0.00     0.140 C 
HETATM   21  C1  UNL     1      40.020  33.916  35.484  1.00  0.00     0.041 C 
BRANCH  20  22
HETATM   22  O1  UNL     1      40.953  33.447  37.567  1.00  0.00    -0.394 OA
ATOM     23  H1  UNL     1      40.458  32.676  37.821  1.00  0.00     0.210 HD
ENDBRANCH  20  22
ENDBRANCH  19  20
ENDBRANCH  18  19
ENDBRANCH  16  18
ENDBRANCH   1  16
BRANCH  15  24
HETATM   24  N6  UNL     1      38.849  39.813  38.095  1.00  0.00    -0.278 N 
ATOM     25  H6  UNL     1      39.132  40.254  38.970  1.00  0.00     0.184 HD
BRANCH  24  26
HETATM   26  N7  UNL     1      37.513  39.585  37.864  1.00  0.00    -0.029 NA
BRANCH  26  27
HETATM   27  N8  UNL     1      36.726  40.773  37.762  1.00  0.00    -0.329 N 
ATOM     28  H82 UNL     1      37.020  41.655  38.183  1.00  0.00     0.174 HD
ATOM     29  H81 UNL     1      35.858  40.656  37.238  1.00  0.00     0.174 HD
ENDBRANCH  26  27
ENDBRANCH  24  26
ENDBRANCH  15  24
TORSDOF 8
ENDMDL
MODEL 2
REMARK VINA RESULT: -7.067561728      0.979      1.060
REMARK  8 active torsions:
REMARK  status: ('A' for Active; 'I' for Inactive)
REMARK    1  A    between atoms: C2_2  and  O1_3 
REMARK    2  A    between atoms: C2_2  and  C3_5 
REMARK    3  A    between atoms: C3_5  and  O2_6 
REMARK    4  A    between atoms: O2_6  and  N1_7 
REMARK    5  A    between atoms: N1_7  and  C4_9 
REMARK    6  A    between atoms: C10_23  and  N6_24 
REMARK    7  A    between atoms: N6_24  and  N7_26 
REMARK    8  A    between atoms: N7_26  and  N8_27 
ROOT
HETATM    1  C4  UNL     1      39.220  38.288  36.506  1.00  0.00     0.127 C 
HETATM    2  S1  UNL     1      39.857  39.280  35.035  1.00  0.00    -0.062 SA
HETATM    3  C5  UNL     1      41.541  39.504  35.669  1.00  0.00     0.079 C 
HETATM    4  C6  UNL     1      42.693  39.534  34.825  1.00  0.00     0.138 C 
HETATM    5  N2  UNL     1      42.738  39.236  33.446  1.00  0.00    -0.081 NA
HETATM    6  N3  UNL     1      43.799  39.902  35.381  1.00  0.00    -0.318 N 
ATOM      7  H3  UNL     1      44.638  39.884  34.801  1.00  0.00     0.169 HD
HETATM    8  C7  UNL     1      43.953  40.326  36.713  1.00  0.00     0.194 C 
HETATM    9  N4  UNL     1      45.258  40.631  37.290  1.00  0.00    -0.063 NA
HETATM   10  N5  UNL     1      42.906  40.440  37.442  1.00  0.00    -0.326 N 
ATOM     11  H5  UNL     1      43.021  40.713  38.418  1.00  0.00     0.169 HD
HETATM   12  C8  UNL     1      41.566  40.199  36.948  1.00  0.00     0.108 C 
HETATM   13  C9  UNL     1      40.618  39.795  38.014  1.00  0.00     0.230 C 
HETATM   14  O3  UNL     1      40.949  40.002  39.239  1.00  0.00    -0.283 OA
HETATM   15  C10 UNL     1      39.361  39.174  37.702  1.00  0.00     0.134 C 
ENDROOT
BRANCH   1  16
HETATM   16  N1  UNL     1      38.750  37.150  36.412  1.00  0.00    -0.257 N 
ATOM     17  H1  UNL     1      38.146  36.870  35.638  1.00  0.00     0.195 HD
BRANCH  16  18
HETATM   18  O2  UNL     1      39.120  36.235  37.487  1.00  0.00    -0.277 OA
BRANCH  18  19
HETATM   19  C3  UNL     1      40.370  35.565  37.161  1.00  0.00     0.232 C 
BRANCH  19  20
HETATM   20  C2  UNL     1      40.196  34.102  36.818  1.00  0.00     0.140 C 
HETATM   21  C1  UNL     1      40.371  33.691  35.412  1.00  0.00     0.041 C 
BRANCH  20  22
HETATM   22  O1  UNL     1      41.011  33.337  37.625  1.00  0.00    -0.394 OA
ATOM     23  H1  UNL     1      41.205  33.815  38.423  1.00  0.00     0.210 HD
ENDBRANCH  20  22
ENDBRANCH  19  20
ENDBRANCH  18  19
ENDBRANCH  16  18
ENDBRANCH   1  16
BRANCH  15  24
HETATM   24  N6  UNL     1      38.272  39.341  38.362  1.00  0.00    -0.278 N 
ATOM     25  H6  UNL     1      38.245  39.075  39.346  1.00  0.00     0.184 HD
BRANCH  24  26
HETATM   26  N7  UNL     1      37.142  39.867  37.782  1.00  0.00    -0.029 NA
BRANCH  26  27
HETATM   27  N8  UNL     1      36.092  40.159  38.705  1.00  0.00    -0.329 N 
ATOM     28  H82 UNL     1      36.166  39.933  39.698  1.00  0.00     0.174 HD
ATOM     29  H81 UNL     1      35.277  40.606  38.284  1.00  0.00     0.174 HD
ENDBRANCH  26  27
ENDBRANCH  24  26
ENDBRANCH  15  24
TORSDOF 8
ENDMDL
MODEL 3
REMARK VINA RESULT: -6.844544826      1.269      1.552
REMARK  8 active torsions:
REMARK  status: ('A' for Active; 'I' for Inactive)
REMARK    1  A    between atoms: C2_2  and  O1_3 
REMARK    2  A    between atoms: C2_2  and  C3_5 
REMARK    3  A    between atoms: C3_5  and  O2_6 
REMARK    4  A    between atoms: O2_6  and  N1_7 
REMARK    5  A    between atoms: N1_7  and  C4_9 
REMARK    6  A    between atoms: C10_23  and  N6_24 
REMARK    7  A    between atoms: N6_24  and  N7_26 
REMARK    8  A    between atoms: N7_26  and  N8_27 
ROOT
HETATM    1  C4  UNL     1      39.439  37.756  34.654  1.00  0.00     0.127 C 
HETATM    2  S1  UNL     1      39.880  38.807  33.152  1.00  0.00    -0.062 SA
HETATM    3  C5  UNL     1      41.600  39.120  33.635  1.00  0.00     0.079 C 
HETATM    4  C6  UNL     1      42.665  39.231  32.691  1.00  0.00     0.138 C 
HETATM    5  N2  UNL     1      42.601  38.958  31.307  1.00  0.00    -0.081 NA
HETATM    6  N3  UNL     1      43.795  39.654  33.152  1.00  0.00    -0.318 N 
ATOM      7  H3  UNL     1      44.577  39.695  32.498  1.00  0.00     0.169 HD
HETATM    8  C7  UNL     1      44.047  40.065  34.474  1.00  0.00     0.194 C 
HETATM    9  N4  UNL     1      45.379  40.436  34.935  1.00  0.00    -0.063 NA
HETATM   10  N5  UNL     1      43.066  40.105  35.297  1.00  0.00    -0.326 N 
ATOM     11  H5  UNL     1      43.255  40.368  36.264  1.00  0.00     0.169 HD
HETATM   12  C8  UNL     1      41.702  39.794  34.921  1.00  0.00     0.108 C 
HETATM   13  C9  UNL     1      40.881  39.318  36.060  1.00  0.00     0.230 C 
HETATM   14  O3  UNL     1      41.310  39.525  37.254  1.00  0.00    -0.283 OA
HETATM   15  C10 UNL     1      39.638  38.630  35.850  1.00  0.00     0.134 C 
ENDROOT
BRANCH   1  16
HETATM   16  N1  UNL     1      39.027  36.594  34.578  1.00  0.00    -0.257 N 
ATOM     17  H1  UNL     1      38.033  36.367  34.551  1.00  0.00     0.195 HD
BRANCH  16  18
HETATM   18  O2  UNL     1      40.066  35.570  34.529  1.00  0.00    -0.277 OA
BRANCH  18  19
HETATM   19  C3  UNL     1      39.756  34.501  35.465  1.00  0.00     0.232 C 
BRANCH  19  20
HETATM   20  C2  UNL     1      40.429  34.667  36.810  1.00  0.00     0.140 C 
HETATM   21  C1  UNL     1      39.702  35.392  37.867  1.00  0.00     0.041 C 
BRANCH  20  22
HETATM   22  O1  UNL     1      40.822  33.434  37.285  1.00  0.00    -0.394 OA
ATOM     23  H1  UNL     1      41.768  33.415  37.376  1.00  0.00     0.210 HD
ENDBRANCH  20  22
ENDBRANCH  19  20
ENDBRANCH  18  19
ENDBRANCH  16  18
ENDBRANCH   1  16
BRANCH  15  24
HETATM   24  N6  UNL     1      38.606  38.722  36.610  1.00  0.00    -0.278 N 
ATOM     25  H6  UNL     1      38.200  37.871  36.998  1.00  0.00     0.184 HD
BRANCH  24  26
HETATM   26  N7  UNL     1      38.033  39.933  36.915  1.00  0.00    -0.029 NA
BRANCH  26  27
HETATM   27  N8  UNL     1      37.173  39.903  38.056  1.00  0.00    -0.329 N 
ATOM     28  H82 UNL     1      36.299  40.428  38.088  1.00  0.00     0.174 HD
ATOM     29  H81 UNL     1      37.511  39.317  38.819  1.00  0.00     0.174 HD
ENDBRANCH  26  27
ENDBRANCH  24  26
ENDBRANCH  15  24
TORSDOF 8
ENDMDL
MODEL 4
REMARK VINA RESULT: -6.827566806      1.436      1.597
REMARK  8 active torsions:
REMARK  status: ('A' for Active; 'I' for Inactive)
REMARK    1  A    between atoms: C2_2  and  O1_3 
REMARK    2  A    between atoms: C2_2  and  C3_5 
REMARK    3  A    between atoms: C3_5  and  O2_6 
REMARK    4  A    between atoms: O2_6  and  N1_7 
REMARK    5  A    between atoms: N1_7  and  C4_9 
REMARK    6  A    between atoms: C10_23  and  N6_24 
REMARK    7  A    between atoms: N6_24  and  N7_26 
REMARK    8  A    between atoms: N7_26  and  N8_27 
ROOT
HETATM    1  C4  UNL     1      39.339  38.446  35.442  1.00  0.00     0.127 C 
HETATM    2  S1  UNL     1      40.230  39.572  34.220  1.00  0.00    -0.062 SA
HETATM    3  C5  UNL     1      41.782  39.677  35.152  1.00  0.00     0.079 C 
HETATM    4  C6  UNL     1      43.062  39.764  34.525  1.00  0.00     0.138 C 
HETATM    5  N2  UNL     1      43.342  39.616  33.149  1.00  0.00    -0.081 NA
HETATM    6  N3  UNL     1      44.060  40.038  35.299  1.00  0.00    -0.318 N 
ATOM      7  H3  UNL     1      44.986  40.058  34.872  1.00  0.00     0.169 HD
HETATM    8  C7  UNL     1      43.986  40.311  36.677  1.00  0.00     0.194 C 
HETATM    9  N4  UNL     1      45.175  40.513  37.497  1.00  0.00    -0.063 NA
HETATM   10  N5  UNL     1      42.830  40.375  37.225  1.00  0.00    -0.326 N 
ATOM     11  H5  UNL     1      42.778  40.538  38.230  1.00  0.00     0.169 HD
HETATM   12  C8  UNL     1      41.593  40.229  36.486  1.00  0.00     0.108 C 
HETATM   13  C9  UNL     1      40.471  39.739  37.323  1.00  0.00     0.230 C 
HETATM   14  O3  UNL     1      40.588  39.804  38.602  1.00  0.00    -0.283 OA
HETATM   15  C10 UNL     1      39.281  39.193  36.735  1.00  0.00     0.134 C 
ENDROOT
BRANCH   1  16
HETATM   16  N1  UNL     1      38.880  37.339  35.142  1.00  0.00    -0.257 N 
ATOM     17  H1  UNL     1      38.764  37.038  34.174  1.00  0.00     0.195 HD
BRANCH  16  18
HETATM   18  O2  UNL     1      38.517  36.492  36.274  1.00  0.00    -0.277 OA
BRANCH  18  19
HETATM   19  C3  UNL     1      39.361  35.308  36.301  1.00  0.00     0.232 C 
BRANCH  19  20
HETATM   20  C2  UNL     1      39.509  34.644  34.950  1.00  0.00     0.140 C 
HETATM   21  C1  UNL     1      40.266  33.381  34.874  1.00  0.00     0.041 C 
BRANCH  20  22
HETATM   22  O1  UNL     1      38.265  34.469  34.382  1.00  0.00    -0.394 OA
ATOM     23  H1  UNL     1      37.764  35.272  34.462  1.00  0.00     0.210 HD
ENDBRANCH  20  22
ENDBRANCH  19  20
ENDBRANCH  18  19
ENDBRANCH  16  18
ENDBRANCH   1  16
BRANCH  15  24
HETATM   24  N6  UNL     1      38.096  39.319  37.215  1.00  0.00    -0.278 N 
ATOM     25  H6  UNL     1      37.621  38.495  37.582  1.00  0.00     0.184 HD
BRANCH  24  26
HETATM   26  N7  UNL     1      37.449  40.532  37.247  1.00  0.00    -0.029 NA
BRANCH  26  27
HETATM   27  N8  UNL     1      36.373  40.597  38.184  1.00  0.00    -0.329 N 
ATOM     28  H82 UNL     1      35.823  39.774  38.434  1.00  0.00     0.174 HD
ATOM     29  H81 UNL     1      36.212  41.526  38.573  1.00  0.00     0.174 HD
ENDBRANCH  26  27
ENDBRANCH  24  26
ENDBRANCH  15  24
TORSDOF 8
ENDMDL
MODEL 5
REMARK VINA RESULT: -6.820668127      1.377      1.514
REMARK  8 active torsions:
REMARK  status: ('A' for Active; 'I' for Inactive)
REMARK    1  A    between atoms: C2_2  and  O1_3 
REMARK    2  A    between atoms: C2_2  and  C3_5 
REMARK    3  A    between atoms: C3_5  and  O2_6 
REMARK    4  A    between atoms: O2_6  and  N1_7 
REMARK    5  A    between atoms: N1_7  and  C4_9 
REMARK    6  A    between atoms: C10_23  and  N6_24 
REMARK    7  A    between atoms: N6_24  and  N7_26 
REMARK    8  A    between atoms: N7_26  and  N8_27 
ROOT
HETATM    1  C4  UNL     1      39.191  39.096  35.496  1.00  0.00     0.127 C 
HETATM    2  S1  UNL     1      39.690  39.856  33.844  1.00  0.00    -0.062 SA
HETATM    3  C5  UNL     1      41.474  39.866  34.168  1.00  0.00     0.079 C 
HETATM    4  C6  UNL     1      42.451  39.649  33.150  1.00  0.00     0.138 C 
HETATM    5  N2  UNL     1      42.211  39.237  31.821  1.00  0.00    -0.081 NA
HETATM    6  N3  UNL     1      43.679  39.885  33.477  1.00  0.00    -0.318 N 
ATOM      7  H3  UNL     1      44.391  39.690  32.774  1.00  0.00     0.169 HD
HETATM    8  C7  UNL     1      44.123  40.386  34.714  1.00  0.00     0.194 C 
HETATM    9  N4  UNL     1      45.538  40.530  35.035  1.00  0.00    -0.063 NA
HETATM   10  N5  UNL     1      43.247  40.718  35.587  1.00  0.00    -0.326 N 
ATOM     11  H5  UNL     1      43.569  41.048  36.497  1.00  0.00     0.169 HD
HETATM   12  C8  UNL     1      41.820  40.649  35.346  1.00  0.00     0.108 C 
HETATM   13  C9  UNL     1      41.028  40.484  36.588  1.00  0.00     0.230 C 
HETATM   14  O3  UNL     1      41.595  40.736  37.714  1.00  0.00    -0.283 OA
HETATM   15  C10 UNL     1      39.662  40.043  36.552  1.00  0.00     0.134 C 
ENDROOT
BRANCH   1  16
HETATM   16  N1  UNL     1      38.557  38.041  35.600  1.00  0.00    -0.257 N 
ATOM     17  H1  UNL     1      37.793  37.797  34.969  1.00  0.00     0.195 HD
BRANCH  16  18
HETATM   18  O2  UNL     1      38.982  37.168  36.690  1.00  0.00    -0.277 OA
BRANCH  18  19
HETATM   19  C3  UNL     1      38.513  35.812  36.454  1.00  0.00     0.232 C 
BRANCH  19  20
HETATM   20  C2  UNL     1      38.744  35.335  35.037  1.00  0.00     0.140 C 
HETATM   21  C1  UNL     1      39.420  34.039  34.841  1.00  0.00     0.041 C 
BRANCH  20  22
HETATM   22  O1  UNL     1      37.550  35.340  34.346  1.00  0.00    -0.394 OA
ATOM     23  H1  UNL     1      36.910  34.818  34.816  1.00  0.00     0.210 HD
ENDBRANCH  20  22
ENDBRANCH  19  20
ENDBRANCH  18  19
ENDBRANCH  16  18
ENDBRANCH   1  16
BRANCH  15  24
HETATM   24  N6  UNL     1      38.741  40.429  37.359  1.00  0.00    -0.278 N 
ATOM     25  H6  UNL     1      38.917  40.398  38.363  1.00  0.00     0.184 HD
BRANCH  24  26
HETATM   26  N7  UNL     1      37.523  40.883  36.910  1.00  0.00    -0.029 NA
BRANCH  26  27
HETATM   27  N8  UNL     1      36.484  40.835  37.889  1.00  0.00    -0.329 N 
ATOM     28  H82 UNL     1      35.564  41.242  37.721  1.00  0.00     0.174 HD
ATOM     29  H81 UNL     1      36.746  40.363  38.755  1.00  0.00     0.174 HD
ENDBRANCH  26  27
ENDBRANCH  24  26
ENDBRANCH  15  24
TORSDOF 8
ENDMDL
