MODEL 1
REMARK VINA RESULT: -6.224545927      0.000      0.000
REMARK  1 active torsions:
REMARK  status: ('A' for Active; 'I' for Inactive)
REMARK    1  A    between atoms: C10_11  and  N2_12 
ROOT
HETATM    1  N1  UNL     1      25.783 -24.042  73.322  1.00  0.00    -0.197 NA
HETATM    2  C1  UNL     1      25.468 -24.748  72.459  1.00  0.00     0.064 C 
HETATM    3  C2  UNL     1      25.044 -25.647  71.358  1.00  0.00     0.093 C 
HETATM    4  C3  UNL     1      25.703 -26.994  71.675  1.00  0.00     0.024 C 
HETATM    5  C4  UNL     1      25.294 -28.047  70.708  1.00  0.00    -0.010 C 
HETATM    6  C5  UNL     1      23.860 -27.994  70.289  1.00  0.00     0.012 C 
HETATM    7  C6  UNL     1      23.780 -27.382  68.941  1.00  0.00     0.016 C 
HETATM    8  C7  UNL     1      23.509 -25.905  68.868  1.00  0.00     0.014 C 
HETATM    9  C8  UNL     1      24.982 -25.661  68.844  1.00  0.00     0.017 C 
HETATM   10  C9  UNL     1      25.631 -25.175  70.080  1.00  0.00     0.026 C 
HETATM   11  C10 UNL     1      25.203 -27.079  68.488  1.00  0.00     0.053 C 
HETATM   12  C11 UNL     1      26.048 -27.868  69.409  1.00  0.00     0.038 C 
ENDROOT
BRANCH  11  13
HETATM   13  N2  UNL     1      25.449 -27.339  67.101  1.00  0.00    -0.332 N 
HETATM   14  N3  UNL     1      26.167 -28.288  66.770  1.00  0.00    -0.349 N 
ATOM     15  H32 UNL     1      26.577 -28.875  67.496  1.00  0.00     0.176 HD
ATOM     16  H31 UNL     1      26.342 -28.474  65.782  1.00  0.00     0.176 HD
ATOM     17  H2  UNL     1      25.031 -26.743  66.388  1.00  0.00     0.180 HD
ENDBRANCH  11  13
TORSDOF 1
ENDMDL
MODEL 2
REMARK VINA RESULT: -5.954871553      1.376      2.143
REMARK  1 active torsions:
REMARK  status: ('A' for Active; 'I' for Inactive)
REMARK    1  A    between atoms: C10_11  and  N2_12 
ROOT
HETATM    1  N1  UNL     1      22.246 -23.899  72.428  1.00  0.00    -0.197 NA
HETATM    2  C1  UNL     1      22.903 -24.626  71.810  1.00  0.00     0.064 C 
HETATM    3  C2  UNL     1      23.741 -25.572  71.033  1.00  0.00     0.093 C 
HETATM    4  C3  UNL     1      25.083 -24.854  70.856  1.00  0.00     0.024 C 
HETATM    5  C4  UNL     1      26.083 -25.718  70.174  1.00  0.00    -0.010 C 
HETATM    6  C5  UNL     1      26.049 -27.156  70.577  1.00  0.00     0.012 C 
HETATM    7  C6  UNL     1      25.353 -27.931  69.522  1.00  0.00     0.016 C 
HETATM    8  C7  UNL     1      23.884 -28.190  69.711  1.00  0.00     0.014 C 
HETATM    9  C8  UNL     1      23.590 -26.949  68.934  1.00  0.00     0.017 C 
HETATM   10  C9  UNL     1      23.166 -25.743  69.676  1.00  0.00     0.026 C 
HETATM   11  C10 UNL     1      24.973 -26.957  68.412  1.00  0.00     0.053 C 
HETATM   12  C11 UNL     1      25.793 -25.760  68.690  1.00  0.00     0.038 C 
ENDROOT
BRANCH  11  13
HETATM   13  N2  UNL     1      25.133 -27.481  67.088  1.00  0.00    -0.332 N 
HETATM   14  N3  UNL     1      26.142 -28.134  66.801  1.00  0.00    -0.349 N 
ATOM     15  H32 UNL     1      26.850 -28.291  67.518  1.00  0.00     0.176 HD
ATOM     16  H31 UNL     1      26.256 -28.507  65.859  1.00  0.00     0.176 HD
ATOM     17  H2  UNL     1      24.416 -27.315  66.383  1.00  0.00     0.180 HD
ENDBRANCH  11  13
TORSDOF 1
ENDMDL
MODEL 3
REMARK VINA RESULT: -5.890643713      5.139      6.739
REMARK  1 active torsions:
REMARK  status: ('A' for Active; 'I' for Inactive)
REMARK    1  A    between atoms: C10_11  and  N2_12 
ROOT
HETATM    1  N1  UNL     1      21.017 -19.564  71.329  1.00  0.00    -0.197 NA
HETATM    2  C1  UNL     1      21.469 -20.552  71.729  1.00  0.00     0.064 C 
HETATM    3  C2  UNL     1      22.064 -21.817  72.224  1.00  0.00     0.093 C 
HETATM    4  C3  UNL     1      20.890 -22.800  72.301  1.00  0.00     0.024 C 
HETATM    5  C4  UNL     1      21.338 -24.163  72.692  1.00  0.00    -0.010 C 
HETATM    6  C5  UNL     1      22.638 -24.593  72.093  1.00  0.00     0.012 C 
HETATM    7  C6  UNL     1      23.703 -24.457  73.117  1.00  0.00     0.016 C 
HETATM    8  C7  UNL     1      24.506 -23.186  73.114  1.00  0.00     0.014 C 
HETATM    9  C8  UNL     1      23.544 -22.606  74.099  1.00  0.00     0.017 C 
HETATM   10  C9  UNL     1      22.551 -21.625  73.613  1.00  0.00     0.026 C 
HETATM   11  C10 UNL     1      23.046 -23.965  74.401  1.00  0.00     0.053 C 
HETATM   12  C11 UNL     1      21.604 -24.205  74.180  1.00  0.00     0.038 C 
ENDROOT
BRANCH  11  13
HETATM   13  N2  UNL     1      23.562 -24.564  75.595  1.00  0.00    -0.332 N 
HETATM   14  N3  UNL     1      23.504 -23.952  76.667  1.00  0.00    -0.349 N 
ATOM     15  H32 UNL     1      23.084 -23.023  76.684  1.00  0.00     0.176 HD
ATOM     16  H31 UNL     1      23.872 -24.379  77.517  1.00  0.00     0.176 HD
ATOM     17  H2  UNL     1      23.978 -25.494  75.561  1.00  0.00     0.180 HD
ENDBRANCH  11  13
TORSDOF 1
ENDMDL
MODEL 4
REMARK VINA RESULT: -5.776053076      2.002      2.659
REMARK  1 active torsions:
REMARK  status: ('A' for Active; 'I' for Inactive)
REMARK    1  A    between atoms: C10_11  and  N2_12 
ROOT
HETATM    1  N1  UNL     1      28.427 -27.080  71.413  1.00  0.00    -0.197 NA
HETATM    2  C1  UNL     1      27.425 -26.914  70.856  1.00  0.00     0.064 C 
HETATM    3  C2  UNL     1      26.149 -26.682  70.137  1.00  0.00     0.093 C 
HETATM    4  C3  UNL     1      25.057 -27.038  71.151  1.00  0.00     0.024 C 
HETATM    5  C4  UNL     1      23.697 -26.763  70.615  1.00  0.00    -0.010 C 
HETATM    6  C5  UNL     1      23.585 -25.516  69.798  1.00  0.00     0.012 C 
HETATM    7  C6  UNL     1      23.567 -25.886  68.362  1.00  0.00     0.016 C 
HETATM    8  C7  UNL     1      24.876 -25.852  67.624  1.00  0.00     0.014 C 
HETATM    9  C8  UNL     1      25.069 -27.296  67.950  1.00  0.00     0.017 C 
HETATM   10  C9  UNL     1      26.027 -27.650  69.020  1.00  0.00     0.026 C 
HETATM   11  C10 UNL     1      23.632 -27.407  68.279  1.00  0.00     0.053 C 
HETATM   12  C11 UNL     1      23.299 -27.855  69.647  1.00  0.00     0.038 C 
ENDROOT
BRANCH  11  13
HETATM   13  N2  UNL     1      22.804 -27.978  67.259  1.00  0.00    -0.332 N 
HETATM   14  N3  UNL     1      21.999 -28.869  67.546  1.00  0.00    -0.349 N 
ATOM     15  H32 UNL     1      21.936 -29.186  68.513  1.00  0.00     0.176 HD
ATOM     16  H31 UNL     1      21.409 -29.275  66.820  1.00  0.00     0.176 HD
ATOM     17  H2  UNL     1      22.879 -27.649  66.297  1.00  0.00     0.180 HD
ENDBRANCH  11  13
TORSDOF 1
ENDMDL
MODEL 5
REMARK VINA RESULT: -5.767602068      1.169      2.100
REMARK  1 active torsions:
REMARK  status: ('A' for Active; 'I' for Inactive)
REMARK    1  A    between atoms: C10_11  and  N2_12 
ROOT
HETATM    1  N1  UNL     1      25.040 -24.115  73.208  1.00  0.00    -0.197 NA
HETATM    2  C1  UNL     1      24.912 -24.560  72.146  1.00  0.00     0.064 C 
HETATM    3  C2  UNL     1      24.756 -25.111  70.778  1.00  0.00     0.093 C 
HETATM    4  C3  UNL     1      23.300 -25.586  70.709  1.00  0.00     0.024 C 
HETATM    5  C4  UNL     1      22.947 -26.082  69.353  1.00  0.00    -0.010 C 
HETATM    6  C5  UNL     1      23.535 -25.297  68.224  1.00  0.00     0.012 C 
HETATM    7  C6  UNL     1      24.698 -26.040  67.682  1.00  0.00     0.016 C 
HETATM    8  C7  UNL     1      26.058 -25.670  68.206  1.00  0.00     0.014 C 
HETATM    9  C8  UNL     1      25.919 -26.732  69.247  1.00  0.00     0.017 C 
HETATM   10  C9  UNL     1      25.606 -26.319  70.631  1.00  0.00     0.026 C 
HETATM   11  C10 UNL     1      24.819 -27.341  68.468  1.00  0.00     0.053 C 
HETATM   12  C11 UNL     1      23.516 -27.468  69.152  1.00  0.00     0.038 C 
ENDROOT
BRANCH  11  13
HETATM   13  N2  UNL     1      25.177 -28.478  67.674  1.00  0.00    -0.332 N 
HETATM   14  N3  UNL     1      24.330 -29.337  67.412  1.00  0.00    -0.349 N 
ATOM     15  H32 UNL     1      23.381 -29.222  67.767  1.00  0.00     0.176 HD
ATOM     16  H31 UNL     1      24.584 -30.147  66.846  1.00  0.00     0.176 HD
ATOM     17  H2  UNL     1      26.130 -28.578  67.325  1.00  0.00     0.180 HD
ENDBRANCH  11  13
TORSDOF 1
ENDMDL
