MODEL 1
REMARK VINA RESULT: -5.857180430      0.000      0.000
REMARK  3 active torsions:
REMARK  status: ('A' for Active; 'I' for Inactive)
REMARK    1  A    between atoms: C2_2  and  C5_5 
REMARK    2  A    between atoms: C9_9  and  N1_10 
REMARK    3  A    between atoms: N1_10  and  O1_11 
ROOT
HETATM    1  C5  UNL     1      22.921 -23.901  73.520  1.00  0.00     0.059 C 
HETATM    2  C6  UNL     1      21.432 -24.373  73.500  1.00  0.00     0.017 C 
HETATM    3  C7  UNL     1      20.627 -23.637  72.417  1.00  0.00     0.003 C 
HETATM    4  C8  UNL     1      20.491 -22.206  72.409  1.00  0.00     0.024 C 
HETATM    5  C9  UNL     1      21.434 -21.274  71.676  1.00  0.00     0.116 C 
HETATM    6  C10 UNL     1      22.917 -21.449  72.157  1.00  0.00     0.103 C 
HETATM    7  C11 UNL     1      22.963 -22.678  72.829  1.00  0.00    -0.176 C 
ENDROOT
BRANCH   1   8
HETATM    8  C2  UNL     1      23.408 -23.796  74.957  1.00  0.00    -0.038 C 
HETATM    9  C1  UNL     1      22.960 -24.984  75.782  1.00  0.00     0.015 C 
HETATM   10  C3  UNL     1      22.995 -22.565  75.673  1.00  0.00     0.015 C 
HETATM   11  C4  UNL     1      24.938 -23.853  74.995  1.00  0.00     0.015 C 
ENDBRANCH   1   8
BRANCH   5  12
HETATM   12  N1  UNL     1      21.005 -19.938  71.900  1.00  0.00    -0.098 NA
BRANCH  12  13
HETATM   13  O1  UNL     1      21.393 -19.172  70.828  1.00  0.00    -0.296 OA
ATOM     14  H1  UNL     1      20.637 -18.690  70.514  1.00  0.00     0.238 HD
ENDBRANCH  12  13
ENDBRANCH   5  12
TORSDOF 3
ENDMDL
MODEL 2
REMARK VINA RESULT: -5.823084267      0.076      1.154
REMARK  3 active torsions:
REMARK  status: ('A' for Active; 'I' for Inactive)
REMARK    1  A    between atoms: C2_2  and  C5_5 
REMARK    2  A    between atoms: C9_9  and  N1_10 
REMARK    3  A    between atoms: N1_10  and  O1_11 
ROOT
HETATM    1  C5  UNL     1      22.911 -23.962  73.464  1.00  0.00     0.059 C 
HETATM    2  C6  UNL     1      21.412 -24.401  73.486  1.00  0.00     0.017 C 
HETATM    3  C7  UNL     1      20.592 -23.643  72.430  1.00  0.00     0.003 C 
HETATM    4  C8  UNL     1      20.488 -22.209  72.432  1.00  0.00     0.024 C 
HETATM    5  C9  UNL     1      21.429 -21.295  71.674  1.00  0.00     0.116 C 
HETATM    6  C10 UNL     1      22.922 -21.505  72.111  1.00  0.00     0.103 C 
HETATM    7  C11 UNL     1      22.960 -22.737  72.777  1.00  0.00    -0.176 C 
ENDROOT
BRANCH   1   8
HETATM    8  C2  UNL     1      23.442 -23.874  74.887  1.00  0.00    -0.038 C 
HETATM    9  C1  UNL     1      24.955 -23.868  74.914  1.00  0.00     0.015 C 
HETATM   10  C3  UNL     1      22.975 -24.945  75.800  1.00  0.00     0.015 C 
HETATM   11  C4  UNL     1      23.038 -22.535  75.513  1.00  0.00     0.015 C 
ENDBRANCH   1   8
BRANCH   5  12
HETATM   12  N1  UNL     1      21.036 -19.950  71.915  1.00  0.00    -0.098 NA
BRANCH  12  13
HETATM   13  O1  UNL     1      21.417 -19.188  70.838  1.00  0.00    -0.296 OA
ATOM     14  H1  UNL     1      20.745 -19.256  70.170  1.00  0.00     0.238 HD
ENDBRANCH  12  13
ENDBRANCH   5  12
TORSDOF 3
ENDMDL
MODEL 3
REMARK VINA RESULT: -5.797612178      0.064      1.167
REMARK  3 active torsions:
REMARK  status: ('A' for Active; 'I' for Inactive)
REMARK    1  A    between atoms: C2_2  and  C5_5 
REMARK    2  A    between atoms: C9_9  and  N1_10 
REMARK    3  A    between atoms: N1_10  and  O1_11 
ROOT
HETATM    1  C5  UNL     1      22.981 -23.893  73.479  1.00  0.00     0.059 C 
HETATM    2  C6  UNL     1      21.496 -24.376  73.504  1.00  0.00     0.017 C 
HETATM    3  C7  UNL     1      20.655 -23.650  72.443  1.00  0.00     0.003 C 
HETATM    4  C8  UNL     1      20.508 -22.219  72.435  1.00  0.00     0.024 C 
HETATM    5  C9  UNL     1      21.422 -21.283  71.672  1.00  0.00     0.116 C 
HETATM    6  C10 UNL     1      22.920 -21.446  72.109  1.00  0.00     0.103 C 
HETATM    7  C11 UNL     1      22.995 -22.672  72.784  1.00  0.00    -0.176 C 
ENDROOT
BRANCH   1   8
HETATM    8  C2  UNL     1      23.509 -23.780  74.901  1.00  0.00    -0.038 C 
HETATM    9  C1  UNL     1      23.008 -22.524  75.580  1.00  0.00     0.015 C 
HETATM   10  C3  UNL     1      24.987 -23.806  75.027  1.00  0.00     0.015 C 
HETATM   11  C4  UNL     1      22.960 -24.927  75.755  1.00  0.00     0.015 C 
ENDBRANCH   1   8
BRANCH   5  12
HETATM   12  N1  UNL     1      20.990 -19.949  71.904  1.00  0.00    -0.098 NA
BRANCH  12  13
HETATM   13  O1  UNL     1      21.401 -19.171  70.849  1.00  0.00    -0.296 OA
ATOM     14  H1  UNL     1      22.349 -19.126  70.861  1.00  0.00     0.238 HD
ENDBRANCH  12  13
ENDBRANCH   5  12
TORSDOF 3
ENDMDL
MODEL 4
REMARK VINA RESULT: -5.689451519      1.955      2.900
REMARK  3 active torsions:
REMARK  status: ('A' for Active; 'I' for Inactive)
REMARK    1  A    between atoms: C2_2  and  C5_5 
REMARK    2  A    between atoms: C9_9  and  N1_10 
REMARK    3  A    between atoms: N1_10  and  O1_11 
ROOT
HETATM    1  C5  UNL     1      23.802 -24.764  73.427  1.00  0.00     0.059 C 
HETATM    2  C6  UNL     1      24.175 -23.775  74.577  1.00  0.00     0.017 C 
HETATM    3  C7  UNL     1      23.137 -22.650  74.705  1.00  0.00     0.003 C 
HETATM    4  C8  UNL     1      22.846 -21.754  73.619  1.00  0.00     0.024 C 
HETATM    5  C9  UNL     1      21.759 -22.000  72.593  1.00  0.00     0.116 C 
HETATM    6  C10 UNL     1      21.968 -23.359  71.837  1.00  0.00     0.103 C 
HETATM    7  C11 UNL     1      22.869 -24.100  72.614  1.00  0.00    -0.176 C 
ENDROOT
BRANCH   1   8
HETATM    8  C2  UNL     1      25.059 -25.181  72.680  1.00  0.00    -0.038 C 
HETATM    9  C1  UNL     1      24.750 -26.192  71.597  1.00  0.00     0.015 C 
HETATM   10  C3  UNL     1      26.140 -25.741  73.528  1.00  0.00     0.015 C 
HETATM   11  C4  UNL     1      25.645 -23.980  71.932  1.00  0.00     0.015 C 
ENDBRANCH   1   8
BRANCH   5  12
HETATM   12  N1  UNL     1      21.767 -20.922  71.667  1.00  0.00    -0.098 NA
BRANCH  12  13
HETATM   13  O1  UNL     1      21.644 -19.747  72.367  1.00  0.00    -0.296 OA
ATOM     14  H1  UNL     1      21.315 -19.079  71.777  1.00  0.00     0.238 HD
ENDBRANCH  12  13
ENDBRANCH   5  12
TORSDOF 3
ENDMDL
MODEL 5
REMARK VINA RESULT: -5.584776991      4.522      5.586
REMARK  3 active torsions:
REMARK  status: ('A' for Active; 'I' for Inactive)
REMARK    1  A    between atoms: C2_2  and  C5_5 
REMARK    2  A    between atoms: C9_9  and  N1_10 
REMARK    3  A    between atoms: N1_10  and  O1_11 
ROOT
HETATM    1  C5  UNL     1      24.880 -23.927  72.933  1.00  0.00     0.059 C 
HETATM    2  C6  UNL     1      25.280 -25.002  73.993  1.00  0.00     0.017 C 
HETATM    3  C7  UNL     1      26.390 -25.924  73.462  1.00  0.00     0.003 C 
HETATM    4  C8  UNL     1      26.218 -26.718  72.276  1.00  0.00     0.024 C 
HETATM    5  C9  UNL     1      26.593 -26.248  70.886  1.00  0.00     0.116 C 
HETATM    6  C10 UNL     1      25.842 -24.926  70.495  1.00  0.00     0.103 C 
HETATM    7  C11 UNL     1      25.361 -24.386  71.695  1.00  0.00    -0.176 C 
ENDROOT
BRANCH   1   8
HETATM    8  C2  UNL     1      23.373 -23.722  72.953  1.00  0.00    -0.038 C 
HETATM    9  C1  UNL     1      22.671 -24.685  72.020  1.00  0.00     0.015 C 
HETATM   10  C3  UNL     1      22.919 -22.351  72.615  1.00  0.00     0.015 C 
HETATM   11  C4  UNL     1      22.818 -24.055  74.341  1.00  0.00     0.015 C 
ENDBRANCH   1   8
BRANCH   5  12
HETATM   12  N1  UNL     1      26.273 -27.280  69.963  1.00  0.00    -0.098 NA
BRANCH  12  13
HETATM   13  O1  UNL     1      26.553 -26.831  68.696  1.00  0.00    -0.296 OA
ATOM     14  H1  UNL     1      27.215 -26.153  68.757  1.00  0.00     0.238 HD
ENDBRANCH  12  13
ENDBRANCH   5  12
TORSDOF 3
ENDMDL
