MODEL 1
REMARK VINA RESULT: -9.605361971      0.000      0.000
REMARK  10 active torsions:
REMARK  status: ('A' for Active; 'I' for Inactive)
REMARK    1  A    between atoms: C1_2  and  C2_3 
REMARK       I    between atoms: C1_2  and  N1_16 
REMARK    2  A    between atoms: C2_3  and  C3_4 
REMARK    3  A    between atoms: C3_4  and  C4_5 
REMARK    4  A    between atoms: C4_5  and  C5_6 
REMARK    5  A    between atoms: C5_6  and  C6_7 
REMARK    6  A    between atoms: C6_7  and  C7_8 
REMARK    7  A    between atoms: C7_8  and  C8_9 
REMARK    8  A    between atoms: C8_9  and  C9_10 
REMARK    9  A    between atoms: N1_16  and  C15_18 
REMARK   10  A    between atoms: C20_23  and  C21_24 
ROOT
HETATM    1  O1  UNL     1      13.957  22.924  44.279  1.00  0.00    -0.273 OA
HETATM    2  C1  UNL     1      14.065  21.851  43.665  1.00  0.00     0.222 C 
HETATM    3  N1  UNL     1      15.278  21.160  43.595  1.00  0.00    -0.326 N 
ATOM      4  H1  UNL     1      15.255  20.293  43.059  1.00  0.00     0.169 HD
ENDROOT
BRANCH   3   5
HETATM    5  C15 UNL     1      16.537  21.488  44.161  1.00  0.00     0.046 A 
HETATM    6  C16 UNL     1      16.886  21.017  45.417  1.00  0.00     0.030 A 
HETATM    7  C17 UNL     1      18.159  21.215  45.886  1.00  0.00     0.002 A 
HETATM    8  C18 UNL     1      19.131  21.866  45.165  1.00  0.00     0.001 A 
HETATM    9  C19 UNL     1      18.751  22.317  43.934  1.00  0.00     0.015 A 
HETATM   10  C20 UNL     1      17.462  22.142  43.415  1.00  0.00     0.008 A 
BRANCH  10  11
HETATM   11  C21 UNL     1      17.201  22.829  42.137  1.00  0.00     0.019 A 
HETATM   12  C22 UNL     1      17.150  22.390  40.850  1.00  0.00     0.032 A 
HETATM   13  C23 UNL     1      16.798  23.291  39.893  1.00  0.00    -0.018 A 
HETATM   14  C24 UNL     1      16.679  23.067  38.504  1.00  0.00     0.013 A 
HETATM   15  C28 UNL     1      16.523  24.563  40.307  1.00  0.00     0.015 A 
HETATM   16  C25 UNL     1      16.314  24.073  37.647  1.00  0.00     0.001 A 
HETATM   17  C26 UNL     1      16.040  25.352  38.076  1.00  0.00     0.001 A 
HETATM   18  C27 UNL     1      16.148  25.597  39.427  1.00  0.00     0.019 A 
HETATM   19  S1  UNL     1      16.761  24.471  41.994  1.00  0.00    -0.089 SA
ENDBRANCH  10  11
ENDBRANCH   3   5
BRANCH   2  20
HETATM   20  C2  UNL     1      12.827  21.341  43.005  1.00  0.00     0.103 C 
BRANCH  20  21
HETATM   21  C3  UNL     1      13.080  20.015  42.342  1.00  0.00     0.009 C 
BRANCH  21  22
HETATM   22  C4  UNL     1      13.158  20.143  40.862  1.00  0.00     0.000 C 
BRANCH  22  23
HETATM   23  C5  UNL     1      11.877  19.782  40.146  1.00  0.00     0.000 C 
BRANCH  23  24
HETATM   24  C6  UNL     1      12.246  19.286  38.785  1.00  0.00     0.000 C 
BRANCH  24  25
HETATM   25  C7  UNL     1      11.093  19.257  37.806  1.00  0.00     0.005 C 
BRANCH  25  26
HETATM   26  C8  UNL     1       9.867  19.825  38.437  1.00  0.00     0.038 C 
BRANCH  26  27
HETATM   27  C9  UNL     1       8.738  18.905  38.507  1.00  0.00    -0.058 A 
HETATM   28  C10 UNL     1       8.905  17.573  38.236  1.00  0.00     0.007 A 
HETATM   29  C11 UNL     1       7.845  16.679  38.295  1.00  0.00     0.001 A 
HETATM   30  C12 UNL     1       6.586  17.159  38.639  1.00  0.00     0.000 A 
HETATM   31  C13 UNL     1       6.393  18.495  38.916  1.00  0.00     0.001 A 
HETATM   32  C14 UNL     1       7.487  19.369  38.846  1.00  0.00     0.007 A 
ENDBRANCH  26  27
ENDBRANCH  25  26
ENDBRANCH  24  25
ENDBRANCH  23  24
ENDBRANCH  22  23
ENDBRANCH  21  22
ENDBRANCH  20  21
ENDBRANCH   2  20
TORSDOF 10
ENDMDL
MODEL 2
REMARK VINA RESULT: -9.330612376      1.144      1.711
REMARK  10 active torsions:
REMARK  status: ('A' for Active; 'I' for Inactive)
REMARK    1  A    between atoms: C1_2  and  C2_3 
REMARK       I    between atoms: C1_2  and  N1_16 
REMARK    2  A    between atoms: C2_3  and  C3_4 
REMARK    3  A    between atoms: C3_4  and  C4_5 
REMARK    4  A    between atoms: C4_5  and  C5_6 
REMARK    5  A    between atoms: C5_6  and  C6_7 
REMARK    6  A    between atoms: C6_7  and  C7_8 
REMARK    7  A    between atoms: C7_8  and  C8_9 
REMARK    8  A    between atoms: C8_9  and  C9_10 
REMARK    9  A    between atoms: N1_16  and  C15_18 
REMARK   10  A    between atoms: C20_23  and  C21_24 
ROOT
HETATM    1  O1  UNL     1      14.229  23.651  44.922  1.00  0.00    -0.273 OA
HETATM    2  C1  UNL     1      14.084  22.552  44.363  1.00  0.00     0.222 C 
HETATM    3  N1  UNL     1      15.144  21.651  44.222  1.00  0.00    -0.326 N 
ATOM      4  H1  UNL     1      14.915  20.782  43.740  1.00  0.00     0.169 HD
ENDROOT
BRANCH   3   5
HETATM    5  C15 UNL     1      16.491  21.769  44.649  1.00  0.00     0.046 A 
HETATM    6  C16 UNL     1      16.864  21.355  45.919  1.00  0.00     0.030 A 
HETATM    7  C17 UNL     1      18.190  21.334  46.264  1.00  0.00     0.002 A 
HETATM    8  C18 UNL     1      19.194  21.706  45.402  1.00  0.00     0.001 A 
HETATM    9  C19 UNL     1      18.791  22.110  44.162  1.00  0.00     0.015 A 
HETATM   10  C20 UNL     1      17.448  22.151  43.766  1.00  0.00     0.008 A 
BRANCH  10  11
HETATM   11  C21 UNL     1      17.202  22.756  42.445  1.00  0.00     0.019 A 
HETATM   12  C22 UNL     1      17.228  22.250  41.182  1.00  0.00     0.032 A 
HETATM   13  C23 UNL     1      16.865  23.079  40.166  1.00  0.00    -0.018 A 
HETATM   14  C24 UNL     1      16.817  22.778  38.787  1.00  0.00     0.013 A 
HETATM   15  C28 UNL     1      16.503  24.352  40.501  1.00  0.00     0.015 A 
HETATM   16  C25 UNL     1      16.431  23.716  37.865  1.00  0.00     0.001 A 
HETATM   17  C26 UNL     1      16.068  24.998  38.215  1.00  0.00     0.001 A 
HETATM   18  C27 UNL     1      16.107  25.316  39.554  1.00  0.00     0.019 A 
HETATM   19  S1  UNL     1      16.676  24.360  42.198  1.00  0.00    -0.089 SA
ENDBRANCH  10  11
ENDBRANCH   3   5
BRANCH   2  20
HETATM   20  C2  UNL     1      12.716  22.248  43.851  1.00  0.00     0.103 C 
BRANCH  20  21
HETATM   21  C3  UNL     1      12.601  22.594  42.392  1.00  0.00     0.009 C 
BRANCH  21  22
HETATM   22  C4  UNL     1      13.491  21.747  41.552  1.00  0.00     0.000 C 
BRANCH  22  23
HETATM   23  C5  UNL     1      13.109  20.285  41.533  1.00  0.00     0.000 C 
BRANCH  23  24
HETATM   24  C6  UNL     1      12.942  19.881  40.103  1.00  0.00     0.000 C 
BRANCH  24  25
HETATM   25  C7  UNL     1      11.526  19.506  39.729  1.00  0.00     0.005 C 
BRANCH  25  26
HETATM   26  C8  UNL     1      11.368  19.503  38.247  1.00  0.00     0.038 C 
BRANCH  26  27
HETATM   27  C9  UNL     1      10.045  19.895  37.776  1.00  0.00    -0.058 A 
HETATM   28  C10 UNL     1       9.887  20.495  36.555  1.00  0.00     0.007 A 
HETATM   29  C11 UNL     1       8.637  20.876  36.087  1.00  0.00     0.001 A 
HETATM   30  C12 UNL     1       7.524  20.639  36.886  1.00  0.00     0.000 A 
HETATM   31  C13 UNL     1       7.658  20.036  38.119  1.00  0.00     0.001 A 
HETATM   32  C14 UNL     1       8.935  19.665  38.559  1.00  0.00     0.007 A 
ENDBRANCH  26  27
ENDBRANCH  25  26
ENDBRANCH  24  25
ENDBRANCH  23  24
ENDBRANCH  22  23
ENDBRANCH  21  22
ENDBRANCH  20  21
ENDBRANCH   2  20
TORSDOF 10
ENDMDL
MODEL 3
REMARK VINA RESULT: -9.326112256      1.700      2.567
REMARK  10 active torsions:
REMARK  status: ('A' for Active; 'I' for Inactive)
REMARK    1  A    between atoms: C1_2  and  C2_3 
REMARK       I    between atoms: C1_2  and  N1_16 
REMARK    2  A    between atoms: C2_3  and  C3_4 
REMARK    3  A    between atoms: C3_4  and  C4_5 
REMARK    4  A    between atoms: C4_5  and  C5_6 
REMARK    5  A    between atoms: C5_6  and  C6_7 
REMARK    6  A    between atoms: C6_7  and  C7_8 
REMARK    7  A    between atoms: C7_8  and  C8_9 
REMARK    8  A    between atoms: C8_9  and  C9_10 
REMARK    9  A    between atoms: N1_16  and  C15_18 
REMARK   10  A    between atoms: C20_23  and  C21_24 
ROOT
HETATM    1  O1  UNL     1      14.544  23.479  46.694  1.00  0.00    -0.273 OA
HETATM    2  C1  UNL     1      14.279  22.885  45.637  1.00  0.00     0.222 C 
HETATM    3  N1  UNL     1      15.265  22.225  44.896  1.00  0.00    -0.326 N 
ATOM      4  H1  UNL     1      14.938  21.777  44.040  1.00  0.00     0.169 HD
ENDROOT
BRANCH   3   5
HETATM    5  C15 UNL     1      16.651  22.088  45.160  1.00  0.00     0.046 A 
HETATM    6  C16 UNL     1      17.092  21.690  46.413  1.00  0.00     0.030 A 
HETATM    7  C17 UNL     1      18.421  21.416  46.609  1.00  0.00     0.002 A 
HETATM    8  C18 UNL     1      19.361  21.514  45.612  1.00  0.00     0.001 A 
HETATM    9  C19 UNL     1      18.892  21.911  44.393  1.00  0.00     0.015 A 
HETATM   10  C20 UNL     1      17.545  22.204  44.146  1.00  0.00     0.008 A 
BRANCH  10  11
HETATM   11  C21 UNL     1      17.259  22.760  42.811  1.00  0.00     0.019 A 
HETATM   12  C22 UNL     1      17.297  22.220  41.563  1.00  0.00     0.032 A 
HETATM   13  C23 UNL     1      16.887  23.002  40.528  1.00  0.00    -0.018 A 
HETATM   14  C24 UNL     1      16.839  22.661  39.158  1.00  0.00     0.013 A 
HETATM   15  C28 UNL     1      16.470  24.267  40.831  1.00  0.00     0.015 A 
HETATM   16  C25 UNL     1      16.402  23.553  38.215  1.00  0.00     0.001 A 
HETATM   17  C26 UNL     1      15.984  24.827  38.532  1.00  0.00     0.001 A 
HETATM   18  C27 UNL     1      16.020  25.185  39.861  1.00  0.00     0.019 A 
HETATM   19  S1  UNL     1      16.658  24.331  42.525  1.00  0.00    -0.089 SA
ENDBRANCH  10  11
ENDBRANCH   3   5
BRANCH   2  20
HETATM   20  C2  UNL     1      12.852  22.916  45.202  1.00  0.00     0.103 C 
BRANCH  20  21
HETATM   21  C3  UNL     1      12.662  22.135  43.932  1.00  0.00     0.009 C 
BRANCH  21  22
HETATM   22  C4  UNL     1      12.563  23.026  42.744  1.00  0.00     0.000 C 
BRANCH  22  23
HETATM   23  C5  UNL     1      13.396  22.575  41.567  1.00  0.00     0.000 C 
BRANCH  23  24
HETATM   24  C6  UNL     1      13.778  21.149  41.804  1.00  0.00     0.000 C 
BRANCH  24  25
HETATM   25  C7  UNL     1      13.590  20.252  40.600  1.00  0.00     0.005 C 
BRANCH  25  26
HETATM   26  C8  UNL     1      12.157  19.862  40.469  1.00  0.00     0.038 C 
BRANCH  26  27
HETATM   27  C9  UNL     1      11.745  19.510  39.116  1.00  0.00    -0.058 A 
HETATM   28  C10 UNL     1      12.652  19.011  38.217  1.00  0.00     0.007 A 
HETATM   29  C11 UNL     1      12.283  18.669  36.924  1.00  0.00     0.001 A 
HETATM   30  C12 UNL     1      10.958  18.842  36.540  1.00  0.00     0.000 A 
HETATM   31  C13 UNL     1      10.027  19.342  37.426  1.00  0.00     0.001 A 
HETATM   32  C14 UNL     1      10.436  19.677  38.724  1.00  0.00     0.007 A 
ENDBRANCH  26  27
ENDBRANCH  25  26
ENDBRANCH  24  25
ENDBRANCH  23  24
ENDBRANCH  22  23
ENDBRANCH  21  22
ENDBRANCH  20  21
ENDBRANCH   2  20
TORSDOF 10
ENDMDL
MODEL 4
REMARK VINA RESULT: -9.065286026      0.630      1.416
REMARK  10 active torsions:
REMARK  status: ('A' for Active; 'I' for Inactive)
REMARK    1  A    between atoms: C1_2  and  C2_3 
REMARK       I    between atoms: C1_2  and  N1_16 
REMARK    2  A    between atoms: C2_3  and  C3_4 
REMARK    3  A    between atoms: C3_4  and  C4_5 
REMARK    4  A    between atoms: C4_5  and  C5_6 
REMARK    5  A    between atoms: C5_6  and  C6_7 
REMARK    6  A    between atoms: C6_7  and  C7_8 
REMARK    7  A    between atoms: C7_8  and  C8_9 
REMARK    8  A    between atoms: C8_9  and  C9_10 
REMARK    9  A    between atoms: N1_16  and  C15_18 
REMARK   10  A    between atoms: C20_23  and  C21_24 
ROOT
HETATM    1  O1  UNL     1      13.939  22.846  44.343  1.00  0.00    -0.273 OA
HETATM    2  C1  UNL     1      14.046  21.802  43.680  1.00  0.00     0.222 C 
HETATM    3  N1  UNL     1      15.266  21.129  43.555  1.00  0.00    -0.326 N 
ATOM      4  H1  UNL     1      15.241  20.287  42.981  1.00  0.00     0.169 HD
ENDROOT
BRANCH   3   5
HETATM    5  C15 UNL     1      16.532  21.447  44.109  1.00  0.00     0.046 A 
HETATM    6  C16 UNL     1      16.949  20.856  45.292  1.00  0.00     0.030 A 
HETATM    7  C17 UNL     1      18.231  21.055  45.735  1.00  0.00     0.002 A 
HETATM    8  C18 UNL     1      19.147  21.823  45.058  1.00  0.00     0.001 A 
HETATM    9  C19 UNL     1      18.701  22.391  43.899  1.00  0.00     0.015 A 
HETATM   10  C20 UNL     1      17.400  22.218  43.409  1.00  0.00     0.008 A 
BRANCH  10  11
HETATM   11  C21 UNL     1      17.063  23.031  42.227  1.00  0.00     0.019 A 
HETATM   12  C22 UNL     1      16.864  24.366  42.055  1.00  0.00     0.032 A 
HETATM   13  C23 UNL     1      16.640  24.810  40.788  1.00  0.00    -0.018 A 
HETATM   14  C24 UNL     1      16.410  26.139  40.370  1.00  0.00     0.013 A 
HETATM   15  C28 UNL     1      16.635  23.874  39.793  1.00  0.00     0.015 A 
HETATM   16  C25 UNL     1      16.197  26.446  39.052  1.00  0.00     0.001 A 
HETATM   17  C26 UNL     1      16.193  25.493  38.057  1.00  0.00     0.001 A 
HETATM   18  C27 UNL     1      16.415  24.189  38.438  1.00  0.00     0.019 A 
HETATM   19  S1  UNL     1      16.936  22.423  40.638  1.00  0.00    -0.089 SA
ENDBRANCH  10  11
ENDBRANCH   3   5
BRANCH   2  20
HETATM   20  C2  UNL     1      12.801  21.308  43.023  1.00  0.00     0.103 C 
BRANCH  20  21
HETATM   21  C3  UNL     1      13.045  19.996  42.330  1.00  0.00     0.009 C 
BRANCH  21  22
HETATM   22  C4  UNL     1      13.138  20.159  40.853  1.00  0.00     0.000 C 
BRANCH  22  23
HETATM   23  C5  UNL     1      11.860  19.831  40.118  1.00  0.00     0.000 C 
BRANCH  23  24
HETATM   24  C6  UNL     1      12.237  19.254  38.792  1.00  0.00     0.000 C 
BRANCH  24  25
HETATM   25  C7  UNL     1      11.104  19.214  37.791  1.00  0.00     0.005 C 
BRANCH  25  26
HETATM   26  C8  UNL     1       9.878  19.828  38.377  1.00  0.00     0.038 C 
BRANCH  26  27
HETATM   27  C9  UNL     1       8.738  18.926  38.481  1.00  0.00    -0.058 A 
HETATM   28  C10 UNL     1       7.511  19.393  38.872  1.00  0.00     0.007 A 
HETATM   29  C11 UNL     1       6.411  18.553  38.979  1.00  0.00     0.001 A 
HETATM   30  C12 UNL     1       6.571  17.205  38.679  1.00  0.00     0.000 A 
HETATM   31  C13 UNL     1       7.796  16.711  38.284  1.00  0.00     0.001 A 
HETATM   32  C14 UNL     1       8.884  17.588  38.188  1.00  0.00     0.007 A 
ENDBRANCH  26  27
ENDBRANCH  25  26
ENDBRANCH  24  25
ENDBRANCH  23  24
ENDBRANCH  22  23
ENDBRANCH  21  22
ENDBRANCH  20  21
ENDBRANCH   2  20
TORSDOF 10
ENDMDL
MODEL 5
REMARK VINA RESULT: -8.965248971      1.329      1.935
REMARK  10 active torsions:
REMARK  status: ('A' for Active; 'I' for Inactive)
REMARK    1  A    between atoms: C1_2  and  C2_3 
REMARK       I    between atoms: C1_2  and  N1_16 
REMARK    2  A    between atoms: C2_3  and  C3_4 
REMARK    3  A    between atoms: C3_4  and  C4_5 
REMARK    4  A    between atoms: C4_5  and  C5_6 
REMARK    5  A    between atoms: C5_6  and  C6_7 
REMARK    6  A    between atoms: C6_7  and  C7_8 
REMARK    7  A    between atoms: C7_8  and  C8_9 
REMARK    8  A    between atoms: C8_9  and  C9_10 
REMARK    9  A    between atoms: N1_16  and  C15_18 
REMARK   10  A    between atoms: C20_23  and  C21_24 
ROOT
HETATM    1  O1  UNL     1      13.965  22.905  44.385  1.00  0.00    -0.273 OA
HETATM    2  C1  UNL     1      14.066  21.841  43.753  1.00  0.00     0.222 C 
HETATM    3  N1  UNL     1      15.278  21.149  43.663  1.00  0.00    -0.326 N 
ATOM      4  H1  UNL     1      15.249  20.291  43.113  1.00  0.00     0.169 HD
ENDROOT
BRANCH   3   5
HETATM    5  C15 UNL     1      16.541  21.466  44.225  1.00  0.00     0.046 A 
HETATM    6  C16 UNL     1      16.890  20.994  45.481  1.00  0.00     0.030 A 
HETATM    7  C17 UNL     1      18.166  21.180  45.945  1.00  0.00     0.002 A 
HETATM    8  C18 UNL     1      19.142  21.821  45.220  1.00  0.00     0.001 A 
HETATM    9  C19 UNL     1      18.763  22.274  43.989  1.00  0.00     0.015 A 
HETATM   10  C20 UNL     1      17.470  22.110  43.474  1.00  0.00     0.008 A 
BRANCH  10  11
HETATM   11  C21 UNL     1      17.212  22.798  42.196  1.00  0.00     0.019 A 
HETATM   12  C22 UNL     1      17.154  22.358  40.910  1.00  0.00     0.032 A 
HETATM   13  C23 UNL     1      16.807  23.260  39.953  1.00  0.00    -0.018 A 
HETATM   14  C24 UNL     1      16.683  23.035  38.564  1.00  0.00     0.013 A 
HETATM   15  C28 UNL     1      16.545  24.535  40.365  1.00  0.00     0.015 A 
HETATM   16  C25 UNL     1      16.324  24.043  37.707  1.00  0.00     0.001 A 
HETATM   17  C26 UNL     1      16.062  25.325  38.135  1.00  0.00     0.001 A 
HETATM   18  C27 UNL     1      16.176  25.571  39.485  1.00  0.00     0.019 A 
HETATM   19  S1  UNL     1      16.786  24.443  42.052  1.00  0.00    -0.089 SA
ENDBRANCH  10  11
ENDBRANCH   3   5
BRANCH   2  20
HETATM   20  C2  UNL     1      12.822  21.344  43.096  1.00  0.00     0.103 C 
BRANCH  20  21
HETATM   21  C3  UNL     1      13.072  20.037  42.396  1.00  0.00     0.009 C 
BRANCH  21  22
HETATM   22  C4  UNL     1      13.237  20.217  40.928  1.00  0.00     0.000 C 
BRANCH  22  23
HETATM   23  C5  UNL     1      12.031  19.801  40.119  1.00  0.00     0.000 C 
BRANCH  23  24
HETATM   24  C6  UNL     1      12.526  19.259  38.817  1.00  0.00     0.000 C 
BRANCH  24  25
HETATM   25  C7  UNL     1      11.460  19.145  37.750  1.00  0.00     0.005 C 
BRANCH  25  26
HETATM   26  C8  UNL     1      10.193  19.775  38.220  1.00  0.00     0.038 C 
BRANCH  26  27
HETATM   27  C9  UNL     1       9.365  20.337  37.160  1.00  0.00    -0.058 A 
HETATM   28  C10 UNL     1       8.001  20.375  37.284  1.00  0.00     0.007 A 
HETATM   29  C11 UNL     1       7.193  20.905  36.288  1.00  0.00     0.001 A 
HETATM   30  C12 UNL     1       7.794  21.407  35.139  1.00  0.00     0.000 A 
HETATM   31  C13 UNL     1       9.164  21.381  34.991  1.00  0.00     0.001 A 
HETATM   32  C14 UNL     1       9.949  20.838  36.017  1.00  0.00     0.007 A 
ENDBRANCH  26  27
ENDBRANCH  25  26
ENDBRANCH  24  25
ENDBRANCH  23  24
ENDBRANCH  22  23
ENDBRANCH  21  22
ENDBRANCH  20  21
ENDBRANCH   2  20
TORSDOF 10
ENDMDL
