MODEL 1
REMARK VINA RESULT: -4.453248311      0.000      0.000
REMARK  2 active torsions:
REMARK  status: ('A' for Active; 'I' for Inactive)
REMARK    1  A    between atoms: C2_2  and  C5_5 
REMARK    2  A    between atoms: C7_7  and  N1_8 
ROOT
HETATM    1  C5  UNL     1       5.067  -6.442  29.467  1.00  0.00     0.025 A 
HETATM    2  C6  UNL     1       6.182  -7.111  28.777  1.00  0.00     0.040 A 
HETATM    3  C7  UNL     1       6.326  -6.618  30.209  1.00  0.00     0.188 A 
ENDROOT
BRANCH   1   4
HETATM    4  C2  UNL     1       4.593  -5.139  28.942  1.00  0.00    -0.046 C 
HETATM    5  C1  UNL     1       4.698  -4.001  29.934  1.00  0.00     0.015 C 
HETATM    6  C3  UNL     1       5.448  -4.732  27.736  1.00  0.00     0.015 C 
HETATM    7  C4  UNL     1       3.161  -5.160  28.461  1.00  0.00     0.015 C 
ENDBRANCH   1   4
BRANCH   3   8
HETATM    8  N1  UNL     1       6.410  -7.677  31.208  1.00  0.00    -0.075 N 
ATOM      9  H13 UNL     1       5.483  -8.081  31.338  1.00  0.00     0.274 HD
ATOM     10  H12 UNL     1       6.916  -8.467  30.809  1.00  0.00     0.274 HD
ATOM     11  H11 UNL     1       6.807  -7.458  32.122  1.00  0.00     0.274 HD
ENDBRANCH   3   8
TORSDOF 2
ENDMDL
MODEL 2
REMARK VINA RESULT: -4.443984168      0.190      1.478
REMARK  2 active torsions:
REMARK  status: ('A' for Active; 'I' for Inactive)
REMARK    1  A    between atoms: C2_2  and  C5_5 
REMARK    2  A    between atoms: C7_7  and  N1_8 
ROOT
HETATM    1  C5  UNL     1       5.150  -6.567  29.486  1.00  0.00     0.025 A 
HETATM    2  C6  UNL     1       6.309  -7.243  28.881  1.00  0.00     0.040 A 
HETATM    3  C7  UNL     1       6.347  -6.756  30.322  1.00  0.00     0.188 A 
ENDROOT
BRANCH   1   4
HETATM    4  C2  UNL     1       4.729  -5.258  28.931  1.00  0.00    -0.046 C 
HETATM    5  C1  UNL     1       3.269  -5.198  28.536  1.00  0.00     0.015 C 
HETATM    6  C3  UNL     1       4.930  -4.165  29.986  1.00  0.00     0.015 C 
HETATM    7  C4  UNL     1       5.521  -4.828  27.717  1.00  0.00     0.015 C 
ENDBRANCH   1   4
BRANCH   3   8
HETATM    8  N1  UNL     1       6.344  -7.819  31.320  1.00  0.00    -0.075 N 
ATOM      9  H13 UNL     1       6.967  -8.565  31.009  1.00  0.00     0.274 HD
ATOM     10  H12 UNL     1       6.830  -7.491  32.154  1.00  0.00     0.274 HD
ATOM     11  H11 UNL     1       5.451  -8.229  31.598  1.00  0.00     0.274 HD
ENDBRANCH   3   8
TORSDOF 2
ENDMDL
MODEL 3
REMARK VINA RESULT: -4.426319275      0.060      1.485
REMARK  2 active torsions:
REMARK  status: ('A' for Active; 'I' for Inactive)
REMARK    1  A    between atoms: C2_2  and  C5_5 
REMARK    2  A    between atoms: C7_7  and  N1_8 
ROOT
HETATM    1  C5  UNL     1       5.077  -6.433  29.467  1.00  0.00     0.025 A 
HETATM    2  C6  UNL     1       6.188  -7.130  28.797  1.00  0.00     0.040 A 
HETATM    3  C7  UNL     1       6.312  -6.655  30.238  1.00  0.00     0.188 A 
ENDROOT
BRANCH   1   4
HETATM    4  C2  UNL     1       4.658  -5.110  28.944  1.00  0.00    -0.046 C 
HETATM    5  C1  UNL     1       5.458  -4.640  27.748  1.00  0.00     0.015 C 
HETATM    6  C3  UNL     1       3.199  -5.182  28.479  1.00  0.00     0.015 C 
HETATM    7  C4  UNL     1       4.723  -4.001  29.969  1.00  0.00     0.015 C 
ENDBRANCH   1   4
BRANCH   3   8
HETATM    8  N1  UNL     1       6.337  -7.726  31.227  1.00  0.00    -0.075 N 
ATOM      9  H13 UNL     1       6.880  -7.418  32.033  1.00  0.00     0.274 HD
ATOM     10  H12 UNL     1       5.408  -7.818  31.638  1.00  0.00     0.274 HD
ATOM     11  H11 UNL     1       6.664  -8.650  30.941  1.00  0.00     0.274 HD
ENDBRANCH   3   8
TORSDOF 2
ENDMDL
MODEL 4
REMARK VINA RESULT: -4.203251898      2.438      3.145
REMARK  2 active torsions:
REMARK  status: ('A' for Active; 'I' for Inactive)
REMARK    1  A    between atoms: C2_2  and  C5_5 
REMARK    2  A    between atoms: C7_7  and  N1_8 
ROOT
HETATM    1  C5  UNL     1       5.651  -4.241  29.407  1.00  0.00     0.025 A 
HETATM    2  C6  UNL     1       6.817  -4.372  30.297  1.00  0.00     0.040 A 
HETATM    3  C7  UNL     1       6.948  -3.749  28.915  1.00  0.00     0.188 A 
ENDROOT
BRANCH   1   4
HETATM    4  C2  UNL     1       4.997  -5.478  28.917  1.00  0.00    -0.046 C 
HETATM    5  C1  UNL     1       5.490  -5.938  27.562  1.00  0.00     0.015 C 
HETATM    6  C3  UNL     1       5.284  -6.629  29.888  1.00  0.00     0.015 C 
HETATM    7  C4  UNL     1       3.493  -5.373  28.815  1.00  0.00     0.015 C 
ENDBRANCH   1   4
BRANCH   3   8
HETATM    8  N1  UNL     1       7.201  -2.313  28.920  1.00  0.00    -0.075 N 
ATOM      9  H13 UNL     1       6.916  -1.932  29.822  1.00  0.00     0.274 HD
ATOM     10  H12 UNL     1       8.208  -2.156  28.948  1.00  0.00     0.274 HD
ATOM     11  H11 UNL     1       6.798  -1.741  28.178  1.00  0.00     0.274 HD
ENDBRANCH   3   8
TORSDOF 2
ENDMDL
MODEL 5
REMARK VINA RESULT: -4.174839000      2.327      3.055
REMARK  2 active torsions:
REMARK  status: ('A' for Active; 'I' for Inactive)
REMARK    1  A    between atoms: C2_2  and  C5_5 
REMARK    2  A    between atoms: C7_7  and  N1_8 
ROOT
HETATM    1  C5  UNL     1       6.619  -4.606  29.177  1.00  0.00     0.025 A 
HETATM    2  C6  UNL     1       6.876  -3.620  28.114  1.00  0.00     0.040 A 
HETATM    3  C7  UNL     1       6.475  -3.180  29.515  1.00  0.00     0.188 A 
ENDROOT
BRANCH   1   4
HETATM    4  C2  UNL     1       5.474  -5.535  29.014  1.00  0.00    -0.046 C 
HETATM    5  C1  UNL     1       4.121  -4.874  29.161  1.00  0.00     0.015 C 
HETATM    6  C3  UNL     1       5.501  -6.140  27.606  1.00  0.00     0.015 C 
HETATM    7  C4  UNL     1       5.492  -6.699  29.978  1.00  0.00     0.015 C 
ENDBRANCH   1   4
BRANCH   3   8
HETATM    8  N1  UNL     1       7.538  -2.529  30.271  1.00  0.00    -0.075 N 
ATOM      9  H13 UNL     1       7.905  -3.187  30.959  1.00  0.00     0.274 HD
ATOM     10  H12 UNL     1       8.349  -2.408  29.663  1.00  0.00     0.274 HD
ATOM     11  H11 UNL     1       7.338  -1.643  30.735  1.00  0.00     0.274 HD
ENDBRANCH   3   8
TORSDOF 2
ENDMDL
