MODEL 1
REMARK VINA RESULT: -4.186463888      0.000      0.000
REMARK  1 active torsions:
REMARK  status: ('A' for Active; 'I' for Inactive)
REMARK    1  A    between atoms: C2_2  and  N1_3 
ROOT
HETATM    1  N1  UNL     1       2.045   2.036  33.358  1.00  0.00     0.095 N 
HETATM    2  C3  UNL     1       2.470   2.655  34.589  1.00  0.00     0.292 C 
HETATM    3  C4  UNL     1       3.951   2.709  34.769  1.00  0.00     0.144 C 
HETATM    4  N2  UNL     1       4.685   1.639  34.184  1.00  0.00    -0.417 N 
ATOM      5  H2  UNL     1       5.513   1.245  34.630  1.00  0.00     0.153 HD
HETATM    6  C5  UNL     1       4.197   1.149  32.944  1.00  0.00     0.149 C 
HETATM    7  C6  UNL     1       3.135   2.124  32.426  1.00  0.00     0.236 C 
HETATM    8  C7  UNL     1       2.766   1.851  31.009  1.00  0.00     0.044 C 
ENDROOT
BRANCH   1   9
HETATM    9  C2  UNL     1       0.807   2.580  32.860  1.00  0.00     0.268 C 
HETATM   10  C1  UNL     1       0.251   3.461  33.991  1.00  0.00     0.037 C 
ENDBRANCH   1   9
TORSDOF 1
ENDMDL
MODEL 2
REMARK VINA RESULT: -4.085743669      7.855      9.121
REMARK  1 active torsions:
REMARK  status: ('A' for Active; 'I' for Inactive)
REMARK    1  A    between atoms: C2_2  and  N1_3 
ROOT
HETATM    1  N1  UNL     1       6.435  -5.085  29.496  1.00  0.00     0.095 N 
HETATM    2  C3  UNL     1       7.001  -4.219  30.499  1.00  0.00     0.292 C 
HETATM    3  C4  UNL     1       7.109  -2.788  30.086  1.00  0.00     0.144 C 
HETATM    4  N2  UNL     1       7.328  -2.560  28.698  1.00  0.00    -0.417 N 
ATOM      5  H2  UNL     1       7.922  -1.802  28.363  1.00  0.00     0.153 HD
HETATM    6  C5  UNL     1       6.671  -3.449  27.806  1.00  0.00     0.149 C 
HETATM    7  C6  UNL     1       5.655  -4.270  28.606  1.00  0.00     0.236 C 
HETATM    8  C7  UNL     1       4.725  -5.027  27.721  1.00  0.00     0.044 C 
ENDROOT
BRANCH   1   9
HETATM    9  C2  UNL     1       5.705  -6.190  30.063  1.00  0.00     0.268 C 
HETATM   10  C1  UNL     1       6.556  -7.441  29.789  1.00  0.00     0.037 C 
ENDBRANCH   1   9
TORSDOF 1
ENDMDL
MODEL 3
REMARK VINA RESULT: -4.077530548      1.505      3.241
REMARK  1 active torsions:
REMARK  status: ('A' for Active; 'I' for Inactive)
REMARK    1  A    between atoms: C2_2  and  N1_3 
ROOT
HETATM    1  N1  UNL     1       3.947   1.536  32.844  1.00  0.00     0.095 N 
HETATM    2  C3  UNL     1       4.576   1.906  34.087  1.00  0.00     0.292 C 
HETATM    3  C4  UNL     1       3.620   2.194  35.198  1.00  0.00     0.144 C 
HETATM    4  N2  UNL     1       2.365   2.742  34.808  1.00  0.00    -0.417 N 
ATOM      5  H2  UNL     1       1.885   3.442  35.372  1.00  0.00     0.153 HD
HETATM    6  C5  UNL     1       1.822   2.257  33.589  1.00  0.00     0.149 C 
HETATM    7  C6  UNL     1       2.636   1.035  33.152  1.00  0.00     0.236 C 
HETATM    8  C7  UNL     1       1.977   0.291  32.042  1.00  0.00     0.044 C 
ENDROOT
BRANCH   1   9
HETATM    9  C2  UNL     1       4.749   0.629  32.063  1.00  0.00     0.268 C 
HETATM   10  C1  UNL     1       6.107   0.547  32.778  1.00  0.00     0.037 C 
ENDBRANCH   1   9
TORSDOF 1
ENDMDL
MODEL 4
REMARK VINA RESULT: -4.052045886      8.171      8.964
REMARK  1 active torsions:
REMARK  status: ('A' for Active; 'I' for Inactive)
REMARK    1  A    between atoms: C2_2  and  N1_3 
ROOT
HETATM    1  N1  UNL     1       5.456  -4.389  28.428  1.00  0.00     0.095 N 
HETATM    2  C3  UNL     1       5.995  -3.405  27.523  1.00  0.00     0.292 C 
HETATM    3  C4  UNL     1       7.270  -2.779  27.985  1.00  0.00     0.144 C 
HETATM    4  N2  UNL     1       7.422  -2.654  29.395  1.00  0.00    -0.417 N 
ATOM      5  H2  UNL     1       7.882  -1.849  29.819  1.00  0.00     0.153 HD
HETATM    6  C5  UNL     1       6.896  -3.715  30.178  1.00  0.00     0.149 C 
HETATM    7  C6  UNL     1       6.537  -4.873  29.241  1.00  0.00     0.236 C 
HETATM    8  C7  UNL     1       6.242  -6.128  29.988  1.00  0.00     0.044 C 
ENDROOT
BRANCH   1   9
HETATM    9  C2  UNL     1       4.727  -5.430  27.748  1.00  0.00     0.268 C 
HETATM   10  C1  UNL     1       3.249  -5.010  27.799  1.00  0.00     0.037 C 
ENDBRANCH   1   9
TORSDOF 1
ENDMDL
MODEL 5
REMARK VINA RESULT: -4.047733676      6.560      7.928
REMARK  1 active torsions:
REMARK  status: ('A' for Active; 'I' for Inactive)
REMARK    1  A    between atoms: C2_2  and  N1_3 
ROOT
HETATM    1  N1  UNL     1       9.013  -1.294  33.937  1.00  0.00     0.095 N 
HETATM    2  C3  UNL     1       7.749  -1.044  33.290  1.00  0.00     0.292 C 
HETATM    3  C4  UNL     1       7.438  -1.978  32.167  1.00  0.00     0.144 C 
HETATM    4  N2  UNL     1       8.559  -2.468  31.441  1.00  0.00    -0.417 N 
ATOM      5  H2  UNL     1       8.524  -2.623  30.434  1.00  0.00     0.153 HD
HETATM    6  C5  UNL     1       9.731  -2.728  32.199  1.00  0.00     0.149 C 
HETATM    7  C6  UNL     1       9.367  -2.665  33.686  1.00  0.00     0.236 C 
HETATM    8  C7  UNL     1      10.455  -3.196  34.553  1.00  0.00     0.044 C 
ENDROOT
BRANCH   1   9
HETATM    9  C2  UNL     1       9.003  -0.942  35.334  1.00  0.00     0.268 C 
HETATM   10  C1  UNL     1       9.166   0.586  35.383  1.00  0.00     0.037 C 
ENDBRANCH   1   9
TORSDOF 1
ENDMDL
