MODEL 1
REMARK VINA RESULT: -6.574597312      0.000      0.000
REMARK  2 active torsions:
REMARK  status: ('A' for Active; 'I' for Inactive)
REMARK    1  A    between atoms: C2_2  and  N1_4 
REMARK    2  A    between atoms: N1_4  and  C5_6 
ROOT
HETATM    1  C5  UNL     1      -8.761 -25.106  18.031  1.00  0.00     0.148 A 
HETATM    2  N2  UNL     1      -8.334 -26.259  18.484  1.00  0.00    -0.321 N 
ATOM      3  H2  UNL     1      -7.500 -26.291  19.070  1.00  0.00     0.169 HD
HETATM    4  C6  UNL     1      -8.965 -27.379  18.191  1.00  0.00     0.134 A 
HETATM    5  C7  UNL     1     -10.078 -27.258  17.396  1.00  0.00     0.057 A 
HETATM    6  S1  UNL     1     -10.136 -25.569  17.130  1.00  0.00    -0.053 SA
HETATM    7  C8  UNL     1     -10.945 -28.376  16.934  1.00  0.00     0.282 C 
HETATM    8  N3  UNL     1     -10.328 -28.938  15.762  1.00  0.00    -0.070 N 
ATOM      9  H31 UNL     1      -9.327 -28.739  15.754  1.00  0.00     0.277 HD
ATOM     10  H32 UNL     1     -10.612 -28.426  14.927  1.00  0.00     0.277 HD
HETATM   11  C9  UNL     1     -10.562 -30.342  15.595  1.00  0.00     0.242 C 
HETATM   12  C10 UNL     1      -9.315 -30.978  15.019  1.00  0.00     0.101 C 
HETATM   13  S2  UNL     1      -8.988 -32.618  15.669  1.00  0.00    -0.167 SA
HETATM   14  C11 UNL     1      -8.692 -32.623  17.435  1.00  0.00     0.075 C 
HETATM   15  C12 UNL     1      -8.246 -31.278  17.983  1.00  0.00     0.028 C 
HETATM   16  C13 UNL     1      -9.135 -30.931  19.124  1.00  0.00     0.136 C 
HETATM   17  N4  UNL     1      -9.373 -29.557  19.365  1.00  0.00    -0.140 NA
HETATM   18  N5  UNL     1      -8.533 -28.691  18.662  1.00  0.00    -0.288 N 
ATOM     19  H5  UNL     1      -7.577 -28.987  18.468  1.00  0.00     0.184 HD
ENDROOT
BRANCH   1  20
HETATM   20  N1  UNL     1      -8.252 -23.782  18.218  1.00  0.00    -0.362 N 
HETATM   21  C4  UNL     1      -7.706 -23.415  19.496  1.00  0.00     0.152 C 
BRANCH  20  22
HETATM   22  C2  UNL     1      -8.292 -22.838  17.149  1.00  0.00     0.077 C 
HETATM   23  C1  UNL     1      -7.799 -21.466  17.621  1.00  0.00     0.032 C 
HETATM   24  C3  UNL     1      -7.396 -23.216  15.992  1.00  0.00     0.032 C 
ENDBRANCH  20  22
ENDBRANCH   1  20
TORSDOF 2
ENDMDL
MODEL 2
REMARK VINA RESULT: -6.381286725      1.810      2.238
REMARK  2 active torsions:
REMARK  status: ('A' for Active; 'I' for Inactive)
REMARK    1  A    between atoms: C2_2  and  N1_4 
REMARK    2  A    between atoms: N1_4  and  C5_6 
ROOT
HETATM    1  C5  UNL     1      -9.119 -27.220  18.062  1.00  0.00     0.148 A 
HETATM    2  N2  UNL     1      -8.543 -28.294  18.542  1.00  0.00    -0.321 N 
ATOM      3  H2  UNL     1      -7.659 -28.209  19.045  1.00  0.00     0.169 HD
HETATM    4  C6  UNL     1      -9.089 -29.484  18.386  1.00  0.00     0.134 A 
HETATM    5  C7  UNL     1     -10.277 -29.521  17.699  1.00  0.00     0.057 A 
HETATM    6  S1  UNL     1     -10.520 -27.867  17.333  1.00  0.00    -0.053 SA
HETATM    7  C8  UNL     1     -11.072 -30.742  17.397  1.00  0.00     0.282 C 
HETATM    8  N3  UNL     1     -10.515 -31.330  16.208  1.00  0.00    -0.070 N 
ATOM      9  H31 UNL     1      -9.544 -31.044  16.088  1.00  0.00     0.277 HD
ATOM     10  H32 UNL     1     -10.924 -30.908  15.374  1.00  0.00     0.277 HD
HETATM   11  C9  UNL     1     -10.629 -32.758  16.155  1.00  0.00     0.242 C 
HETATM   12  C10 UNL     1      -9.386 -33.321  15.500  1.00  0.00     0.101 C 
HETATM   13  S2  UNL     1      -8.845 -34.874  16.218  1.00  0.00    -0.167 SA
HETATM   14  C11 UNL     1      -8.388 -34.724  17.943  1.00  0.00     0.075 C 
HETATM   15  C12 UNL     1      -8.023 -33.309  18.357  1.00  0.00     0.028 C 
HETATM   16  C13 UNL     1      -8.832 -32.960  19.556  1.00  0.00     0.136 C 
HETATM   17  N4  UNL     1      -9.176 -31.599  19.731  1.00  0.00    -0.140 NA
HETATM   18  N5  UNL     1      -8.492 -30.715  18.894  1.00  0.00    -0.288 N 
ATOM     19  H5  UNL     1      -7.534 -30.938  18.626  1.00  0.00     0.184 HD
ENDROOT
BRANCH   1  20
HETATM   20  N1  UNL     1      -8.723 -25.845  18.113  1.00  0.00    -0.362 N 
HETATM   21  C4  UNL     1      -7.816 -25.416  19.141  1.00  0.00     0.152 C 
BRANCH  20  22
HETATM   22  C2  UNL     1      -9.229 -24.915  17.157  1.00  0.00     0.077 C 
HETATM   23  C1  UNL     1      -9.878 -23.718  17.859  1.00  0.00     0.032 C 
HETATM   24  C3  UNL     1      -8.153 -24.332  16.271  1.00  0.00     0.032 C 
ENDBRANCH  20  22
ENDBRANCH   1  20
TORSDOF 2
ENDMDL
MODEL 3
REMARK VINA RESULT: -6.294209805      1.870      2.514
REMARK  2 active torsions:
REMARK  status: ('A' for Active; 'I' for Inactive)
REMARK    1  A    between atoms: C2_2  and  N1_4 
REMARK    2  A    between atoms: N1_4  and  C5_6 
ROOT
HETATM    1  C5  UNL     1      -7.940 -24.218  16.761  1.00  0.00     0.148 A 
HETATM    2  N2  UNL     1      -7.544 -25.337  16.206  1.00  0.00    -0.321 N 
ATOM      3  H2  UNL     1      -6.898 -25.306  15.418  1.00  0.00     0.169 HD
HETATM    4  C6  UNL     1      -7.969 -26.503  16.652  1.00  0.00     0.134 A 
HETATM    5  C7  UNL     1      -8.837 -26.466  17.714  1.00  0.00     0.057 A 
HETATM    6  S1  UNL     1      -8.978 -24.784  17.992  1.00  0.00    -0.053 SA
HETATM    7  C8  UNL     1      -9.449 -27.647  18.381  1.00  0.00     0.282 C 
HETATM    8  N3  UNL     1     -10.609 -28.018  17.614  1.00  0.00    -0.070 N 
ATOM      9  H31 UNL     1     -10.523 -27.685  16.653  1.00  0.00     0.277 HD
ATOM     10  H32 UNL     1     -11.422 -27.479  17.911  1.00  0.00     0.277 HD
HETATM   11  C9  UNL     1     -10.899 -29.421  17.635  1.00  0.00     0.242 C 
HETATM   12  C10 UNL     1     -11.423 -29.830  16.275  1.00  0.00     0.101 C 
HETATM   13  S2  UNL     1     -10.875 -31.461  15.764  1.00  0.00    -0.167 SA
HETATM   14  C11 UNL     1      -9.097 -31.577  15.590  1.00  0.00     0.075 C 
HETATM   15  C12 UNL     1      -8.414 -30.237  15.375  1.00  0.00     0.028 C 
HETATM   16  C13 UNL     1      -7.324 -30.112  16.379  1.00  0.00     0.136 C 
HETATM   17  N4  UNL     1      -6.999 -28.809  16.825  1.00  0.00    -0.140 NA
HETATM   18  N5  UNL     1      -7.567 -27.780  16.071  1.00  0.00    -0.288 N 
ATOM     19  H5  UNL     1      -7.706 -27.926  15.071  1.00  0.00     0.184 HD
ENDROOT
BRANCH   1  20
HETATM   20  N1  UNL     1      -7.613 -22.858  16.458  1.00  0.00    -0.362 N 
HETATM   21  C4  UNL     1      -7.002 -22.549  15.195  1.00  0.00     0.152 C 
BRANCH  20  22
HETATM   22  C2  UNL     1      -7.887 -21.825  17.403  1.00  0.00     0.077 C 
HETATM   23  C1  UNL     1      -6.676 -20.899  17.558  1.00  0.00     0.032 C 
HETATM   24  C3  UNL     1      -9.032 -20.930  16.987  1.00  0.00     0.032 C 
ENDBRANCH  20  22
ENDBRANCH   1  20
TORSDOF 2
ENDMDL
MODEL 4
REMARK VINA RESULT: -6.284008815      1.662      2.547
REMARK  2 active torsions:
REMARK  status: ('A' for Active; 'I' for Inactive)
REMARK    1  A    between atoms: C2_2  and  N1_4 
REMARK    2  A    between atoms: N1_4  and  C5_6 
ROOT
HETATM    1  C5  UNL     1      -7.901 -24.994  18.011  1.00  0.00     0.148 A 
HETATM    2  N2  UNL     1      -7.898 -25.926  17.091  1.00  0.00    -0.321 N 
ATOM      3  H2  UNL     1      -7.903 -25.661  16.106  1.00  0.00     0.169 HD
HETATM    4  C6  UNL     1      -7.889 -27.203  17.419  1.00  0.00     0.134 A 
HETATM    5  C7  UNL     1      -7.884 -27.484  18.762  1.00  0.00     0.057 A 
HETATM    6  S1  UNL     1      -7.892 -25.916  19.447  1.00  0.00    -0.053 SA
HETATM    7  C8  UNL     1      -7.877 -28.844  19.369  1.00  0.00     0.282 C 
HETATM    8  N3  UNL     1      -9.241 -29.299  19.411  1.00  0.00    -0.070 N 
ATOM      9  H31 UNL     1      -9.802 -28.816  18.709  1.00  0.00     0.277 HD
ATOM     10  H32 UNL     1      -9.703 -28.967  20.258  1.00  0.00     0.277 HD
HETATM   11  C9  UNL     1      -9.388 -30.718  19.281  1.00  0.00     0.242 C 
HETATM   12  C10 UNL     1     -10.637 -31.007  18.477  1.00  0.00     0.101 C 
HETATM   13  S2  UNL     1     -10.466 -32.416  17.379  1.00  0.00    -0.167 SA
HETATM   14  C11 UNL     1      -9.202 -32.180  16.133  1.00  0.00     0.075 C 
HETATM   15  C12 UNL     1      -8.874 -30.722  15.863  1.00  0.00     0.028 C 
HETATM   16  C13 UNL     1      -7.401 -30.553  15.985  1.00  0.00     0.136 C 
HETATM   17  N4  UNL     1      -6.927 -29.295  16.424  1.00  0.00    -0.140 NA
HETATM   18  N5  UNL     1      -7.890 -28.284  16.439  1.00  0.00    -0.288 N 
ATOM     19  H5  UNL     1      -8.627 -28.302  15.733  1.00  0.00     0.184 HD
ENDROOT
BRANCH   1  20
HETATM   20  N1  UNL     1      -7.904 -23.567  17.896  1.00  0.00    -0.362 N 
HETATM   21  C4  UNL     1      -7.605 -22.771  19.053  1.00  0.00     0.152 C 
BRANCH  20  22
HETATM   22  C2  UNL     1      -8.207 -22.948  16.647  1.00  0.00     0.077 C 
HETATM   23  C1  UNL     1      -8.703 -21.514  16.862  1.00  0.00     0.032 C 
HETATM   24  C3  UNL     1      -7.006 -22.830  15.738  1.00  0.00     0.032 C 
ENDBRANCH  20  22
ENDBRANCH   1  20
TORSDOF 2
ENDMDL
MODEL 5
REMARK VINA RESULT: -6.168378982      2.761      3.996
REMARK  2 active torsions:
REMARK  status: ('A' for Active; 'I' for Inactive)
REMARK    1  A    between atoms: C2_2  and  N1_4 
REMARK    2  A    between atoms: N1_4  and  C5_6 
ROOT
HETATM    1  C5  UNL     1      -9.100 -27.495  18.255  1.00  0.00     0.148 A 
HETATM    2  N2  UNL     1     -10.054 -27.856  17.433  1.00  0.00    -0.321 N 
ATOM      3  H2  UNL     1     -10.513 -27.152  16.855  1.00  0.00     0.169 HD
HETATM    4  C6  UNL     1     -10.429 -29.117  17.342  1.00  0.00     0.134 A 
HETATM    5  C7  UNL     1      -9.768 -30.007  18.151  1.00  0.00     0.057 A 
HETATM    6  S1  UNL     1      -8.670 -28.983  18.971  1.00  0.00    -0.053 SA
HETATM    7  C8  UNL     1     -10.019 -31.472  18.224  1.00  0.00     0.282 C 
HETATM    8  N3  UNL     1     -11.122 -31.671  19.127  1.00  0.00    -0.070 N 
ATOM      9  H31 UNL     1     -11.694 -30.829  19.184  1.00  0.00     0.277 HD
ATOM     10  H32 UNL     1     -10.792 -31.721  20.090  1.00  0.00     0.277 HD
HETATM   11  C9  UNL     1     -11.934 -32.810  18.814  1.00  0.00     0.242 C 
HETATM   12  C10 UNL     1     -13.378 -32.476  19.120  1.00  0.00     0.101 C 
HETATM   13  S2  UNL     1     -14.536 -33.188  17.949  1.00  0.00    -0.167 SA
HETATM   14  C11 UNL     1     -14.303 -32.583  16.280  1.00  0.00     0.075 C 
HETATM   15  C12 UNL     1     -13.584 -31.247  16.209  1.00  0.00     0.028 C 
HETATM   16  C13 UNL     1     -12.440 -31.392  15.269  1.00  0.00     0.136 C 
HETATM   17  N4  UNL     1     -11.298 -30.592  15.509  1.00  0.00    -0.140 NA
HETATM   18  N5  UNL     1     -11.488 -29.577  16.449  1.00  0.00    -0.288 N 
ATOM     19  H5  UNL     1     -12.406 -29.137  16.514  1.00  0.00     0.184 HD
ENDROOT
BRANCH   1  20
HETATM   20  N1  UNL     1      -8.529 -26.209  18.517  1.00  0.00    -0.362 N 
HETATM   21  C4  UNL     1      -7.605 -26.061  19.607  1.00  0.00     0.152 C 
BRANCH  20  22
HETATM   22  C2  UNL     1      -8.880 -25.088  17.706  1.00  0.00     0.077 C 
HETATM   23  C1  UNL     1      -8.712 -23.781  18.489  1.00  0.00     0.032 C 
HETATM   24  C3  UNL     1      -8.004 -24.944  16.483  1.00  0.00     0.032 C 
ENDBRANCH  20  22
ENDBRANCH   1  20
TORSDOF 2
ENDMDL
