MODEL 1
REMARK VINA RESULT: -7.341400827      0.000      0.000
REMARK  8 active torsions:
REMARK  status: ('A' for Active; 'I' for Inactive)
REMARK       I    between atoms: C2_2  and  N1_4 
REMARK    1  A    between atoms: C8_10  and  C9_11 
REMARK    2  A    between atoms: C9_11  and  C10_12 
REMARK       I    between atoms: C10_12  and  N2_14 
REMARK    3  A    between atoms: N2_14  and  C11_16 
REMARK    4  A    between atoms: C11_16  and  C12_17 
REMARK    5  A    between atoms: C12_17  and  N3_18 
REMARK       I    between atoms: N3_18  and  C13_20 
REMARK    6  A    between atoms: C13_20  and  C14_22 
REMARK       I    between atoms: C14_22  and  N4_24 
REMARK    7  A    between atoms: N4_24  and  C15_26 
REMARK    8  A    between atoms: C15_26  and  C16_27 
ROOT
HETATM    1  N3  UNL     1       2.050   6.431  22.537  1.00  0.00    -0.351 N 
ATOM      2  H3  UNL     1       1.632   5.536  22.789  1.00  0.00     0.162 HD
HETATM    3  C13 UNL     1       3.055   6.480  21.541  1.00  0.00     0.309 C 
HETATM    4  O3  UNL     1       3.588   7.571  21.212  1.00  0.00    -0.262 OA
ENDROOT
BRANCH   1   5
HETATM    5  C12 UNL     1       1.605   7.650  23.207  1.00  0.00     0.143 C 
BRANCH   5   6
HETATM    6  C11 UNL     1       2.298   7.704  24.550  1.00  0.00     0.142 C 
BRANCH   6   7
HETATM    7  N2  UNL     1       3.695   7.367  24.451  1.00  0.00    -0.359 N 
HETATM    8  C10 UNL     1       4.735   8.272  24.789  1.00  0.00     0.219 C 
HETATM    9  O2  UNL     1       4.397   9.417  25.192  1.00  0.00    -0.274 OA
ATOM     10  H2  UNL     1       3.949   6.435  24.123  1.00  0.00     0.162 HD
BRANCH   8  11
HETATM   11  C9  UNL     1       6.172   7.875  24.670  1.00  0.00     0.128 C 
BRANCH  11  12
HETATM   12  C8  UNL     1       6.718   8.239  23.343  1.00  0.00     0.096 C 
HETATM   13  N1  UNL     1       8.036   8.800  23.290  1.00  0.00    -0.347 N 
HETATM   14  C2  UNL     1       9.040   8.453  24.220  1.00  0.00     0.216 C 
HETATM   15  C3  UNL     1       8.456   9.781  22.263  1.00  0.00     0.126 C 
HETATM   16  C1  UNL     1      10.391   9.089  24.104  1.00  0.00     0.117 C 
HETATM   17  O1  UNL     1       8.822   7.634  25.125  1.00  0.00    -0.274 OA
HETATM   18  C4  UNL     1       7.511   9.809  21.123  1.00  0.00     0.020 C 
HETATM   19  C5  UNL     1       7.156   8.510  20.497  1.00  0.00     0.002 C 
HETATM   20  C6  UNL     1       7.589   7.279  21.212  1.00  0.00     0.002 C 
HETATM   21  C7  UNL     1       6.774   6.998  22.457  1.00  0.00     0.026 C 
ENDBRANCH  11  12
ENDBRANCH   8  11
ENDBRANCH   6   7
ENDBRANCH   5   6
ENDBRANCH   1   5
BRANCH   3  22
HETATM   22  C14 UNL     1       3.481   5.264  20.893  1.00  0.00     0.309 C 
HETATM   23  O4  UNL     1       2.807   4.199  21.023  1.00  0.00    -0.262 OA
HETATM   24  N4  UNL     1       4.647   5.222  20.101  1.00  0.00    -0.351 N 
ATOM     25  H4  UNL     1       5.211   6.062  19.975  1.00  0.00     0.162 HD
BRANCH  24  26
HETATM   26  C15 UNL     1       5.041   3.989  19.469  1.00  0.00     0.156 C 
BRANCH  26  27
HETATM   27  C16 UNL     1       6.397   3.510  19.892  1.00  0.00     0.208 C 
HETATM   28  C17 UNL     1       6.568   3.458  21.396  1.00  0.00     0.037 C 
HETATM   29  C18 UNL     1       5.733   2.269  21.776  1.00  0.00     0.030 C 
HETATM   30  C19 UNL     1       5.759   1.396  20.550  1.00  0.00     0.238 C 
HETATM   31  N5  UNL     1       6.505   2.105  19.550  1.00  0.00    -0.061 N 
HETATM   32  C20 UNL     1       5.961   1.813  18.246  1.00  0.00     0.238 C 
HETATM   33  C23 UNL     1       7.882   1.710  19.448  1.00  0.00     0.238 C 
HETATM   34  C21 UNL     1       6.448   0.388  18.026  1.00  0.00     0.029 C 
HETATM   35  C22 UNL     1       7.802   0.382  18.731  1.00  0.00     0.029 C 
ENDBRANCH  26  27
ENDBRANCH  24  26
ENDBRANCH   3  22
TORSDOF 8
ENDMDL
MODEL 2
REMARK VINA RESULT: -7.318175778      1.663      2.352
REMARK  8 active torsions:
REMARK  status: ('A' for Active; 'I' for Inactive)
REMARK       I    between atoms: C2_2  and  N1_4 
REMARK    1  A    between atoms: C8_10  and  C9_11 
REMARK    2  A    between atoms: C9_11  and  C10_12 
REMARK       I    between atoms: C10_12  and  N2_14 
REMARK    3  A    between atoms: N2_14  and  C11_16 
REMARK    4  A    between atoms: C11_16  and  C12_17 
REMARK    5  A    between atoms: C12_17  and  N3_18 
REMARK       I    between atoms: N3_18  and  C13_20 
REMARK    6  A    between atoms: C13_20  and  C14_22 
REMARK       I    between atoms: C14_22  and  N4_24 
REMARK    7  A    between atoms: N4_24  and  C15_26 
REMARK    8  A    between atoms: C15_26  and  C16_27 
ROOT
HETATM    1  N3  UNL     1       2.619   4.178  23.041  1.00  0.00    -0.351 N 
ATOM      2  H3  UNL     1       2.855   4.542  22.118  1.00  0.00     0.162 HD
HETATM    3  C13 UNL     1       2.996   2.860  23.393  1.00  0.00     0.309 C 
HETATM    4  O3  UNL     1       2.717   2.387  24.525  1.00  0.00    -0.262 OA
ENDROOT
BRANCH   1   5
HETATM    5  C12 UNL     1       1.895   5.024  23.986  1.00  0.00     0.143 C 
BRANCH   5   6
HETATM    6  C11 UNL     1       2.443   6.427  23.846  1.00  0.00     0.142 C 
BRANCH   6   7
HETATM    7  N2  UNL     1       3.882   6.453  23.906  1.00  0.00    -0.359 N 
HETATM    8  C10 UNL     1       4.618   7.590  24.335  1.00  0.00     0.219 C 
HETATM    9  O2  UNL     1       3.960   8.610  24.674  1.00  0.00    -0.274 OA
ATOM     10  H2  UNL     1       4.397   5.618  23.628  1.00  0.00     0.162 HD
BRANCH   8  11
HETATM   11  C9  UNL     1       6.113   7.568  24.381  1.00  0.00     0.128 C 
BRANCH  11  12
HETATM   12  C8  UNL     1       6.692   8.068  23.114  1.00  0.00     0.096 C 
HETATM   13  N1  UNL     1       7.951   8.751  23.175  1.00  0.00    -0.347 N 
HETATM   14  C2  UNL     1       8.931   8.437  24.141  1.00  0.00     0.216 C 
HETATM   15  C3  UNL     1       8.331   9.833  22.237  1.00  0.00     0.126 C 
HETATM   16  C1  UNL     1      10.220   9.202  24.146  1.00  0.00     0.117 C 
HETATM   17  O1  UNL     1       8.744   7.542  24.980  1.00  0.00    -0.274 OA
HETATM   18  C4  UNL     1       7.450   9.849  21.046  1.00  0.00     0.020 C 
HETATM   19  C5  UNL     1       7.256   8.568  20.322  1.00  0.00     0.002 C 
HETATM   20  C6  UNL     1       7.766   7.338  20.984  1.00  0.00     0.002 C 
HETATM   21  C7  UNL     1       6.915   6.900  22.159  1.00  0.00     0.026 C 
ENDBRANCH  11  12
ENDBRANCH   8  11
ENDBRANCH   6   7
ENDBRANCH   5   6
ENDBRANCH   1   5
BRANCH   3  22
HETATM   22  C14 UNL     1       3.710   2.041  22.445  1.00  0.00     0.309 C 
HETATM   23  O4  UNL     1       3.226   0.932  22.065  1.00  0.00    -0.262 OA
HETATM   24  N4  UNL     1       4.953   2.441  21.914  1.00  0.00    -0.351 N 
ATOM     25  H4  UNL     1       5.369   3.328  22.199  1.00  0.00     0.162 HD
BRANCH  24  26
HETATM   26  C15 UNL     1       5.635   1.596  20.969  1.00  0.00     0.156 C 
BRANCH  26  27
HETATM   27  C16 UNL     1       6.086   2.322  19.738  1.00  0.00     0.208 C 
HETATM   28  C17 UNL     1       7.593   2.446  19.638  1.00  0.00     0.037 C 
HETATM   29  C18 UNL     1       8.010   1.046  19.291  1.00  0.00     0.030 C 
HETATM   30  C19 UNL     1       6.818   0.476  18.570  1.00  0.00     0.238 C 
HETATM   31  N5  UNL     1       5.798   1.485  18.590  1.00  0.00    -0.061 N 
HETATM   32  C20 UNL     1       4.501   0.858  18.679  1.00  0.00     0.238 C 
HETATM   33  C23 UNL     1       5.721   2.272  17.391  1.00  0.00     0.238 C 
HETATM   34  C21 UNL     1       4.338   0.298  17.273  1.00  0.00     0.029 C 
HETATM   35  C22 UNL     1       5.054   1.336  16.412  1.00  0.00     0.029 C 
ENDBRANCH  26  27
ENDBRANCH  24  26
ENDBRANCH   3  22
TORSDOF 8
ENDMDL
MODEL 3
REMARK VINA RESULT: -7.294344073      1.628      2.170
REMARK  8 active torsions:
REMARK  status: ('A' for Active; 'I' for Inactive)
REMARK       I    between atoms: C2_2  and  N1_4 
REMARK    1  A    between atoms: C8_10  and  C9_11 
REMARK    2  A    between atoms: C9_11  and  C10_12 
REMARK       I    between atoms: C10_12  and  N2_14 
REMARK    3  A    between atoms: N2_14  and  C11_16 
REMARK    4  A    between atoms: C11_16  and  C12_17 
REMARK    5  A    between atoms: C12_17  and  N3_18 
REMARK       I    between atoms: N3_18  and  C13_20 
REMARK    6  A    between atoms: C13_20  and  C14_22 
REMARK       I    between atoms: C14_22  and  N4_24 
REMARK    7  A    between atoms: N4_24  and  C15_26 
REMARK    8  A    between atoms: C15_26  and  C16_27 
ROOT
HETATM    1  N3  UNL     1       1.842   6.410  23.472  1.00  0.00    -0.351 N 
ATOM      2  H3  UNL     1       2.430   6.541  22.649  1.00  0.00     0.162 HD
HETATM    3  C13 UNL     1       1.879   5.179  24.171  1.00  0.00     0.309 C 
HETATM    4  O3  UNL     1       1.164   4.991  25.189  1.00  0.00    -0.262 OA
ENDROOT
BRANCH   1   5
HETATM    5  C12 UNL     1       0.970   7.494  23.916  1.00  0.00     0.143 C 
BRANCH   5   6
HETATM    6  C11 UNL     1       1.841   8.710  24.138  1.00  0.00     0.142 C 
BRANCH   6   7
HETATM    7  N2  UNL     1       3.243   8.377  24.144  1.00  0.00    -0.359 N 
HETATM    8  C10 UNL     1       4.197   9.058  24.946  1.00  0.00     0.219 C 
HETATM    9  O2  UNL     1       3.775   9.993  25.678  1.00  0.00    -0.274 OA
ATOM     10  H2  UNL     1       3.566   7.617  23.546  1.00  0.00     0.162 HD
BRANCH   8  11
HETATM   11  C9  UNL     1       5.642   8.674  24.918  1.00  0.00     0.128 C 
BRANCH  11  12
HETATM   12  C8  UNL     1       6.157   8.639  23.531  1.00  0.00     0.096 C 
HETATM   13  N1  UNL     1       7.520   9.027  23.311  1.00  0.00    -0.347 N 
HETATM   14  C2  UNL     1       8.528   8.816  24.277  1.00  0.00     0.216 C 
HETATM   15  C3  UNL     1       7.985   9.672  22.062  1.00  0.00     0.126 C 
HETATM   16  C1  UNL     1       9.928   9.257  23.976  1.00  0.00     0.117 C 
HETATM   17  O1  UNL     1       8.274   8.274  25.363  1.00  0.00    -0.274 OA
HETATM   18  C4  UNL     1       6.994   9.517  20.971  1.00  0.00     0.020 C 
HETATM   19  C5  UNL     1       6.486   8.149  20.700  1.00  0.00     0.002 C 
HETATM   20  C6  UNL     1       6.830   7.095  21.691  1.00  0.00     0.002 C 
HETATM   21  C7  UNL     1       6.051   7.218  22.984  1.00  0.00     0.026 C 
ENDBRANCH  11  12
ENDBRANCH   8  11
ENDBRANCH   6   7
ENDBRANCH   5   6
ENDBRANCH   1   5
BRANCH   3  22
HETATM   22  C14 UNL     1       2.746   4.121  23.715  1.00  0.00     0.309 C 
HETATM   23  O4  UNL     1       2.695   2.974  24.252  1.00  0.00    -0.262 OA
HETATM   24  N4  UNL     1       3.668   4.325  22.668  1.00  0.00    -0.351 N 
ATOM     25  H4  UNL     1       3.733   5.236  22.214  1.00  0.00     0.162 HD
BRANCH  24  26
HETATM   26  C15 UNL     1       4.518   3.244  22.240  1.00  0.00     0.156 C 
BRANCH  26  27
HETATM   27  C16 UNL     1       4.107   2.648  20.927  1.00  0.00     0.208 C 
HETATM   28  C17 UNL     1       3.421   3.640  20.011  1.00  0.00     0.037 C 
HETATM   29  C18 UNL     1       4.563   4.509  19.564  1.00  0.00     0.030 C 
HETATM   30  C19 UNL     1       5.764   3.607  19.647  1.00  0.00     0.238 C 
HETATM   31  N5  UNL     1       5.308   2.352  20.171  1.00  0.00    -0.061 N 
HETATM   32  C20 UNL     1       6.342   1.766  20.988  1.00  0.00     0.238 C 
HETATM   33  C23 UNL     1       5.048   1.353  19.172  1.00  0.00     0.238 C 
HETATM   34  C21 UNL     1       7.338   1.304  19.934  1.00  0.00     0.029 C 
HETATM   35  C22 UNL     1       6.434   0.907  18.769  1.00  0.00     0.029 C 
ENDBRANCH  26  27
ENDBRANCH  24  26
ENDBRANCH   3  22
TORSDOF 8
ENDMDL
MODEL 4
REMARK VINA RESULT: -7.281590590      5.038      7.977
REMARK  8 active torsions:
REMARK  status: ('A' for Active; 'I' for Inactive)
REMARK       I    between atoms: C2_2  and  N1_4 
REMARK    1  A    between atoms: C8_10  and  C9_11 
REMARK    2  A    between atoms: C9_11  and  C10_12 
REMARK       I    between atoms: C10_12  and  N2_14 
REMARK    3  A    between atoms: N2_14  and  C11_16 
REMARK    4  A    between atoms: C11_16  and  C12_17 
REMARK    5  A    between atoms: C12_17  and  N3_18 
REMARK       I    between atoms: N3_18  and  C13_20 
REMARK    6  A    between atoms: C13_20  and  C14_22 
REMARK       I    between atoms: C14_22  and  N4_24 
REMARK    7  A    between atoms: N4_24  and  C15_26 
REMARK    8  A    between atoms: C15_26  and  C16_27 
ROOT
HETATM    1  N3  UNL     1       7.710   8.295  19.610  1.00  0.00    -0.351 N 
ATOM      2  H3  UNL     1       7.525   7.373  19.215  1.00  0.00     0.162 HD
HETATM    3  C13 UNL     1       7.463   9.453  18.834  1.00  0.00     0.309 C 
HETATM    4  O3  UNL     1       7.683  10.602  19.298  1.00  0.00    -0.262 OA
ENDROOT
BRANCH   1   5
HETATM    5  C12 UNL     1       8.228   8.406  20.971  1.00  0.00     0.143 C 
BRANCH   5   6
HETATM    6  C11 UNL     1       7.335   7.571  21.862  1.00  0.00     0.142 C 
BRANCH   6   7
HETATM    7  N2  UNL     1       7.590   6.161  21.713  1.00  0.00    -0.359 N 
HETATM    8  C10 UNL     1       6.828   5.324  20.856  1.00  0.00     0.219 C 
HETATM    9  O2  UNL     1       5.892   5.860  20.205  1.00  0.00    -0.274 OA
ATOM     10  H2  UNL     1       8.351   5.745  22.249  1.00  0.00     0.162 HD
BRANCH   8  11
HETATM   11  C9  UNL     1       7.132   3.864  20.735  1.00  0.00     0.128 C 
BRANCH  11  12
HETATM   12  C8  UNL     1       5.891   3.073  20.577  1.00  0.00     0.096 C 
HETATM   13  N1  UNL     1       5.846   2.098  19.527  1.00  0.00    -0.347 N 
HETATM   14  C2  UNL     1       6.997   1.407  19.091  1.00  0.00     0.216 C 
HETATM   15  C3  UNL     1       4.598   1.731  18.818  1.00  0.00     0.126 C 
HETATM   16  C1  UNL     1       6.870   0.408  17.982  1.00  0.00     0.117 C 
HETATM   17  O1  UNL     1       8.105   1.612  19.611  1.00  0.00    -0.274 OA
HETATM   18  C4  UNL     1       3.400   2.190  19.559  1.00  0.00     0.020 C 
HETATM   19  C5  UNL     1       3.311   1.837  20.998  1.00  0.00     0.002 C 
HETATM   20  C6  UNL     1       4.530   1.264  21.627  1.00  0.00     0.002 C 
HETATM   21  C7  UNL     1       5.617   2.294  21.860  1.00  0.00     0.026 C 
ENDBRANCH  11  12
ENDBRANCH   8  11
ENDBRANCH   6   7
ENDBRANCH   5   6
ENDBRANCH   1   5
BRANCH   3  22
HETATM   22  C14 UNL     1       6.952   9.321  17.492  1.00  0.00     0.309 C 
HETATM   23  O4  UNL     1       5.908   8.639  17.268  1.00  0.00    -0.262 OA
HETATM   24  N4  UNL     1       7.590   9.941  16.398  1.00  0.00    -0.351 N 
ATOM     25  H4  UNL     1       8.431  10.498  16.545  1.00  0.00     0.162 HD
BRANCH  24  26
HETATM   26  C15 UNL     1       7.050   9.786  15.072  1.00  0.00     0.156 C 
BRANCH  26  27
HETATM   27  C16 UNL     1       8.015   9.167  14.105  1.00  0.00     0.208 C 
HETATM   28  C17 UNL     1       8.534   7.820  14.563  1.00  0.00     0.037 C 
HETATM   29  C18 UNL     1       7.342   6.928  14.360  1.00  0.00     0.030 C 
HETATM   30  C19 UNL     1       6.578   7.585  13.243  1.00  0.00     0.238 C 
HETATM   31  N5  UNL     1       7.280   8.793  12.913  1.00  0.00    -0.061 N 
HETATM   32  C20 UNL     1       6.334   9.805  12.510  1.00  0.00     0.238 C 
HETATM   33  C23 UNL     1       8.163   8.675  11.786  1.00  0.00     0.238 C 
HETATM   34  C21 UNL     1       5.929   9.309  11.129  1.00  0.00     0.029 C 
HETATM   35  C22 UNL     1       7.214   8.669  10.610  1.00  0.00     0.029 C 
ENDBRANCH  26  27
ENDBRANCH  24  26
ENDBRANCH   3  22
TORSDOF 8
ENDMDL
MODEL 5
REMARK VINA RESULT: -7.251098959      6.082      9.298
REMARK  8 active torsions:
REMARK  status: ('A' for Active; 'I' for Inactive)
REMARK       I    between atoms: C2_2  and  N1_4 
REMARK    1  A    between atoms: C8_10  and  C9_11 
REMARK    2  A    between atoms: C9_11  and  C10_12 
REMARK       I    between atoms: C10_12  and  N2_14 
REMARK    3  A    between atoms: N2_14  and  C11_16 
REMARK    4  A    between atoms: C11_16  and  C12_17 
REMARK    5  A    between atoms: C12_17  and  N3_18 
REMARK       I    between atoms: N3_18  and  C13_20 
REMARK    6  A    between atoms: C13_20  and  C14_22 
REMARK       I    between atoms: C14_22  and  N4_24 
REMARK    7  A    between atoms: N4_24  and  C15_26 
REMARK    8  A    between atoms: C15_26  and  C16_27 
ROOT
HETATM    1  N3  UNL     1       4.700  10.082  17.586  1.00  0.00    -0.351 N 
ATOM      2  H3  UNL     1       4.455  10.641  18.404  1.00  0.00     0.162 HD
HETATM    3  C13 UNL     1       5.879   9.299  17.600  1.00  0.00     0.309 C 
HETATM    4  O3  UNL     1       6.204   8.601  16.605  1.00  0.00    -0.262 OA
ENDROOT
BRANCH   1   5
HETATM    5  C12 UNL     1       3.830  10.099  16.414  1.00  0.00     0.143 C 
BRANCH   5   6
HETATM    6  C11 UNL     1       4.160  11.347  15.626  1.00  0.00     0.142 C 
BRANCH   6   7
HETATM    7  N2  UNL     1       5.363  11.192  14.848  1.00  0.00    -0.359 N 
HETATM    8  C10 UNL     1       5.356  10.834  13.474  1.00  0.00     0.219 C 
HETATM    9  O2  UNL     1       4.234  10.648  12.931  1.00  0.00    -0.274 OA
ATOM     10  H2  UNL     1       6.262  11.347  15.305  1.00  0.00     0.162 HD
BRANCH   8  11
HETATM   11  C9  UNL     1       6.632  10.687  12.709  1.00  0.00     0.128 C 
BRANCH  11  12
HETATM   12  C8  UNL     1       7.288   9.395  13.011  1.00  0.00     0.096 C 
HETATM   13  N1  UNL     1       6.868   8.239  12.274  1.00  0.00    -0.347 N 
HETATM   14  C2  UNL     1       6.407   8.323  10.942  1.00  0.00     0.216 C 
HETATM   15  C3  UNL     1       6.883   6.870  12.838  1.00  0.00     0.126 C 
HETATM   16  C1  UNL     1       5.976   7.071  10.240  1.00  0.00     0.117 C 
HETATM   17  O1  UNL     1       6.355   9.410  10.347  1.00  0.00    -0.274 OA
HETATM   18  C4  UNL     1       7.715   6.799  14.063  1.00  0.00     0.020 C 
HETATM   19  C5  UNL     1       9.089   7.353  13.987  1.00  0.00     0.002 C 
HETATM   20  C6  UNL     1       9.432   8.141  12.773  1.00  0.00     0.002 C 
HETATM   21  C7  UNL     1       8.788   9.512  12.753  1.00  0.00     0.026 C 
ENDBRANCH  11  12
ENDBRANCH   8  11
ENDBRANCH   6   7
ENDBRANCH   5   6
ENDBRANCH   1   5
BRANCH   3  22
HETATM   22  C14 UNL     1       6.725   9.297  18.768  1.00  0.00     0.309 C 
HETATM   23  O4  UNL     1       7.933   8.922  18.683  1.00  0.00    -0.262 OA
HETATM   24  N4  UNL     1       6.243   9.709  20.027  1.00  0.00    -0.351 N 
ATOM     25  H4  UNL     1       5.276  10.017  20.128  1.00  0.00     0.162 HD
BRANCH  24  26
HETATM   26  C15 UNL     1       7.118   9.693  21.170  1.00  0.00     0.156 C 
BRANCH  26  27
HETATM   27  C16 UNL     1       6.494   9.083  22.389  1.00  0.00     0.208 C 
HETATM   28  C17 UNL     1       5.695   7.832  22.087  1.00  0.00     0.037 C 
HETATM   29  C18 UNL     1       6.771   6.822  21.802  1.00  0.00     0.030 C 
HETATM   30  C19 UNL     1       7.951   7.310  22.599  1.00  0.00     0.238 C 
HETATM   31  N5  UNL     1       7.555   8.543  23.216  1.00  0.00    -0.061 N 
HETATM   32  C20 UNL     1       8.692   9.428  23.299  1.00  0.00     0.238 C 
HETATM   33  C23 UNL     1       7.121   8.409  24.579  1.00  0.00     0.238 C 
HETATM   34  C21 UNL     1       9.500   8.781  24.415  1.00  0.00     0.029 C 
HETATM   35  C22 UNL     1       8.417   8.218  25.332  1.00  0.00     0.029 C 
ENDBRANCH  26  27
ENDBRANCH  24  26
ENDBRANCH   3  22
TORSDOF 8
ENDMDL
