MODEL 1
REMARK VINA RESULT: -7.948785526      0.000      0.000
REMARK  2 active torsions:
REMARK  status: ('A' for Active; 'I' for Inactive)
REMARK    1  A    between atoms: C5_7  and  C6_8 
REMARK    2  A    between atoms: N1_11  and  C9_13 
ROOT
HETATM    1  C6  UNL     1      31.638  33.910  12.866  1.00  0.00     0.147 C 
HETATM    2  C7  UNL     1      32.443  32.860  13.545  1.00  0.00     0.105 C 
HETATM    3  C8  UNL     1      33.088  33.651  14.668  1.00  0.00     0.090 C 
HETATM    4  N1  UNL     1      33.999  33.255  15.448  1.00  0.00    -0.374 N 
ATOM      5  H1  UNL     1      34.337  32.303  15.306  1.00  0.00     0.161 HD
HETATM    6  N2  UNL     1      32.441  34.906  14.634  1.00  0.00    -0.292 N 
ATOM      7  H2  UNL     1      32.813  35.784  14.996  1.00  0.00     0.183 HD
HETATM    8  N3  UNL     1      31.177  34.724  14.003  1.00  0.00    -0.129 NA
ENDROOT
BRANCH   4   9
HETATM    9  C9  UNL     1      34.602  33.989  16.496  1.00  0.00     0.082 C 
HETATM   10  C10 UNL     1      36.069  34.240  16.185  1.00  0.00     0.025 C 
HETATM   11  C11 UNL     1      36.610  35.256  17.181  1.00  0.00     0.002 C 
HETATM   12  C12 UNL     1      36.408  34.751  18.566  1.00  0.00     0.000 C 
HETATM   13  C13 UNL     1      35.716  33.432  18.646  1.00  0.00     0.002 C 
HETATM   14  C14 UNL     1      34.435  33.379  17.864  1.00  0.00     0.025 C 
ENDBRANCH   4   9
BRANCH   1  15
HETATM   15  C5  UNL     1      30.465  33.280  12.173  1.00  0.00     0.011 A 
HETATM   16  C2  UNL     1      29.638  33.848  11.241  1.00  0.00    -0.045 A 
HETATM   17  C1  UNL     1      29.886  35.289  10.815  1.00  0.00     0.049 C 
HETATM   18  C3  UNL     1      28.647  33.091  10.754  1.00  0.00     0.039 A 
HETATM   19  C4  UNL     1      28.538  31.814  11.226  1.00  0.00     0.075 A 
HETATM   20 CL1  UNL     1      27.335  30.593  10.768  1.00  0.00    -0.076 Cl
HETATM   21  S1  UNL     1      29.825  31.704  12.337  1.00  0.00    -0.080 SA
ENDBRANCH   1  15
TORSDOF 2
ENDMDL
MODEL 2
REMARK VINA RESULT: -7.429099164      4.853      5.294
REMARK  2 active torsions:
REMARK  status: ('A' for Active; 'I' for Inactive)
REMARK    1  A    between atoms: C5_7  and  C6_8 
REMARK    2  A    between atoms: N1_11  and  C9_13 
ROOT
HETATM    1  C6  UNL     1      30.136  33.168  11.485  1.00  0.00     0.147 C 
HETATM    2  C7  UNL     1      29.558  31.857  11.882  1.00  0.00     0.105 C 
HETATM    3  C8  UNL     1      30.758  31.178  12.517  1.00  0.00     0.090 C 
HETATM    4  N1  UNL     1      30.841  29.970  12.879  1.00  0.00    -0.374 N 
ATOM      5  H1  UNL     1      30.015  29.392  12.728  1.00  0.00     0.161 HD
HETATM    6  N2  UNL     1      31.735  32.193  12.604  1.00  0.00    -0.292 N 
ATOM      7  H2  UNL     1      32.744  32.054  12.660  1.00  0.00     0.183 HD
HETATM    8  N3  UNL     1      31.059  33.447  12.598  1.00  0.00    -0.129 NA
ENDROOT
BRANCH   4   9
HETATM    9  C9  UNL     1      31.958  29.334  13.471  1.00  0.00     0.082 C 
HETATM   10  C10 UNL     1      32.670  28.463  12.447  1.00  0.00     0.025 C 
HETATM   11  C11 UNL     1      34.004  28.022  13.030  1.00  0.00     0.002 C 
HETATM   12  C12 UNL     1      33.775  27.305  14.314  1.00  0.00     0.000 C 
HETATM   13  C13 UNL     1      32.343  27.224  14.726  1.00  0.00     0.002 C 
HETATM   14  C14 UNL     1      31.643  28.552  14.721  1.00  0.00     0.025 C 
ENDBRANCH   4   9
BRANCH   1  15
HETATM   15  C5  UNL     1      29.053  34.206  11.440  1.00  0.00     0.011 A 
HETATM   16  C2  UNL     1      28.611  34.911  10.352  1.00  0.00    -0.045 A 
HETATM   17  C1  UNL     1      29.257  34.656   8.997  1.00  0.00     0.049 C 
HETATM   18  C3  UNL     1      27.625  35.794  10.549  1.00  0.00     0.039 A 
HETATM   19  C4  UNL     1      27.137  35.923  11.818  1.00  0.00     0.075 A 
HETATM   20 CL1  UNL     1      25.843  37.003  12.373  1.00  0.00    -0.076 Cl
HETATM   21  S1  UNL     1      28.070  34.806  12.703  1.00  0.00    -0.080 SA
ENDBRANCH   1  15
TORSDOF 2
ENDMDL
MODEL 3
REMARK VINA RESULT: -7.253060353      1.846      2.505
REMARK  2 active torsions:
REMARK  status: ('A' for Active; 'I' for Inactive)
REMARK    1  A    between atoms: C5_7  and  C6_8 
REMARK    2  A    between atoms: N1_11  and  C9_13 
ROOT
HETATM    1  C6  UNL     1      30.757  33.203  13.207  1.00  0.00     0.147 C 
HETATM    2  C7  UNL     1      31.340  34.459  13.749  1.00  0.00     0.105 C 
HETATM    3  C8  UNL     1      32.517  33.928  14.545  1.00  0.00     0.090 C 
HETATM    4  N1  UNL     1      33.253  34.582  15.337  1.00  0.00    -0.374 N 
ATOM      5  H1  UNL     1      33.031  35.571  15.452  1.00  0.00     0.161 HD
HETATM    6  N2  UNL     1      32.593  32.562  14.198  1.00  0.00    -0.292 N 
ATOM      7  H2  UNL     1      33.022  31.822  14.754  1.00  0.00     0.183 HD
HETATM    8  N3  UNL     1      31.962  32.402  12.930  1.00  0.00    -0.129 NA
ENDROOT
BRANCH   4   9
HETATM    9  C9  UNL     1      34.353  34.090  16.080  1.00  0.00     0.082 C 
HETATM   10  C10 UNL     1      34.095  34.256  17.569  1.00  0.00     0.025 C 
HETATM   11  C11 UNL     1      35.154  33.475  18.334  1.00  0.00     0.002 C 
HETATM   12  C12 UNL     1      36.507  33.954  17.942  1.00  0.00     0.000 C 
HETATM   13  C13 UNL     1      36.503  35.024  16.902  1.00  0.00     0.002 C 
HETATM   14  C14 UNL     1      35.684  34.680  15.692  1.00  0.00     0.025 C 
ENDBRANCH   4   9
BRANCH   1  15
HETATM   15  C5  UNL     1      30.026  33.494  11.928  1.00  0.00     0.011 A 
HETATM   16  C2  UNL     1      29.043  32.746  11.336  1.00  0.00    -0.045 A 
HETATM   17  C1  UNL     1      28.594  31.455  12.006  1.00  0.00     0.049 C 
HETATM   18  C3  UNL     1      28.530  33.204  10.188  1.00  0.00     0.039 A 
HETATM   19  C4  UNL     1      29.027  34.377   9.697  1.00  0.00     0.075 A 
HETATM   20 CL1  UNL     1      28.544  35.217   8.210  1.00  0.00    -0.076 Cl
HETATM   21  S1  UNL     1      30.199  34.811  10.854  1.00  0.00    -0.080 SA
ENDBRANCH   1  15
TORSDOF 2
ENDMDL
MODEL 4
REMARK VINA RESULT: -7.247954247      5.430      7.321
REMARK  2 active torsions:
REMARK  status: ('A' for Active; 'I' for Inactive)
REMARK    1  A    between atoms: C5_7  and  C6_8 
REMARK    2  A    between atoms: N1_11  and  C9_13 
ROOT
HETATM    1  C6  UNL     1      30.306  29.620  11.643  1.00  0.00     0.147 C 
HETATM    2  C7  UNL     1      30.711  30.777  12.485  1.00  0.00     0.105 C 
HETATM    3  C8  UNL     1      29.651  31.801  12.121  1.00  0.00     0.090 C 
HETATM    4  N1  UNL     1      29.633  33.022  12.446  1.00  0.00    -0.374 N 
ATOM      5  H1  UNL     1      30.414  33.353  13.012  1.00  0.00     0.161 HD
HETATM    6  N2  UNL     1      28.712  31.080  11.352  1.00  0.00    -0.292 N 
ATOM      7  H2  UNL     1      28.060  31.475  10.673  1.00  0.00     0.183 HD
HETATM    8  N3  UNL     1      28.837  29.703  11.694  1.00  0.00    -0.129 NA
ENDROOT
BRANCH   4   9
HETATM    9  C9  UNL     1      28.646  33.978  12.110  1.00  0.00     0.082 C 
HETATM   10  C10 UNL     1      29.097  34.798  10.911  1.00  0.00     0.025 C 
HETATM   11  C11 UNL     1      27.915  35.613  10.408  1.00  0.00     0.002 C 
HETATM   12  C12 UNL     1      27.395  36.468  11.509  1.00  0.00     0.000 C 
HETATM   13  C13 UNL     1      28.111  36.302  12.808  1.00  0.00     0.002 C 
HETATM   14  C14 UNL     1      28.225  34.871  13.249  1.00  0.00     0.025 C 
ENDBRANCH   4   9
BRANCH   1  15
HETATM   15  C5  UNL     1      30.774  28.344  12.280  1.00  0.00     0.011 A 
HETATM   16  C2  UNL     1      32.010  27.762  12.182  1.00  0.00    -0.045 A 
HETATM   17  C1  UNL     1      33.081  28.443  11.342  1.00  0.00     0.049 C 
HETATM   18  C3  UNL     1      32.203  26.613  12.841  1.00  0.00     0.039 A 
HETATM   19  C4  UNL     1      31.153  26.111  13.557  1.00  0.00     0.075 A 
HETATM   20 CL1  UNL     1      31.118  24.621  14.520  1.00  0.00    -0.076 Cl
HETATM   21  S1  UNL     1      29.924  27.259  13.291  1.00  0.00    -0.080 SA
ENDBRANCH   1  15
TORSDOF 2
ENDMDL
MODEL 5
REMARK VINA RESULT: -7.207841720      4.634      5.360
REMARK  2 active torsions:
REMARK  status: ('A' for Active; 'I' for Inactive)
REMARK    1  A    between atoms: C5_7  and  C6_8 
REMARK    2  A    between atoms: N1_11  and  C9_13 
ROOT
HETATM    1  C6  UNL     1      30.407  32.627  11.633  1.00  0.00     0.147 C 
HETATM    2  C7  UNL     1      29.599  31.428  11.984  1.00  0.00     0.105 C 
HETATM    3  C8  UNL     1      30.662  30.501  12.544  1.00  0.00     0.090 C 
HETATM    4  N1  UNL     1      30.522  29.282  12.843  1.00  0.00    -0.374 N 
ATOM      5  H1  UNL     1      29.597  28.879  12.690  1.00  0.00     0.161 HD
HETATM    6  N2  UNL     1      31.816  31.307  12.649  1.00  0.00    -0.292 N 
ATOM      7  H2  UNL     1      32.781  30.977  12.666  1.00  0.00     0.183 HD
HETATM    8  N3  UNL     1      31.390  32.665  12.728  1.00  0.00    -0.129 NA
ENDROOT
BRANCH   4   9
HETATM    9  C9  UNL     1      31.511  28.414  13.366  1.00  0.00     0.082 C 
HETATM   10  C10 UNL     1      32.176  29.047  14.578  1.00  0.00     0.025 C 
HETATM   11  C11 UNL     1      33.022  27.991  15.273  1.00  0.00     0.002 C 
HETATM   12  C12 UNL     1      34.015  27.437  14.313  1.00  0.00     0.000 C 
HETATM   13  C13 UNL     1      33.923  28.005  12.937  1.00  0.00     0.002 C 
HETATM   14  C14 UNL     1      32.537  27.958  12.361  1.00  0.00     0.025 C 
ENDBRANCH   4   9
BRANCH   1  15
HETATM   15  C5  UNL     1      29.540  33.852  11.676  1.00  0.00     0.011 A 
HETATM   16  C2  UNL     1      29.859  35.119  11.266  1.00  0.00    -0.045 A 
HETATM   17  C1  UNL     1      31.243  35.382  10.690  1.00  0.00     0.049 C 
HETATM   18  C3  UNL     1      28.920  36.064  11.400  1.00  0.00     0.039 A 
HETATM   19  C4  UNL     1      27.720  35.690  11.935  1.00  0.00     0.075 A 
HETATM   20 CL1  UNL     1      26.303  36.717  12.229  1.00  0.00    -0.076 Cl
HETATM   21  S1  UNL     1      27.935  34.028  12.235  1.00  0.00    -0.080 SA
ENDBRANCH   1  15
TORSDOF 2
ENDMDL
