MODEL 1
REMARK VINA RESULT: -9.918305504      0.000      0.000
REMARK  11 active torsions:
REMARK  status: ('A' for Active; 'I' for Inactive)
REMARK    1  A    between atoms: N1_1  and  C1_4 
REMARK    2  A    between atoms: C2_9  and  C3_10 
REMARK    3  A    between atoms: N4_11  and  N5_13 
REMARK       I    between atoms: N5_13  and  C4_15 
REMARK    4  A    between atoms: C4_15  and  C5_17 
REMARK    5  A    between atoms: C7_19  and  N6_20 
REMARK    6  A    between atoms: N6_20  and  C8_22 
REMARK    7  A    between atoms: C11_25  and  C12_26 
REMARK       I    between atoms: C12_26  and  N7_28 
REMARK    8  A    between atoms: N7_28  and  N8_30 
REMARK    9  A    between atoms: N8_30  and  C13_32 
REMARK   10  A    between atoms: C13_32  and  C14_33 
REMARK   11  A    between atoms: C18_39  and  N10_40 
ROOT
HETATM    1  C5  UNL     1      35.124   0.270  45.065  1.00  0.00     0.287 C 
HETATM    2  C6  UNL     1      36.307   0.175  44.120  1.00  0.00     0.119 C 
HETATM    3  C7  UNL     1      36.598   1.517  43.539  1.00  0.00     0.082 C 
HETATM    4  N11 UNL     1      36.148   2.601  44.039  1.00  0.00    -0.357 N 
ATOM      5  H11 UNL     1      36.393   3.479  43.581  1.00  0.00     0.162 HD
HETATM    6  C19 UNL     1      35.325   2.658  45.194  1.00  0.00     0.356 C 
HETATM    7  N12 UNL     1      35.252   1.432  45.923  1.00  0.00    -0.046 N 
ATOM      8 1H12 UNL     1      36.048   1.334  46.552  1.00  0.00     0.280 HD
ATOM      9 2H12 UNL     1      34.500   1.462  46.611  1.00  0.00     0.280 HD
ENDROOT
BRANCH   3  10
HETATM   10  N6  UNL     1      37.400   1.556  42.377  1.00  0.00    -0.326 N 
ATOM     11  H6  UNL     1      38.384   1.299  42.456  1.00  0.00     0.169 HD
BRANCH  10  12
HETATM   12  C8  UNL     1      36.897   1.937  41.096  1.00  0.00     0.149 A 
HETATM   13  C9  UNL     1      37.524   1.709  39.910  1.00  0.00     0.059 A 
HETATM   14  C10 UNL     1      36.675   2.246  38.939  1.00  0.00     0.047 A 
HETATM   15  C11 UNL     1      35.579   2.773  39.574  1.00  0.00     0.147 A 
HETATM   16  O5  UNL     1      35.753   2.565  40.866  1.00  0.00    -0.288 OA
BRANCH  15  17
HETATM   17  C12 UNL     1      34.408   3.448  38.978  1.00  0.00     0.294 C 
HETATM   18  O2  UNL     1      33.957   3.117  37.865  1.00  0.00    -0.264 OA
HETATM   19  N7  UNL     1      33.805   4.485  39.703  1.00  0.00    -0.257 N 
ATOM     20  H7  UNL     1      34.190   4.739  40.612  1.00  0.00     0.191 HD
BRANCH  19  21
HETATM   21  N8  UNL     1      32.723   5.162  39.233  1.00  0.00    -0.260 N 
ATOM     22  H8  UNL     1      31.917   4.537  39.204  1.00  0.00     0.197 HD
BRANCH  21  23
HETATM   23  C13 UNL     1      32.401   6.243  38.844  1.00  0.00     0.007 C 
BRANCH  23  24
HETATM   24  C14 UNL     1      32.031   7.496  38.394  1.00  0.00     0.130 A 
HETATM   25  N9  UNL     1      31.390   7.880  37.264  1.00  0.00    -0.356 N 
HETATM   26  C15 UNL     1      31.035   9.097  36.906  1.00  0.00     0.089 A 
ATOM     27  H9  UNL     1      31.153   7.134  36.609  1.00  0.00     0.166 HD
HETATM   28  C16 UNL     1      31.334  10.130  37.753  1.00  0.00     0.020 A 
HETATM   29  C17 UNL     1      31.987   9.861  38.935  1.00  0.00     0.040 A 
HETATM   30  C18 UNL     1      32.338   8.579  39.270  1.00  0.00     0.139 A 
BRANCH  30  31
HETATM   31  N10 UNL     1      33.007   8.360  40.493  1.00  0.00    -0.113 N 
HETATM   32  O3  UNL     1      34.269   8.462  40.567  1.00  0.00    -0.532 OA
HETATM   33  O4  UNL     1      32.386   8.036  41.657  1.00  0.00    -0.532 OA
ENDBRANCH  30  31
ENDBRANCH  23  24
ENDBRANCH  21  23
ENDBRANCH  19  21
ENDBRANCH  15  17
ENDBRANCH  10  12
ENDBRANCH   3  10
BRANCH   1  34
HETATM   34  C4  UNL     1      35.062  -0.937  45.915  1.00  0.00     0.267 C 
HETATM   35  N5  UNL     1      34.032  -1.139  46.875  1.00  0.00    -0.269 N 
ATOM     36  H5  UNL     1      33.308  -0.428  46.976  1.00  0.00     0.190 HD
HETATM   37  O1  UNL     1      35.947  -1.837  45.806  1.00  0.00    -0.269 OA
BRANCH  35  38
HETATM   38  N4  UNL     1      33.977  -2.261  47.672  1.00  0.00    -0.306 N 
HETATM   39  C3  UNL     1      34.736  -2.376  48.707  1.00  0.00     0.157 C 
ATOM     40  H4  UNL     1      33.327  -3.012  47.439  1.00  0.00     0.186 HD
BRANCH  39  41
HETATM   41  C2  UNL     1      34.693  -3.554  49.566  1.00  0.00     0.152 A 
HETATM   42  N3  UNL     1      34.215  -4.783  49.243  1.00  0.00    -0.270 N 
HETATM   43  N2  UNL     1      34.341  -5.596  50.271  1.00  0.00    -0.131 N 
ATOM     44  H3  UNL     1      33.817  -5.038  48.339  1.00  0.00     0.189 HD
HETATM   45  C1  UNL     1      34.905  -4.877  51.258  1.00  0.00     0.692 A 
ATOM     46  H2  UNL     1      34.067  -6.578  50.311  1.00  0.00     0.205 HD
HETATM   47  N13 UNL     1      35.119  -3.627  50.828  1.00  0.00    -0.173 N 
ATOM     48  H13 UNL     1      35.534  -2.868  51.368  1.00  0.00     0.186 HD
BRANCH  45  49
HETATM   49  N1  UNL     1      35.181  -5.348  52.422  1.00  0.00    -0.233 N 
ATOM     50  H12 UNL     1      35.969  -5.946  52.667  1.00  0.00     0.174 HD
ATOM     51  H11 UNL     1      34.622  -5.168  53.257  1.00  0.00     0.174 HD
ENDBRANCH  45  49
ENDBRANCH  39  41
ENDBRANCH  35  38
ENDBRANCH   1  34
TORSDOF 11
ENDMDL
MODEL 2
REMARK VINA RESULT: -9.786154089      3.519      7.314
REMARK  11 active torsions:
REMARK  status: ('A' for Active; 'I' for Inactive)
REMARK    1  A    between atoms: N1_1  and  C1_4 
REMARK    2  A    between atoms: C2_9  and  C3_10 
REMARK    3  A    between atoms: N4_11  and  N5_13 
REMARK       I    between atoms: N5_13  and  C4_15 
REMARK    4  A    between atoms: C4_15  and  C5_17 
REMARK    5  A    between atoms: C7_19  and  N6_20 
REMARK    6  A    between atoms: N6_20  and  C8_22 
REMARK    7  A    between atoms: C11_25  and  C12_26 
REMARK       I    between atoms: C12_26  and  N7_28 
REMARK    8  A    between atoms: N7_28  and  N8_30 
REMARK    9  A    between atoms: N8_30  and  C13_32 
REMARK   10  A    between atoms: C13_32  and  C14_33 
REMARK   11  A    between atoms: C18_39  and  N10_40 
ROOT
HETATM    1  C5  UNL     1      37.075  -0.056  44.005  1.00  0.00     0.287 C 
HETATM    2  C6  UNL     1      35.730   0.577  43.706  1.00  0.00     0.119 C 
HETATM    3  C7  UNL     1      35.024   0.889  44.981  1.00  0.00     0.082 C 
HETATM    4  N11 UNL     1      35.618   0.937  46.109  1.00  0.00    -0.357 N 
ATOM      5  H11 UNL     1      35.063   1.157  46.935  1.00  0.00     0.162 HD
HETATM    6  C19 UNL     1      37.007   0.700  46.281  1.00  0.00     0.356 C 
HETATM    7  N12 UNL     1      37.753   0.668  45.063  1.00  0.00    -0.046 N 
ATOM      8 1H12 UNL     1      37.998   1.610  44.761  1.00  0.00     0.280 HD
ATOM      9 2H12 UNL     1      38.689   0.294  45.220  1.00  0.00     0.280 HD
ENDROOT
BRANCH   3  10
HETATM   10  N6  UNL     1      33.634   1.125  44.906  1.00  0.00    -0.326 N 
ATOM     11  H6  UNL     1      33.006   0.508  45.423  1.00  0.00     0.169 HD
BRANCH  10  12
HETATM   12  C8  UNL     1      33.064   2.187  44.139  1.00  0.00     0.149 A 
HETATM   13  C9  UNL     1      32.185   3.111  44.615  1.00  0.00     0.059 A 
HETATM   14  C10 UNL     1      31.906   3.941  43.527  1.00  0.00     0.047 A 
HETATM   15  C11 UNL     1      32.620   3.488  42.448  1.00  0.00     0.147 A 
HETATM   16  O5  UNL     1      33.301   2.436  42.860  1.00  0.00    -0.288 OA
BRANCH  15  17
HETATM   17  C12 UNL     1      32.657   4.034  41.076  1.00  0.00     0.294 C 
HETATM   18  O2  UNL     1      32.151   3.424  40.115  1.00  0.00    -0.264 OA
HETATM   19  N7  UNL     1      33.283   5.271  40.874  1.00  0.00    -0.257 N 
ATOM     20  H7  UNL     1      33.691   5.754  41.675  1.00  0.00     0.191 HD
BRANCH  19  21
HETATM   21  N8  UNL     1      33.364   5.850  39.646  1.00  0.00    -0.260 N 
ATOM     22  H8  UNL     1      34.046   5.347  39.078  1.00  0.00     0.197 HD
BRANCH  21  23
HETATM   23  C13 UNL     1      32.903   6.749  39.012  1.00  0.00     0.007 C 
BRANCH  23  24
HETATM   24  C14 UNL     1      32.368   7.791  38.277  1.00  0.00     0.130 A 
HETATM   25  N9  UNL     1      31.969   7.853  36.985  1.00  0.00    -0.356 N 
HETATM   26  C15 UNL     1      31.434   8.875  36.349  1.00  0.00     0.089 A 
ATOM     27  H9  UNL     1      32.100   7.004  36.435  1.00  0.00     0.166 HD
HETATM   28  C16 UNL     1      31.241  10.037  37.046  1.00  0.00     0.020 A 
HETATM   29  C17 UNL     1      31.609  10.095  38.371  1.00  0.00     0.040 A 
HETATM   30  C18 UNL     1      32.164   9.007  38.995  1.00  0.00     0.139 A 
BRANCH  30  31
HETATM   31  N10 UNL     1      32.524   9.120  40.355  1.00  0.00    -0.113 N 
HETATM   32  O3  UNL     1      33.266  10.070  40.750  1.00  0.00    -0.532 OA
HETATM   33  O4  UNL     1      32.124   8.260  41.327  1.00  0.00    -0.532 OA
ENDBRANCH  30  31
ENDBRANCH  23  24
ENDBRANCH  21  23
ENDBRANCH  19  21
ENDBRANCH  15  17
ENDBRANCH  10  12
ENDBRANCH   3  10
BRANCH   1  34
HETATM   34  C4  UNL     1      37.926  -0.025  42.797  1.00  0.00     0.267 C 
HETATM   35  N5  UNL     1      37.701   0.890  41.732  1.00  0.00    -0.269 N 
ATOM     36  H5  UNL     1      36.928   1.552  41.806  1.00  0.00     0.190 HD
HETATM   37  O1  UNL     1      38.895  -0.834  42.681  1.00  0.00    -0.269 OA
BRANCH  35  38
HETATM   38  N4  UNL     1      38.490   0.915  40.603  1.00  0.00    -0.306 N 
HETATM   39  C3  UNL     1      38.016   1.316  39.473  1.00  0.00     0.157 C 
ATOM     40  H4  UNL     1      39.462   0.612  40.661  1.00  0.00     0.186 HD
BRANCH  39  41
HETATM   41  C2  UNL     1      38.834   1.353  38.266  1.00  0.00     0.152 A 
HETATM   42  N3  UNL     1      38.694   2.196  37.211  1.00  0.00    -0.270 N 
HETATM   43  N2  UNL     1      39.614   1.935  36.305  1.00  0.00    -0.131 N 
ATOM     44  H3  UNL     1      37.982   2.922  37.131  1.00  0.00     0.189 HD
HETATM   45  C1  UNL     1      40.347   0.916  36.790  1.00  0.00     0.692 A 
ATOM     46  H2  UNL     1      39.746   2.412  35.413  1.00  0.00     0.205 HD
HETATM   47  N13 UNL     1      39.869   0.559  37.988  1.00  0.00    -0.173 N 
ATOM     48  H13 UNL     1      40.232  -0.186  38.582  1.00  0.00     0.186 HD
BRANCH  45  49
HETATM   49  N1  UNL     1      41.344   0.391  36.170  1.00  0.00    -0.233 N 
ATOM     50  H12 UNL     1      41.311  -0.384  35.508  1.00  0.00     0.174 HD
ATOM     51  H11 UNL     1      42.309   0.702  36.278  1.00  0.00     0.174 HD
ENDBRANCH  45  49
ENDBRANCH  39  41
ENDBRANCH  35  38
ENDBRANCH   1  34
TORSDOF 11
ENDMDL
MODEL 3
REMARK VINA RESULT: -9.728852051      4.577      9.591
REMARK  11 active torsions:
REMARK  status: ('A' for Active; 'I' for Inactive)
REMARK    1  A    between atoms: N1_1  and  C1_4 
REMARK    2  A    between atoms: C2_9  and  C3_10 
REMARK    3  A    between atoms: N4_11  and  N5_13 
REMARK       I    between atoms: N5_13  and  C4_15 
REMARK    4  A    between atoms: C4_15  and  C5_17 
REMARK    5  A    between atoms: C7_19  and  N6_20 
REMARK    6  A    between atoms: N6_20  and  C8_22 
REMARK    7  A    between atoms: C11_25  and  C12_26 
REMARK       I    between atoms: C12_26  and  N7_28 
REMARK    8  A    between atoms: N7_28  and  N8_30 
REMARK    9  A    between atoms: N8_30  and  C13_32 
REMARK   10  A    between atoms: C13_32  and  C14_33 
REMARK   11  A    between atoms: C18_39  and  N10_40 
ROOT
HETATM    1  C5  UNL     1      36.689   2.057  37.296  1.00  0.00     0.287 C 
HETATM    2  C6  UNL     1      37.560   1.729  38.494  1.00  0.00     0.119 C 
HETATM    3  C7  UNL     1      38.910   1.295  38.032  1.00  0.00     0.082 C 
HETATM    4  N11 UNL     1      39.342   1.515  36.853  1.00  0.00    -0.357 N 
ATOM      5  H11 UNL     1      40.278   1.186  36.616  1.00  0.00     0.162 HD
HETATM    6  C19 UNL     1      38.599   2.191  35.851  1.00  0.00     0.356 C 
HETATM    7  N12 UNL     1      37.427   2.850  36.333  1.00  0.00    -0.046 N 
ATOM      8 1H12 UNL     1      37.657   3.767  36.716  1.00  0.00     0.280 HD
ATOM      9 2H12 UNL     1      36.827   3.138  35.561  1.00  0.00     0.280 HD
ENDROOT
BRANCH   3  10
HETATM   10  N6  UNL     1      39.715   0.601  38.962  1.00  0.00    -0.326 N 
ATOM     11  H6  UNL     1      40.624   0.252  38.654  1.00  0.00     0.169 HD
BRANCH  10  12
HETATM   12  C8  UNL     1      39.318   0.363  40.313  1.00  0.00     0.149 A 
HETATM   13  C9  UNL     1      40.028  -0.359  41.222  1.00  0.00     0.059 A 
HETATM   14  C10 UNL     1      39.266  -0.323  42.391  1.00  0.00     0.047 A 
HETATM   15  C11 UNL     1      38.136   0.414  42.143  1.00  0.00     0.147 A 
HETATM   16  O5  UNL     1      38.208   0.807  40.886  1.00  0.00    -0.288 OA
BRANCH  15  17
HETATM   17  C12 UNL     1      37.027   0.735  43.065  1.00  0.00     0.294 C 
HETATM   18  O2  UNL     1      37.235   1.084  44.243  1.00  0.00    -0.264 OA
HETATM   19  N7  UNL     1      35.716   0.639  42.579  1.00  0.00    -0.257 N 
ATOM     20  H7  UNL     1      35.569   0.352  41.612  1.00  0.00     0.191 HD
BRANCH  19  21
HETATM   21  N8  UNL     1      34.634   0.916  43.356  1.00  0.00    -0.260 N 
ATOM     22  H8  UNL     1      34.403   0.098  43.920  1.00  0.00     0.197 HD
BRANCH  21  23
HETATM   23  C13 UNL     1      33.866   1.796  43.597  1.00  0.00     0.007 C 
BRANCH  23  24
HETATM   24  C14 UNL     1      32.975   2.815  43.876  1.00  0.00     0.130 A 
HETATM   25  N9  UNL     1      32.359   3.165  45.030  1.00  0.00    -0.356 N 
HETATM   26  C15 UNL     1      31.539   4.175  45.238  1.00  0.00     0.089 A 
ATOM     27  H9  UNL     1      32.555   2.574  45.838  1.00  0.00     0.166 HD
HETATM   28  C16 UNL     1      31.246   4.994  44.182  1.00  0.00     0.020 A 
HETATM   29  C17 UNL     1      31.813   4.736  42.954  1.00  0.00     0.040 A 
HETATM   30  C18 UNL     1      32.662   3.674  42.781  1.00  0.00     0.139 A 
BRANCH  30  31
HETATM   31  N10 UNL     1      33.216   3.455  41.501  1.00  0.00    -0.113 N 
HETATM   32  O3  UNL     1      32.466   3.279  40.494  1.00  0.00    -0.532 OA
HETATM   33  O4  UNL     1      34.549   3.417  41.240  1.00  0.00    -0.532 OA
ENDBRANCH  30  31
ENDBRANCH  23  24
ENDBRANCH  21  23
ENDBRANCH  19  21
ENDBRANCH  15  17
ENDBRANCH  10  12
ENDBRANCH   3  10
BRANCH   1  34
HETATM   34  C4  UNL     1      35.506   2.829  37.732  1.00  0.00     0.267 C 
HETATM   35  N5  UNL     1      35.605   4.158  38.228  1.00  0.00    -0.269 N 
ATOM     36  H5  UNL     1      36.525   4.596  38.280  1.00  0.00     0.190 HD
HETATM   37  O1  UNL     1      34.352   2.310  37.673  1.00  0.00    -0.269 OA
BRANCH  35  38
HETATM   38  N4  UNL     1      34.504   4.876  38.639  1.00  0.00    -0.306 N 
HETATM   39  C3  UNL     1      34.622   6.092  39.048  1.00  0.00     0.157 C 
ATOM     40  H4  UNL     1      33.583   4.438  38.620  1.00  0.00     0.186 HD
BRANCH  39  41
HETATM   41  C2  UNL     1      33.469   6.871  39.486  1.00  0.00     0.152 A 
HETATM   42  N3  UNL     1      33.217   7.321  40.741  1.00  0.00    -0.270 N 
HETATM   43  N2  UNL     1      32.082   7.991  40.757  1.00  0.00    -0.131 N 
ATOM     44  H3  UNL     1      33.817   7.165  41.551  1.00  0.00     0.189 HD
HETATM   45  C1  UNL     1      31.608   7.965  39.499  1.00  0.00     0.692 A 
ATOM     46  H2  UNL     1      31.650   8.440  41.564  1.00  0.00     0.205 HD
HETATM   47  N13 UNL     1      32.455   7.280  38.721  1.00  0.00    -0.173 N 
ATOM     48  H13 UNL     1      32.345   7.102  37.723  1.00  0.00     0.186 HD
BRANCH  45  49
HETATM   49  N1  UNL     1      30.508   8.522  39.135  1.00  0.00    -0.233 N 
ATOM     50  H12 UNL     1      30.298   8.917  38.219  1.00  0.00     0.174 HD
ATOM     51  H11 UNL     1      29.697   8.634  39.744  1.00  0.00     0.174 HD
ENDBRANCH  45  49
ENDBRANCH  39  41
ENDBRANCH  35  38
ENDBRANCH   1  34
TORSDOF 11
ENDMDL
MODEL 4
REMARK VINA RESULT: -9.639973693      1.143      1.219
REMARK  11 active torsions:
REMARK  status: ('A' for Active; 'I' for Inactive)
REMARK    1  A    between atoms: N1_1  and  C1_4 
REMARK    2  A    between atoms: C2_9  and  C3_10 
REMARK    3  A    between atoms: N4_11  and  N5_13 
REMARK       I    between atoms: N5_13  and  C4_15 
REMARK    4  A    between atoms: C4_15  and  C5_17 
REMARK    5  A    between atoms: C7_19  and  N6_20 
REMARK    6  A    between atoms: N6_20  and  C8_22 
REMARK    7  A    between atoms: C11_25  and  C12_26 
REMARK       I    between atoms: C12_26  and  N7_28 
REMARK    8  A    between atoms: N7_28  and  N8_30 
REMARK    9  A    between atoms: N8_30  and  C13_32 
REMARK   10  A    between atoms: C13_32  and  C14_33 
REMARK   11  A    between atoms: C18_39  and  N10_40 
ROOT
HETATM    1  C5  UNL     1      35.070   0.285  45.036  1.00  0.00     0.287 C 
HETATM    2  C6  UNL     1      36.265   0.177  44.108  1.00  0.00     0.119 C 
HETATM    3  C7  UNL     1      36.560   1.511  43.509  1.00  0.00     0.082 C 
HETATM    4  N11 UNL     1      36.102   2.601  43.986  1.00  0.00    -0.357 N 
ATOM      5  H11 UNL     1      36.351   3.472  43.518  1.00  0.00     0.162 HD
HETATM    6  C19 UNL     1      35.265   2.674  45.130  1.00  0.00     0.356 C 
HETATM    7  N12 UNL     1      35.185   1.460  45.878  1.00  0.00    -0.046 N 
ATOM      8 1H12 UNL     1      35.974   1.374  46.518  1.00  0.00     0.280 HD
ATOM      9 2H12 UNL     1      34.425   1.499  46.556  1.00  0.00     0.280 HD
ENDROOT
BRANCH   3  10
HETATM   10  N6  UNL     1      37.376   1.532  42.356  1.00  0.00    -0.326 N 
ATOM     11  H6  UNL     1      38.278   1.056  42.389  1.00  0.00     0.169 HD
BRANCH  10  12
HETATM   12  C8  UNL     1      36.997   2.191  41.146  1.00  0.00     0.149 A 
HETATM   13  C9  UNL     1      37.200   1.700  39.893  1.00  0.00     0.059 A 
HETATM   14  C10 UNL     1      36.676   2.669  39.034  1.00  0.00     0.047 A 
HETATM   15  C11 UNL     1      36.182   3.696  39.797  1.00  0.00     0.147 A 
HETATM   16  O5  UNL     1      36.395   3.367  41.058  1.00  0.00    -0.288 OA
BRANCH  15  17
HETATM   17  C12 UNL     1      35.532   4.944  39.349  1.00  0.00     0.294 C 
HETATM   18  O2  UNL     1      35.584   5.320  38.162  1.00  0.00    -0.264 OA
HETATM   19  N7  UNL     1      34.842   5.708  40.301  1.00  0.00    -0.257 N 
ATOM     20  H7  UNL     1      34.812   5.381  41.266  1.00  0.00     0.191 HD
BRANCH  19  21
HETATM   21  N8  UNL     1      34.213   6.869  39.979  1.00  0.00    -0.260 N 
ATOM     22  H8  UNL     1      34.738   7.657  40.360  1.00  0.00     0.197 HD
BRANCH  21  23
HETATM   23  C13 UNL     1      33.252   7.275  39.399  1.00  0.00     0.007 C 
BRANCH  23  24
HETATM   24  C14 UNL     1      32.139   7.743  38.727  1.00  0.00     0.130 A 
HETATM   25  N9  UNL     1      31.135   7.082  38.103  1.00  0.00    -0.356 N 
HETATM   26  C15 UNL     1      30.078   7.590  37.503  1.00  0.00     0.089 A 
ATOM     27  H9  UNL     1      31.207   6.064  38.096  1.00  0.00     0.166 HD
HETATM   28  C16 UNL     1      29.941   8.952  37.486  1.00  0.00     0.020 A 
HETATM   29  C17 UNL     1      30.903   9.732  38.089  1.00  0.00     0.040 A 
HETATM   30  C18 UNL     1      31.988   9.161  38.702  1.00  0.00     0.139 A 
BRANCH  30  31
HETATM   31  N10 UNL     1      32.944  10.007  39.304  1.00  0.00    -0.113 N 
HETATM   32  O3  UNL     1      33.919  10.462  38.633  1.00  0.00    -0.532 OA
HETATM   33  O4  UNL     1      32.909  10.398  40.605  1.00  0.00    -0.532 OA
ENDBRANCH  30  31
ENDBRANCH  23  24
ENDBRANCH  21  23
ENDBRANCH  19  21
ENDBRANCH  15  17
ENDBRANCH  10  12
ENDBRANCH   3  10
BRANCH   1  34
HETATM   34  C4  UNL     1      35.000  -0.909  45.904  1.00  0.00     0.267 C 
HETATM   35  N5  UNL     1      33.953  -1.104  46.847  1.00  0.00    -0.269 N 
ATOM     36  H5  UNL     1      33.222  -0.396  46.924  1.00  0.00     0.190 HD
HETATM   37  O1  UNL     1      35.893  -1.805  45.827  1.00  0.00    -0.269 OA
BRANCH  35  38
HETATM   38  N4  UNL     1      33.891  -2.213  47.661  1.00  0.00    -0.306 N 
HETATM   39  C3  UNL     1      34.732  -2.377  48.623  1.00  0.00     0.157 C 
ATOM     40  H4  UNL     1      33.168  -2.915  47.500  1.00  0.00     0.186 HD
BRANCH  39  41
HETATM   41  C2  UNL     1      34.683  -3.543  49.498  1.00  0.00     0.152 A 
HETATM   42  N3  UNL     1      34.206  -4.776  49.190  1.00  0.00    -0.270 N 
HETATM   43  N2  UNL     1      34.326  -5.575  50.230  1.00  0.00    -0.131 N 
ATOM     44  H3  UNL     1      33.814  -5.043  48.287  1.00  0.00     0.189 HD
HETATM   45  C1  UNL     1      34.884  -4.842  51.210  1.00  0.00     0.692 A 
ATOM     46  H2  UNL     1      34.051  -6.556  50.282  1.00  0.00     0.205 HD
HETATM   47  N13 UNL     1      35.101  -3.599  50.764  1.00  0.00    -0.173 N 
ATOM     48  H13 UNL     1      35.513  -2.833  51.296  1.00  0.00     0.186 HD
BRANCH  45  49
HETATM   49  N1  UNL     1      35.152  -5.297  52.383  1.00  0.00    -0.233 N 
ATOM     50  H12 UNL     1      36.073  -5.358  52.817  1.00  0.00     0.174 HD
ATOM     51  H11 UNL     1      34.450  -5.659  53.028  1.00  0.00     0.174 HD
ENDBRANCH  45  49
ENDBRANCH  39  41
ENDBRANCH  35  38
ENDBRANCH   1  34
TORSDOF 11
ENDMDL
MODEL 5
REMARK VINA RESULT: -9.593487021      1.314      1.560
REMARK  11 active torsions:
REMARK  status: ('A' for Active; 'I' for Inactive)
REMARK    1  A    between atoms: N1_1  and  C1_4 
REMARK    2  A    between atoms: C2_9  and  C3_10 
REMARK    3  A    between atoms: N4_11  and  N5_13 
REMARK       I    between atoms: N5_13  and  C4_15 
REMARK    4  A    between atoms: C4_15  and  C5_17 
REMARK    5  A    between atoms: C7_19  and  N6_20 
REMARK    6  A    between atoms: N6_20  and  C8_22 
REMARK    7  A    between atoms: C11_25  and  C12_26 
REMARK       I    between atoms: C12_26  and  N7_28 
REMARK    8  A    between atoms: N7_28  and  N8_30 
REMARK    9  A    between atoms: N8_30  and  C13_32 
REMARK   10  A    between atoms: C13_32  and  C14_33 
REMARK   11  A    between atoms: C18_39  and  N10_40 
ROOT
HETATM    1  C5  UNL     1      34.634   0.409  44.613  1.00  0.00     0.287 C 
HETATM    2  C6  UNL     1      36.001   0.721  44.036  1.00  0.00     0.119 C 
HETATM    3  C7  UNL     1      35.964   2.034  43.330  1.00  0.00     0.082 C 
HETATM    4  N11 UNL     1      35.033   2.888  43.505  1.00  0.00    -0.357 N 
ATOM      5  H11 UNL     1      35.081   3.764  42.984  1.00  0.00     0.162 HD
HETATM    6  C19 UNL     1      33.935   2.692  44.383  1.00  0.00     0.356 C 
HETATM    7  N12 UNL     1      34.079   1.579  45.266  1.00  0.00    -0.046 N 
ATOM      8 1H12 UNL     1      34.629   1.834  46.086  1.00  0.00     0.280 HD
ATOM      9 2H12 UNL     1      33.194   1.358  45.721  1.00  0.00     0.280 HD
ENDROOT
BRANCH   3  10
HETATM   10  N6  UNL     1      37.013   2.308  42.425  1.00  0.00    -0.326 N 
ATOM     11  H6  UNL     1      37.973   2.285  42.771  1.00  0.00     0.169 HD
BRANCH  10  12
HETATM   12  C8  UNL     1      36.793   2.617  41.048  1.00  0.00     0.149 A 
HETATM   13  C9  UNL     1      37.042   1.776  40.008  1.00  0.00     0.059 A 
HETATM   14  C10 UNL     1      36.680   2.492  38.865  1.00  0.00     0.047 A 
HETATM   15  C11 UNL     1      36.231   3.727  39.259  1.00  0.00     0.147 A 
HETATM   16  O5  UNL     1      36.315   3.759  40.575  1.00  0.00    -0.288 OA
BRANCH  15  17
HETATM   17  C12 UNL     1      35.740   4.837  38.417  1.00  0.00     0.294 C 
HETATM   18  O2  UNL     1      35.192   4.633  37.317  1.00  0.00    -0.264 OA
HETATM   19  N7  UNL     1      35.904   6.146  38.890  1.00  0.00    -0.257 N 
ATOM     20  H7  UNL     1      36.355   6.291  39.793  1.00  0.00     0.191 HD
BRANCH  19  21
HETATM   21  N8  UNL     1      35.482   7.229  38.184  1.00  0.00    -0.260 N 
ATOM     22  H8  UNL     1      36.267   7.622  37.664  1.00  0.00     0.197 HD
BRANCH  21  23
HETATM   23  C13 UNL     1      34.501   7.873  37.970  1.00  0.00     0.007 C 
BRANCH  23  24
HETATM   24  C14 UNL     1      33.363   8.617  37.721  1.00  0.00     0.130 A 
HETATM   25  N9  UNL     1      32.725   8.903  36.561  1.00  0.00    -0.356 N 
HETATM   26  C15 UNL     1      31.618   9.597  36.392  1.00  0.00     0.089 A 
ATOM     27  H9  UNL     1      33.155   8.535  35.711  1.00  0.00     0.166 HD
HETATM   28  C16 UNL     1      31.006  10.111  37.503  1.00  0.00     0.020 A 
HETATM   29  C17 UNL     1      31.564   9.887  38.742  1.00  0.00     0.040 A 
HETATM   30  C18 UNL     1      32.718   9.159  38.872  1.00  0.00     0.139 A 
BRANCH  30  31
HETATM   31  N10 UNL     1      33.248   8.959  40.165  1.00  0.00    -0.113 N 
HETATM   32  O3  UNL     1      32.538   8.444  41.082  1.00  0.00    -0.532 OA
HETATM   33  O4  UNL     1      34.515   9.284  40.532  1.00  0.00    -0.532 OA
ENDBRANCH  30  31
ENDBRANCH  23  24
ENDBRANCH  21  23
ENDBRANCH  19  21
ENDBRANCH  15  17
ENDBRANCH  10  12
ENDBRANCH   3  10
BRANCH   1  34
HETATM   34  C4  UNL     1      34.745  -0.676  45.611  1.00  0.00     0.267 C 
HETATM   35  N5  UNL     1      33.694  -0.986  46.518  1.00  0.00    -0.269 N 
ATOM     36  H5  UNL     1      32.831  -0.444  46.475  1.00  0.00     0.190 HD
HETATM   37  O1  UNL     1      35.804  -1.367  45.683  1.00  0.00    -0.269 OA
BRANCH  35  38
HETATM   38  N4  UNL     1      33.799  -1.993  47.452  1.00  0.00    -0.306 N 
HETATM   39  C3  UNL     1      34.621  -1.895  48.440  1.00  0.00     0.157 C 
ATOM     40  H4  UNL     1      33.219  -2.827  47.360  1.00  0.00     0.186 HD
BRANCH  39  41
HETATM   41  C2  UNL     1      34.747  -2.948  49.442  1.00  0.00     0.152 A 
HETATM   42  N3  UNL     1      35.233  -2.821  50.703  1.00  0.00    -0.270 N 
HETATM   43  N2  UNL     1      35.191  -3.985  51.318  1.00  0.00    -0.131 N 
ATOM     44  H3  UNL     1      35.579  -1.954  51.113  1.00  0.00     0.189 HD
HETATM   45  C1  UNL     1      34.674  -4.862  50.438  1.00  0.00     0.692 A 
ATOM     46  H2  UNL     1      35.492  -4.183  52.273  1.00  0.00     0.205 HD
HETATM   47  N13 UNL     1      34.402  -4.228  49.291  1.00  0.00    -0.173 N 
ATOM     48  H13 UNL     1      34.004  -4.649  48.451  1.00  0.00     0.186 HD
BRANCH  45  49
HETATM   49  N1  UNL     1      34.483  -6.108  50.694  1.00  0.00    -0.233 N 
ATOM     50  H12 UNL     1      35.081  -6.885  50.417  1.00  0.00     0.174 HD
ATOM     51  H11 UNL     1      33.686  -6.465  51.220  1.00  0.00     0.174 HD
ENDBRANCH  45  49
ENDBRANCH  39  41
ENDBRANCH  35  38
ENDBRANCH   1  34
TORSDOF 11
ENDMDL
