MODEL 1
REMARK VINA RESULT: -8.318065304      0.000      0.000
REMARK  13 active torsions:
REMARK  status: ('A' for Active; 'I' for Inactive)
REMARK    1  A    between atoms: C3_7  and  C4_8 
REMARK       I    between atoms: C4_8  and  N3_10 
REMARK    2  A    between atoms: N3_10  and  N4_11 
REMARK    3  A    between atoms: N4_11  and  C5_13 
REMARK    4  A    between atoms: C5_13  and  N5_15 
REMARK    5  A    between atoms: N5_15  and  C6_17 
REMARK    6  A    between atoms: C6_17  and  C7_18 
REMARK    7  A    between atoms: C6_17  and  C9_22 
REMARK    8  A    between atoms: C7_18  and  C8_19 
REMARK       I    between atoms: C9_22  and  N6_24 
REMARK    9  A    between atoms: N6_24  and  C10_26 
REMARK   10  A    between atoms: C13_29  and  O5_30 
REMARK   11  A    between atoms: N8_34  and  N9_35 
REMARK   12  A    between atoms: N9_35  and  C15_37 
REMARK   13  A    between atoms: N11_44  and  N12_45 
ROOT
HETATM    1  C10 UNL     1       3.694  12.303  11.984  1.00  0.00     0.104 C 
HETATM    2  C11 UNL     1       3.106  13.411  12.787  1.00  0.00     0.033 C 
HETATM    3  C12 UNL     1       3.453  14.729  12.158  1.00  0.00     0.081 C 
HETATM    4  C13 UNL     1       3.767  14.610  10.676  1.00  0.00     0.239 C 
HETATM    5  C14 UNL     1       3.677  16.007  10.155  1.00  0.00     0.122 C 
HETATM    6  N7  UNL     1       3.613  17.105   9.778  1.00  0.00    -0.192 NA
HETATM    7  N8  UNL     1       3.038  13.644   9.989  1.00  0.00    -0.277 N 
HETATM    8  C19 UNL     1       3.291  12.304  10.550  1.00  0.00     0.172 C 
ENDROOT
BRANCH   4   9
HETATM    9  O5  UNL     1       5.148  14.249  10.653  1.00  0.00    -0.358 OA
ATOM     10  H5  UNL     1       5.170  13.482  10.093  1.00  0.00     0.213 HD
ENDBRANCH   4   9
BRANCH   7  11
HETATM   11  N9  UNL     1       1.750  13.863   9.624  1.00  0.00    -0.284 N 
ATOM     12  H9  UNL     1       1.269  14.669  10.025  1.00  0.00     0.188 HD
BRANCH  11  13
HETATM   13  C15 UNL     1       1.007  13.016   8.692  1.00  0.00     0.115 A 
HETATM   14  N10 UNL     1       1.352  12.705   7.501  1.00  0.00    -0.372 N 
HETATM   15  C16 UNL     1       0.396  11.858   6.883  1.00  0.00     0.148 A 
ATOM     16  H10 UNL     1       2.209  13.027   7.051  1.00  0.00     0.161 HD
HETATM   17  C17 UNL     1      -0.640  11.650   7.927  1.00  0.00    -0.004 A 
HETATM   18  C18 UNL     1      -0.240  12.354   8.969  1.00  0.00     0.047 A 
ENDBRANCH  11  13
ENDBRANCH   7  11
BRANCH   1  19
HETATM   19  N6  UNL     1       3.498  11.039  12.611  1.00  0.00    -0.353 N 
HETATM   20  C9  UNL     1       4.448  10.430  13.477  1.00  0.00     0.241 C 
HETATM   21  O4  UNL     1       5.534  10.952  13.686  1.00  0.00    -0.271 OA
ATOM     22  H6  UNL     1       2.627  10.542  12.428  1.00  0.00     0.163 HD
BRANCH  20  23
HETATM   23  C6  UNL     1       4.057   9.144  14.122  1.00  0.00     0.186 C 
BRANCH  23  24
HETATM   24  N5  UNL     1       5.069   8.275  14.529  1.00  0.00    -0.352 N 
ATOM     25  H5  UNL     1       5.886   8.663  15.000  1.00  0.00     0.162 HD
BRANCH  24  26
HETATM   26  C5  UNL     1       5.013   6.884  14.316  1.00  0.00     0.197 C 
HETATM   27  S1  UNL     1       6.239   6.131  13.558  1.00  0.00    -0.039 SA
BRANCH  26  28
HETATM   28  N4  UNL     1       3.888   6.120  14.718  1.00  0.00    -0.205 N 
ATOM     29  H4  UNL     1       3.841   5.898  15.712  1.00  0.00     0.204 HD
BRANCH  28  30
HETATM   30  N3  UNL     1       2.907   5.661  13.997  1.00  0.00    -0.276 NA
HETATM   31  C4  UNL     1       1.862   5.172  13.230  1.00  0.00     0.382 C 
HETATM   32  O1  UNL     1       1.564   4.050  12.913  1.00  0.00    -0.246 OA
BRANCH  31  33
HETATM   33  C3  UNL     1       0.925   6.240  12.716  1.00  0.00     0.228 A 
HETATM   34  N2  UNL     1       1.131   7.580  12.816  1.00  0.00    -0.277 N 
HETATM   35  N1  UNL     1       0.168   8.207  12.195  1.00  0.00    -0.286 N 
ATOM     36  H2  UNL     1       1.912   8.024  13.299  1.00  0.00     0.189 HD
HETATM   37  C2  UNL     1      -0.678   7.295  11.672  1.00  0.00     0.115 A 
ATOM     38  H1  UNL     1       0.072   9.219  12.117  1.00  0.00     0.188 HD
HETATM   39  C1  UNL     1      -1.919   7.583  10.885  1.00  0.00     0.092 C 
HETATM   40  N11 UNL     1      -0.202   6.093  12.003  1.00  0.00    -0.226 N 
BRANCH  40  41
HETATM   41  N12 UNL     1      -0.773   4.866  11.748  1.00  0.00    -0.335 N 
ATOM     42 2H12 UNL     1      -0.397   4.209  11.064  1.00  0.00     0.177 HD
ATOM     43 1H12 UNL     1      -1.571   4.441  12.221  1.00  0.00     0.177 HD
ENDBRANCH  40  41
ENDBRANCH  31  33
ENDBRANCH  28  30
ENDBRANCH  26  28
ENDBRANCH  24  26
ENDBRANCH  23  24
BRANCH  23  44
HETATM   44  C7  UNL     1       3.296   9.570  15.426  1.00  0.00     0.147 C 
BRANCH  44  45
HETATM   45  C8  UNL     1       4.103   9.297  16.619  1.00  0.00     0.175 C 
HETATM   46  O2  UNL     1       4.960  10.153  16.984  1.00  0.00    -0.648 OA
HETATM   47  O3  UNL     1       3.959   8.137  17.346  1.00  0.00    -0.648 OA
ENDBRANCH  44  45
ENDBRANCH  23  44
ENDBRANCH  20  23
ENDBRANCH   1  19
TORSDOF 13
ENDMDL
MODEL 2
REMARK VINA RESULT: -8.251123821      2.872      6.959
REMARK  13 active torsions:
REMARK  status: ('A' for Active; 'I' for Inactive)
REMARK    1  A    between atoms: C3_7  and  C4_8 
REMARK       I    between atoms: C4_8  and  N3_10 
REMARK    2  A    between atoms: N3_10  and  N4_11 
REMARK    3  A    between atoms: N4_11  and  C5_13 
REMARK    4  A    between atoms: C5_13  and  N5_15 
REMARK    5  A    between atoms: N5_15  and  C6_17 
REMARK    6  A    between atoms: C6_17  and  C7_18 
REMARK    7  A    between atoms: C6_17  and  C9_22 
REMARK    8  A    between atoms: C7_18  and  C8_19 
REMARK       I    between atoms: C9_22  and  N6_24 
REMARK    9  A    between atoms: N6_24  and  C10_26 
REMARK   10  A    between atoms: C13_29  and  O5_30 
REMARK   11  A    between atoms: N8_34  and  N9_35 
REMARK   12  A    between atoms: N9_35  and  C15_37 
REMARK   13  A    between atoms: N11_44  and  N12_45 
ROOT
HETATM    1  C10 UNL     1       4.273  10.367  13.663  1.00  0.00     0.104 C 
HETATM    2  C11 UNL     1       5.384  10.993  14.433  1.00  0.00     0.033 C 
HETATM    3  C12 UNL     1       5.848  10.052  15.507  1.00  0.00     0.081 C 
HETATM    4  C13 UNL     1       5.524   8.600  15.197  1.00  0.00     0.239 C 
HETATM    5  C14 UNL     1       6.391   7.812  16.124  1.00  0.00     0.122 C 
HETATM    6  N7  UNL     1       7.067   7.222  16.864  1.00  0.00    -0.192 NA
HETATM    7  N8  UNL     1       5.579   8.253  13.851  1.00  0.00    -0.277 N 
HETATM    8  C19 UNL     1       4.610   9.043  13.069  1.00  0.00     0.172 C 
ENDROOT
BRANCH   4   9
HETATM    9  O5  UNL     1       4.182   8.448  15.659  1.00  0.00    -0.358 OA
ATOM     10  H5  UNL     1       3.919   7.605  15.310  1.00  0.00     0.213 HD
ENDBRANCH   4   9
BRANCH   7  11
HETATM   11  N9  UNL     1       6.765   8.046  13.225  1.00  0.00    -0.284 N 
ATOM     12  H9  UNL     1       7.484   8.764  13.314  1.00  0.00     0.188 HD
BRANCH  11  13
HETATM   13  C15 UNL     1       7.077   6.858  12.432  1.00  0.00     0.115 A 
HETATM   14  N10 UNL     1       7.419   6.831  11.201  1.00  0.00    -0.372 N 
HETATM   15  C16 UNL     1       7.654   5.505  10.752  1.00  0.00     0.148 A 
ATOM     16  H10 UNL     1       7.512   7.660  10.613  1.00  0.00     0.161 HD
HETATM   17  C17 UNL     1       7.424   4.664  11.954  1.00  0.00    -0.004 A 
HETATM   18  C18 UNL     1       7.083   5.503  12.914  1.00  0.00     0.047 A 
ENDBRANCH  11  13
ENDBRANCH   7  11
BRANCH   1  19
HETATM   19  N6  UNL     1       3.717  11.271  12.714  1.00  0.00    -0.353 N 
HETATM   20  C9  UNL     1       4.172  11.386  11.371  1.00  0.00     0.241 C 
HETATM   21  O4  UNL     1       5.128  10.736  10.973  1.00  0.00    -0.271 OA
ATOM     22  H6  UNL     1       2.949  11.870  13.014  1.00  0.00     0.163 HD
BRANCH  20  23
HETATM   23  C6  UNL     1       3.428  12.320  10.476  1.00  0.00     0.186 C 
BRANCH  23  24
HETATM   24  N5  UNL     1       2.257  12.903  10.958  1.00  0.00    -0.352 N 
ATOM     25  H5  UNL     1       2.323  13.563  11.733  1.00  0.00     0.162 HD
BRANCH  24  26
HETATM   26  C5  UNL     1       0.986  12.621  10.421  1.00  0.00     0.197 C 
HETATM   27  S1  UNL     1       0.373  13.569   9.252  1.00  0.00    -0.039 SA
BRANCH  26  28
HETATM   28  N4  UNL     1       0.203  11.541  10.904  1.00  0.00    -0.205 N 
ATOM     29  H4  UNL     1      -0.658  11.359  10.387  1.00  0.00     0.204 HD
BRANCH  28  30
HETATM   30  N3  UNL     1       0.426  10.750  11.912  1.00  0.00    -0.276 NA
HETATM   31  C4  UNL     1       0.664   9.909  12.986  1.00  0.00     0.382 C 
HETATM   32  O1  UNL     1       0.924  10.142  14.138  1.00  0.00    -0.246 OA
BRANCH  31  33
HETATM   33  C3  UNL     1       0.562   8.439  12.650  1.00  0.00     0.228 A 
HETATM   34  N2  UNL     1       1.429   7.477  13.062  1.00  0.00    -0.277 N 
HETATM   35  N1  UNL     1       0.995   6.312  12.661  1.00  0.00    -0.286 N 
ATOM     36  H2  UNL     1       2.280   7.639  13.599  1.00  0.00     0.189 HD
HETATM   37  C2  UNL     1      -0.161   6.487  11.988  1.00  0.00     0.115 A 
ATOM     38  H1  UNL     1       1.455   5.418  12.828  1.00  0.00     0.188 HD
HETATM   39  C1  UNL     1      -0.991   5.414  11.354  1.00  0.00     0.092 C 
HETATM   40  N11 UNL     1      -0.413   7.798  11.987  1.00  0.00    -0.226 N 
BRANCH  40  41
HETATM   41  N12 UNL     1      -1.448   8.453  11.358  1.00  0.00    -0.335 N 
ATOM     42 2H12 UNL     1      -1.380   8.814  10.406  1.00  0.00     0.177 HD
ATOM     43 1H12 UNL     1      -2.392   8.608  11.712  1.00  0.00     0.177 HD
ENDBRANCH  40  41
ENDBRANCH  31  33
ENDBRANCH  28  30
ENDBRANCH  26  28
ENDBRANCH  24  26
ENDBRANCH  23  24
BRANCH  23  44
HETATM   44  C7  UNL     1       4.429  13.499  10.215  1.00  0.00     0.147 C 
BRANCH  44  45
HETATM   45  C8  UNL     1       4.266  14.558  11.214  1.00  0.00     0.175 C 
HETATM   46  O2  UNL     1       3.793  15.673  10.848  1.00  0.00    -0.648 OA
HETATM   47  O3  UNL     1       4.617  14.377  12.533  1.00  0.00    -0.648 OA
ENDBRANCH  44  45
ENDBRANCH  23  44
ENDBRANCH  20  23
ENDBRANCH   1  19
TORSDOF 13
ENDMDL
MODEL 3
REMARK VINA RESULT: -8.112609652      2.851      7.070
REMARK  13 active torsions:
REMARK  status: ('A' for Active; 'I' for Inactive)
REMARK    1  A    between atoms: C3_7  and  C4_8 
REMARK       I    between atoms: C4_8  and  N3_10 
REMARK    2  A    between atoms: N3_10  and  N4_11 
REMARK    3  A    between atoms: N4_11  and  C5_13 
REMARK    4  A    between atoms: C5_13  and  N5_15 
REMARK    5  A    between atoms: N5_15  and  C6_17 
REMARK    6  A    between atoms: C6_17  and  C7_18 
REMARK    7  A    between atoms: C6_17  and  C9_22 
REMARK    8  A    between atoms: C7_18  and  C8_19 
REMARK       I    between atoms: C9_22  and  N6_24 
REMARK    9  A    between atoms: N6_24  and  C10_26 
REMARK   10  A    between atoms: C13_29  and  O5_30 
REMARK   11  A    between atoms: N8_34  and  N9_35 
REMARK   12  A    between atoms: N9_35  and  C15_37 
REMARK   13  A    between atoms: N11_44  and  N12_45 
ROOT
HETATM    1  C10 UNL     1       4.173  10.460  13.588  1.00  0.00     0.104 C 
HETATM    2  C11 UNL     1       5.289  11.077  14.358  1.00  0.00     0.033 C 
HETATM    3  C12 UNL     1       5.751  10.129  15.426  1.00  0.00     0.081 C 
HETATM    4  C13 UNL     1       5.421   8.680  15.110  1.00  0.00     0.239 C 
HETATM    5  C14 UNL     1       6.287   7.883  16.030  1.00  0.00     0.122 C 
HETATM    6  N7  UNL     1       6.962   7.287  16.765  1.00  0.00    -0.192 NA
HETATM    7  N8  UNL     1       5.470   8.339  13.762  1.00  0.00    -0.277 N 
HETATM    8  C19 UNL     1       4.502   9.137  12.987  1.00  0.00     0.172 C 
ENDROOT
BRANCH   4   9
HETATM    9  O5  UNL     1       4.080   8.531  15.574  1.00  0.00    -0.358 OA
ATOM     10  H5  UNL     1       3.664   8.011  14.897  1.00  0.00     0.213 HD
ENDBRANCH   4   9
BRANCH   7  11
HETATM   11  N9  UNL     1       6.654   8.130  13.132  1.00  0.00    -0.284 N 
ATOM     12  H9  UNL     1       7.328   8.896  13.114  1.00  0.00     0.188 HD
BRANCH  11  13
HETATM   13  C15 UNL     1       7.023   6.877  12.475  1.00  0.00     0.115 A 
HETATM   14  N10 UNL     1       7.438   6.737  11.275  1.00  0.00    -0.372 N 
HETATM   15  C16 UNL     1       7.711   5.378  10.971  1.00  0.00     0.148 A 
ATOM     16  H10 UNL     1       7.557   7.507  10.616  1.00  0.00     0.161 HD
HETATM   17  C17 UNL     1       7.417   4.652  12.233  1.00  0.00    -0.004 A 
HETATM   18  C18 UNL     1       7.013   5.574  13.085  1.00  0.00     0.047 A 
ENDBRANCH  11  13
ENDBRANCH   7  11
BRANCH   1  19
HETATM   19  N6  UNL     1       3.619  11.371  12.645  1.00  0.00    -0.353 N 
HETATM   20  C9  UNL     1       4.113  11.538  11.322  1.00  0.00     0.241 C 
HETATM   21  O4  UNL     1       5.102  10.930  10.938  1.00  0.00    -0.271 OA
ATOM     22  H6  UNL     1       2.821  11.937  12.935  1.00  0.00     0.163 HD
BRANCH  20  23
HETATM   23  C6  UNL     1       3.368  12.471  10.428  1.00  0.00     0.186 C 
BRANCH  23  24
HETATM   24  N5  UNL     1       2.269  13.151  10.952  1.00  0.00    -0.352 N 
ATOM     25  H5  UNL     1       2.427  13.844  11.683  1.00  0.00     0.162 HD
BRANCH  24  26
HETATM   26  C5  UNL     1       0.950  12.923  10.514  1.00  0.00     0.197 C 
HETATM   27  S1  UNL     1       0.125  14.113   9.775  1.00  0.00    -0.039 SA
BRANCH  26  28
HETATM   28  N4  UNL     1       0.302  11.681  10.737  1.00  0.00    -0.205 N 
ATOM     29  H4  UNL     1      -0.354  11.393  10.011  1.00  0.00     0.204 HD
BRANCH  28  30
HETATM   30  N3  UNL     1       0.426  10.857  11.736  1.00  0.00    -0.276 NA
HETATM   31  C4  UNL     1       0.557   9.981  12.801  1.00  0.00     0.382 C 
HETATM   32  O1  UNL     1       0.912  10.156  13.937  1.00  0.00    -0.246 OA
BRANCH  31  33
HETATM   33  C3  UNL     1       0.170   8.557  12.476  1.00  0.00     0.228 A 
HETATM   34  N2  UNL     1      -0.908   8.187  11.734  1.00  0.00    -0.277 N 
HETATM   35  N1  UNL     1      -0.894   6.889  11.582  1.00  0.00    -0.286 N 
ATOM     36  H2  UNL     1      -1.612   8.820  11.357  1.00  0.00     0.189 HD
HETATM   37  C2  UNL     1       0.190   6.389  12.211  1.00  0.00     0.115 A 
ATOM     38  H1  UNL     1      -1.589   6.344  11.071  1.00  0.00     0.188 HD
HETATM   39  C1  UNL     1       0.584   4.946  12.290  1.00  0.00     0.092 C 
HETATM   40  N11 UNL     1       0.831   7.424  12.757  1.00  0.00    -0.226 N 
BRANCH  40  41
HETATM   41  N12 UNL     1       1.952   7.389  13.556  1.00  0.00    -0.335 N 
ATOM     42 2H12 UNL     1       2.828   6.955  13.266  1.00  0.00     0.177 HD
ATOM     43 1H12 UNL     1       2.075   7.818  14.474  1.00  0.00     0.177 HD
ENDBRANCH  40  41
ENDBRANCH  31  33
ENDBRANCH  28  30
ENDBRANCH  26  28
ENDBRANCH  24  26
ENDBRANCH  23  24
BRANCH  23  44
HETATM   44  C7  UNL     1       4.418  13.569  10.039  1.00  0.00     0.147 C 
BRANCH  44  45
HETATM   45  C8  UNL     1       4.193  14.804  10.796  1.00  0.00     0.175 C 
HETATM   46  O2  UNL     1       3.710  15.807  10.195  1.00  0.00    -0.648 OA
HETATM   47  O3  UNL     1       4.496  14.904  12.135  1.00  0.00    -0.648 OA
ENDBRANCH  44  45
ENDBRANCH  23  44
ENDBRANCH  20  23
ENDBRANCH   1  19
TORSDOF 13
ENDMDL
MODEL 4
REMARK VINA RESULT: -8.050315901      2.870      7.042
REMARK  13 active torsions:
REMARK  status: ('A' for Active; 'I' for Inactive)
REMARK    1  A    between atoms: C3_7  and  C4_8 
REMARK       I    between atoms: C4_8  and  N3_10 
REMARK    2  A    between atoms: N3_10  and  N4_11 
REMARK    3  A    between atoms: N4_11  and  C5_13 
REMARK    4  A    between atoms: C5_13  and  N5_15 
REMARK    5  A    between atoms: N5_15  and  C6_17 
REMARK    6  A    between atoms: C6_17  and  C7_18 
REMARK    7  A    between atoms: C6_17  and  C9_22 
REMARK    8  A    between atoms: C7_18  and  C8_19 
REMARK       I    between atoms: C9_22  and  N6_24 
REMARK    9  A    between atoms: N6_24  and  C10_26 
REMARK   10  A    between atoms: C13_29  and  O5_30 
REMARK   11  A    between atoms: N8_34  and  N9_35 
REMARK   12  A    between atoms: N9_35  and  C15_37 
REMARK   13  A    between atoms: N11_44  and  N12_45 
ROOT
HETATM    1  C10 UNL     1       4.195   9.985  14.047  1.00  0.00     0.104 C 
HETATM    2  C11 UNL     1       5.299  10.674  14.774  1.00  0.00     0.033 C 
HETATM    3  C12 UNL     1       5.885   9.746  15.797  1.00  0.00     0.081 C 
HETATM    4  C13 UNL     1       5.650   8.281  15.468  1.00  0.00     0.239 C 
HETATM    5  C14 UNL     1       6.620   7.538  16.328  1.00  0.00     0.122 C 
HETATM    6  N7  UNL     1       7.375   6.983  17.016  1.00  0.00    -0.192 NA
HETATM    7  N8  UNL     1       5.656   7.968  14.113  1.00  0.00    -0.277 N 
HETATM    8  C19 UNL     1       4.592   8.703  13.403  1.00  0.00     0.172 C 
ENDROOT
BRANCH   4   9
HETATM    9  O5  UNL     1       4.349   8.023  15.996  1.00  0.00    -0.358 OA
ATOM     10  H5  UNL     1       3.785   8.062  15.232  1.00  0.00     0.213 HD
ENDBRANCH   4   9
BRANCH   7  11
HETATM   11  N9  UNL     1       6.818   7.861  13.420  1.00  0.00    -0.284 N 
ATOM     12  H9  UNL     1       7.533   8.573  13.574  1.00  0.00     0.188 HD
BRANCH  11  13
HETATM   13  C15 UNL     1       7.109   6.791  12.468  1.00  0.00     0.115 A 
HETATM   14  N10 UNL     1       7.409   6.927  11.234  1.00  0.00    -0.372 N 
HETATM   15  C16 UNL     1       7.637   5.674  10.608  1.00  0.00     0.148 A 
ATOM     16  H10 UNL     1       7.477   7.827  10.756  1.00  0.00     0.161 HD
HETATM   17  C17 UNL     1       7.452   4.680  11.697  1.00  0.00    -0.004 A 
HETATM   18  C18 UNL     1       7.140   5.384  12.769  1.00  0.00     0.047 A 
ENDBRANCH  11  13
ENDBRANCH   7  11
BRANCH   1  19
HETATM   19  N6  UNL     1       3.525  10.868  13.152  1.00  0.00    -0.353 N 
HETATM   20  C9  UNL     1       3.982  11.156  11.836  1.00  0.00     0.241 C 
HETATM   21  O4  UNL     1       5.034  10.691  11.420  1.00  0.00    -0.271 OA
ATOM     22  H6  UNL     1       2.668  11.318  13.473  1.00  0.00     0.163 HD
BRANCH  20  23
HETATM   23  C6  UNL     1       3.122  12.034  10.992  1.00  0.00     0.186 C 
BRANCH  23  24
HETATM   24  N5  UNL     1       2.195  12.859  11.628  1.00  0.00    -0.352 N 
ATOM     25  H5  UNL     1       2.534  13.685  12.121  1.00  0.00     0.162 HD
BRANCH  24  26
HETATM   26  C5  UNL     1       0.811  12.600  11.621  1.00  0.00     0.197 C 
HETATM   27  S1  UNL     1      -0.189  13.520  12.514  1.00  0.00    -0.039 SA
BRANCH  26  28
HETATM   28  N4  UNL     1       0.263  11.525  10.875  1.00  0.00    -0.205 N 
ATOM     29  H4  UNL     1       0.380  11.590   9.863  1.00  0.00     0.204 HD
BRANCH  28  30
HETATM   30  N3  UNL     1      -0.367  10.469  11.298  1.00  0.00    -0.276 NA
HETATM   31  C4  UNL     1      -1.038   9.344  11.748  1.00  0.00     0.382 C 
HETATM   32  O1  UNL     1      -2.213   9.113  11.869  1.00  0.00    -0.246 OA
BRANCH  31  33
HETATM   33  C3  UNL     1      -0.130   8.202  12.140  1.00  0.00     0.228 A 
HETATM   34  N2  UNL     1       1.006   8.320  12.877  1.00  0.00    -0.277 N 
HETATM   35  N1  UNL     1       1.496   7.129  13.098  1.00  0.00    -0.286 N 
ATOM     36  H2  UNL     1       1.410   9.197  13.204  1.00  0.00     0.189 HD
HETATM   37  C2  UNL     1       0.690   6.214  12.520  1.00  0.00     0.115 A 
ATOM     38  H1  UNL     1       2.347   6.925  13.622  1.00  0.00     0.188 HD
HETATM   39  C1  UNL     1       0.885   4.729  12.527  1.00  0.00     0.092 C 
HETATM   40  N11 UNL     1      -0.301   6.887  11.933  1.00  0.00    -0.226 N 
BRANCH  40  41
HETATM   41  N12 UNL     1      -1.320   6.376  11.162  1.00  0.00    -0.335 N 
ATOM     42 2H12 UNL     1      -1.304   6.385  10.142  1.00  0.00     0.177 HD
ATOM     43 1H12 UNL     1      -2.160   5.892  11.482  1.00  0.00     0.177 HD
ENDBRANCH  40  41
ENDBRANCH  31  33
ENDBRANCH  28  30
ENDBRANCH  26  28
ENDBRANCH  24  26
ENDBRANCH  23  24
BRANCH  23  44
HETATM   44  C7  UNL     1       4.128  12.989  10.261  1.00  0.00     0.147 C 
BRANCH  44  45
HETATM   45  C8  UNL     1       4.135  14.318  10.878  1.00  0.00     0.175 C 
HETATM   46  O2  UNL     1       3.617  15.285  10.247  1.00  0.00    -0.648 OA
HETATM   47  O3  UNL     1       4.693  14.544  12.116  1.00  0.00    -0.648 OA
ENDBRANCH  44  45
ENDBRANCH  23  44
ENDBRANCH  20  23
ENDBRANCH   1  19
TORSDOF 13
ENDMDL
MODEL 5
REMARK VINA RESULT: -7.963797139      3.238      7.024
REMARK  13 active torsions:
REMARK  status: ('A' for Active; 'I' for Inactive)
REMARK    1  A    between atoms: C3_7  and  C4_8 
REMARK       I    between atoms: C4_8  and  N3_10 
REMARK    2  A    between atoms: N3_10  and  N4_11 
REMARK    3  A    between atoms: N4_11  and  C5_13 
REMARK    4  A    between atoms: C5_13  and  N5_15 
REMARK    5  A    between atoms: N5_15  and  C6_17 
REMARK    6  A    between atoms: C6_17  and  C7_18 
REMARK    7  A    between atoms: C6_17  and  C9_22 
REMARK    8  A    between atoms: C7_18  and  C8_19 
REMARK       I    between atoms: C9_22  and  N6_24 
REMARK    9  A    between atoms: N6_24  and  C10_26 
REMARK   10  A    between atoms: C13_29  and  O5_30 
REMARK   11  A    between atoms: N8_34  and  N9_35 
REMARK   12  A    between atoms: N9_35  and  C15_37 
REMARK   13  A    between atoms: N11_44  and  N12_45 
ROOT
HETATM    1  C10 UNL     1       4.186   9.586  13.892  1.00  0.00     0.104 C 
HETATM    2  C11 UNL     1       5.241  10.395  14.566  1.00  0.00     0.033 C 
HETATM    3  C12 UNL     1       5.888   9.580  15.647  1.00  0.00     0.081 C 
HETATM    4  C13 UNL     1       5.751   8.084  15.419  1.00  0.00     0.239 C 
HETATM    5  C14 UNL     1       6.769   7.468  16.323  1.00  0.00     0.122 C 
HETATM    6  N7  UNL     1       7.559   7.013  17.044  1.00  0.00    -0.192 NA
HETATM    7  N8  UNL     1       5.779   7.680  14.088  1.00  0.00    -0.277 N 
HETATM    8  C19 UNL     1       4.668   8.292  13.335  1.00  0.00     0.172 C 
ENDROOT
BRANCH   4   9
HETATM    9  O5  UNL     1       4.471   7.776  15.969  1.00  0.00    -0.358 OA
ATOM     10  H5  UNL     1       4.234   6.961  15.542  1.00  0.00     0.213 HD
ENDBRANCH   4   9
BRANCH   7  11
HETATM   11  N9  UNL     1       6.946   7.605  13.400  1.00  0.00    -0.284 N 
ATOM     12  H9  UNL     1       7.695   8.247  13.657  1.00  0.00     0.188 HD
BRANCH  11  13
HETATM   13  C15 UNL     1       7.196   6.660  12.312  1.00  0.00     0.115 A 
HETATM   14  N10 UNL     1       7.353   6.943  11.076  1.00  0.00    -0.372 N 
HETATM   15  C16 UNL     1       7.586   5.779  10.299  1.00  0.00     0.148 A 
ATOM     16  H10 UNL     1       7.314   7.888  10.695  1.00  0.00     0.161 HD
HETATM   17  C17 UNL     1       7.579   4.669  11.286  1.00  0.00    -0.004 A 
HETATM   18  C18 UNL     1       7.343   5.236  12.454  1.00  0.00     0.047 A 
ENDBRANCH  11  13
ENDBRANCH   7  11
BRANCH   1  19
HETATM   19  N6  UNL     1       3.459  10.359  12.942  1.00  0.00    -0.353 N 
HETATM   20  C9  UNL     1       2.065  10.624  13.039  1.00  0.00     0.241 C 
HETATM   21  O4  UNL     1       1.394  10.139  13.939  1.00  0.00    -0.271 OA
ATOM     22  H6  UNL     1       3.967  10.744  12.146  1.00  0.00     0.163 HD
BRANCH  20  23
HETATM   23  C6  UNL     1       1.467  11.521  12.009  1.00  0.00     0.186 C 
BRANCH  23  24
HETATM   24  N5  UNL     1       0.089  11.464  11.803  1.00  0.00    -0.352 N 
ATOM     25  H5  UNL     1      -0.530  11.579  12.606  1.00  0.00     0.162 HD
BRANCH  24  26
HETATM   26  C5  UNL     1      -0.486  11.255  10.535  1.00  0.00     0.197 C 
HETATM   27  S1  UNL     1       0.074  12.075   9.248  1.00  0.00    -0.039 SA
BRANCH  26  28
HETATM   28  N4  UNL     1      -1.577  10.367  10.355  1.00  0.00    -0.205 N 
ATOM     29  H4  UNL     1      -2.380  10.754   9.859  1.00  0.00     0.204 HD
BRANCH  28  30
HETATM   30  N3  UNL     1      -1.698   9.128  10.734  1.00  0.00    -0.276 NA
HETATM   31  C4  UNL     1      -1.828   7.809  11.135  1.00  0.00     0.382 C 
HETATM   32  O1  UNL     1      -2.748   7.038  11.051  1.00  0.00    -0.246 OA
BRANCH  31  33
HETATM   33  C3  UNL     1      -0.585   7.237  11.778  1.00  0.00     0.228 A 
HETATM   34  N2  UNL     1       0.371   7.961  12.418  1.00  0.00    -0.277 N 
HETATM   35  N1  UNL     1       1.256   7.144  12.923  1.00  0.00    -0.286 N 
ATOM     36  H2  UNL     1       0.393   8.977  12.492  1.00  0.00     0.189 HD
HETATM   37  C2  UNL     1       0.895   5.877  12.631  1.00  0.00     0.115 A 
ATOM     38  H1  UNL     1       2.084   7.419  13.451  1.00  0.00     0.188 HD
HETATM   39  C1  UNL     1       1.632   4.632  13.017  1.00  0.00     0.092 C 
HETATM   40  N11 UNL     1      -0.236   5.950  11.926  1.00  0.00    -0.226 N 
BRANCH  40  41
HETATM   41  N12 UNL     1      -0.934   4.913  11.350  1.00  0.00    -0.335 N 
ATOM     42 2H12 UNL     1      -0.503   4.020  11.107  1.00  0.00     0.177 HD
ATOM     43 1H12 UNL     1      -1.934   4.871  11.150  1.00  0.00     0.177 HD
ENDBRANCH  40  41
ENDBRANCH  31  33
ENDBRANCH  28  30
ENDBRANCH  26  28
ENDBRANCH  24  26
ENDBRANCH  23  24
BRANCH  23  44
HETATM   44  C7  UNL     1       1.774  12.972  12.522  1.00  0.00     0.147 C 
BRANCH  44  45
HETATM   45  C8  UNL     1       0.566  13.608  13.054  1.00  0.00     0.175 C 
HETATM   46  O2  UNL     1       0.232  13.376  14.252  1.00  0.00    -0.648 OA
HETATM   47  O3  UNL     1      -0.217  14.442  12.287  1.00  0.00    -0.648 OA
ENDBRANCH  44  45
ENDBRANCH  23  44
ENDBRANCH  20  23
ENDBRANCH   1  19
TORSDOF 13
ENDMDL
