MODEL 1
REMARK VINA RESULT: -7.829830642      0.000      0.000
REMARK  8 active torsions:
REMARK  status: ('A' for Active; 'I' for Inactive)
REMARK    1  A    between atoms: N3_4  and  C2_6 
REMARK    2  A    between atoms: C2_6  and  C3_7 
REMARK    3  A    between atoms: C3_7  and  C4_8 
REMARK    4  A    between atoms: C4_8  and  C5_9 
REMARK    5  A    between atoms: C7_14  and  C8_15 
REMARK    6  A    between atoms: C8_15  and  C9_16 
REMARK    7  A    between atoms: C9_16  and  C10_17 
REMARK    8  A    between atoms: C10_17  and  N5_18 
ROOT
HETATM    1  C5  UNL     1       6.206  38.054  -3.027  1.00  0.00     0.176 C 
HETATM    2  N4  UNL     1       6.123  39.412  -3.541  1.00  0.00    -0.346 N 
ATOM      3  H4  UNL     1       6.782  39.711  -4.260  1.00  0.00     0.163 HD
HETATM    4  C6  UNL     1       5.156  40.329  -3.072  1.00  0.00     0.241 C 
HETATM    5  O1  UNL     1       5.304  41.545  -3.333  1.00  0.00    -0.271 OA
HETATM    6  C7  UNL     1       3.995  39.897  -2.295  1.00  0.00     0.176 C 
HETATM    7  N8  UNL     1       4.033  38.519  -1.874  1.00  0.00    -0.346 N 
ATOM      8  H8  UNL     1       3.440  38.207  -1.106  1.00  0.00     0.163 HD
HETATM    9  C12 UNL     1       4.890  37.595  -2.521  1.00  0.00     0.241 C 
HETATM   10  O2  UNL     1       4.549  36.383  -2.676  1.00  0.00    -0.271 OA
ENDROOT
BRANCH   1  11
HETATM   11  C4  UNL     1       7.236  38.073  -1.940  1.00  0.00     0.036 C 
BRANCH  11  12
HETATM   12  C3  UNL     1       8.562  37.490  -2.308  1.00  0.00     0.022 C 
BRANCH  12  13
HETATM   13  C2  UNL     1       9.544  38.605  -2.639  1.00  0.00     0.122 C 
BRANCH  13  14
HETATM   14  N3  UNL     1      10.486  38.667  -1.541  1.00  0.00    -0.367 N 
HETATM   15  C1  UNL     1      11.457  39.500  -1.580  1.00  0.00     0.196 C 
HETATM   16  N1  UNL     1      12.355  39.519  -0.472  1.00  0.00    -0.067 NA
HETATM   17  N2  UNL     1      11.596  40.351  -2.705  1.00  0.00    -0.067 NA
ATOM     18  H3  UNL     1      10.375  38.048  -0.739  1.00  0.00     0.161 HD
ENDBRANCH  13  14
ENDBRANCH  12  13
ENDBRANCH  11  12
ENDBRANCH   1  11
BRANCH   6  19
HETATM   19  C8  UNL     1       3.628  40.814  -1.159  1.00  0.00     0.036 C 
BRANCH  19  20
HETATM   20  C9  UNL     1       2.446  40.315  -0.354  1.00  0.00     0.022 C 
BRANCH  20  21
HETATM   21  C10 UNL     1       1.481  41.482  -0.077  1.00  0.00     0.122 C 
BRANCH  21  22
HETATM   22  N5  UNL     1       1.001  42.020  -1.330  1.00  0.00    -0.367 N 
HETATM   23  C11 UNL     1       0.294  43.081  -1.450  1.00  0.00     0.196 C 
HETATM   24  N6  UNL     1      -0.105  43.487  -2.748  1.00  0.00    -0.067 NA
HETATM   25  N7  UNL     1      -0.101  43.857  -0.333  1.00  0.00    -0.067 NA
ATOM     26  H5  UNL     1       1.245  41.516  -2.182  1.00  0.00     0.161 HD
ENDBRANCH  21  22
ENDBRANCH  20  21
ENDBRANCH  19  20
ENDBRANCH   6  19
TORSDOF 8
ENDMDL
MODEL 2
REMARK VINA RESULT: -7.418366196      2.190      2.858
REMARK  8 active torsions:
REMARK  status: ('A' for Active; 'I' for Inactive)
REMARK    1  A    between atoms: N3_4  and  C2_6 
REMARK    2  A    between atoms: C2_6  and  C3_7 
REMARK    3  A    between atoms: C3_7  and  C4_8 
REMARK    4  A    between atoms: C4_8  and  C5_9 
REMARK    5  A    between atoms: C7_14  and  C8_15 
REMARK    6  A    between atoms: C8_15  and  C9_16 
REMARK    7  A    between atoms: C9_16  and  C10_17 
REMARK    8  A    between atoms: C10_17  and  N5_18 
ROOT
HETATM    1  C5  UNL     1       6.593  38.181  -3.289  1.00  0.00     0.176 C 
HETATM    2  N4  UNL     1       6.298  39.543  -3.703  1.00  0.00    -0.346 N 
ATOM      3  H4  UNL     1       6.867  39.975  -4.431  1.00  0.00     0.163 HD
HETATM    4  C6  UNL     1       5.244  40.286  -3.125  1.00  0.00     0.241 C 
HETATM    5  O1  UNL     1       5.211  41.525  -3.308  1.00  0.00    -0.271 OA
HETATM    6  C7  UNL     1       4.199  39.651  -2.326  1.00  0.00     0.176 C 
HETATM    7  N8  UNL     1       4.447  38.267  -2.004  1.00  0.00    -0.346 N 
ATOM      8  H8  UNL     1       3.946  37.830  -1.231  1.00  0.00     0.163 HD
HETATM    9  C12 UNL     1       5.382  37.513  -2.754  1.00  0.00     0.241 C 
HETATM   10  O2  UNL     1       5.200  36.278  -2.975  1.00  0.00    -0.271 OA
ENDROOT
BRANCH   1  11
HETATM   11  C4  UNL     1       7.672  38.275  -2.254  1.00  0.00     0.036 C 
BRANCH  11  12
HETATM   12  C3  UNL     1       9.067  38.273  -2.788  1.00  0.00     0.022 C 
BRANCH  12  13
HETATM   13  C2  UNL     1       9.469  36.858  -3.181  1.00  0.00     0.122 C 
BRANCH  13  14
HETATM   14  N3  UNL     1       9.604  36.851  -4.622  1.00  0.00    -0.367 N 
HETATM   15  C1  UNL     1       9.694  35.739  -5.250  1.00  0.00     0.196 C 
HETATM   16  N1  UNL     1       9.825  35.790  -6.669  1.00  0.00    -0.067 NA
HETATM   17  N2  UNL     1       9.660  34.525  -4.518  1.00  0.00    -0.067 NA
ATOM     18  H3  UNL     1       9.629  37.731  -5.137  1.00  0.00     0.161 HD
ENDBRANCH  13  14
ENDBRANCH  12  13
ENDBRANCH  11  12
ENDBRANCH   1  11
BRANCH   6  19
HETATM   19  C8  UNL     1       3.776  40.436  -1.112  1.00  0.00     0.036 C 
BRANCH  19  20
HETATM   20  C9  UNL     1       2.342  40.169  -0.705  1.00  0.00     0.022 C 
BRANCH  20  21
HETATM   21  C10 UNL     1       1.503  41.444  -0.908  1.00  0.00     0.122 C 
BRANCH  21  22
HETATM   22  N5  UNL     1       1.114  41.976   0.379  1.00  0.00    -0.367 N 
HETATM   23  C11 UNL     1       0.416  43.034   0.555  1.00  0.00     0.196 C 
HETATM   24  N6  UNL     1       0.112  43.434   1.880  1.00  0.00    -0.067 NA
HETATM   25  N7  UNL     1      -0.060  43.814  -0.528  1.00  0.00    -0.067 NA
ATOM     26  H5  UNL     1       1.420  41.469   1.210  1.00  0.00     0.161 HD
ENDBRANCH  21  22
ENDBRANCH  20  21
ENDBRANCH  19  20
ENDBRANCH   6  19
TORSDOF 8
ENDMDL
MODEL 3
REMARK VINA RESULT: -7.416351914      5.872      9.001
REMARK  8 active torsions:
REMARK  status: ('A' for Active; 'I' for Inactive)
REMARK    1  A    between atoms: N3_4  and  C2_6 
REMARK    2  A    between atoms: C2_6  and  C3_7 
REMARK    3  A    between atoms: C3_7  and  C4_8 
REMARK    4  A    between atoms: C4_8  and  C5_9 
REMARK    5  A    between atoms: C7_14  and  C8_15 
REMARK    6  A    between atoms: C8_15  and  C9_16 
REMARK    7  A    between atoms: C9_16  and  C10_17 
REMARK    8  A    between atoms: C10_17  and  N5_18 
ROOT
HETATM    1  C5  UNL     1       9.510  35.052  -4.449  1.00  0.00     0.176 C 
HETATM    2  N4  UNL     1      10.044  35.820  -5.562  1.00  0.00    -0.346 N 
ATOM      3  H4  UNL     1      10.674  36.599  -5.370  1.00  0.00     0.163 HD
HETATM    4  C6  UNL     1       9.715  35.518  -6.902  1.00  0.00     0.241 C 
HETATM    5  O1  UNL     1       9.967  36.367  -7.789  1.00  0.00    -0.271 OA
HETATM    6  C7  UNL     1       9.093  34.251  -7.278  1.00  0.00     0.176 C 
HETATM    7  N8  UNL     1       8.656  33.443  -6.165  1.00  0.00    -0.346 N 
ATOM      8  H8  UNL     1       7.968  32.705  -6.314  1.00  0.00     0.163 HD
HETATM    9  C12 UNL     1       9.176  33.669  -4.868  1.00  0.00     0.241 C 
HETATM   10  O2  UNL     1       9.361  32.709  -4.060  1.00  0.00    -0.271 OA
ENDROOT
BRANCH   1  11
HETATM   11  C4  UNL     1       8.298  35.789  -3.967  1.00  0.00     0.036 C 
BRANCH  11  12
HETATM   12  C3  UNL     1       8.526  37.219  -3.601  1.00  0.00     0.022 C 
BRANCH  12  13
HETATM   13  C2  UNL     1       7.570  37.628  -2.489  1.00  0.00     0.122 C 
BRANCH  13  14
HETATM   14  N3  UNL     1       6.837  38.778  -2.975  1.00  0.00    -0.367 N 
HETATM   15  C1  UNL     1       5.558  38.745  -3.023  1.00  0.00     0.196 C 
HETATM   16  N1  UNL     1       4.885  39.905  -3.509  1.00  0.00    -0.067 NA
HETATM   17  N2  UNL     1       4.877  37.575  -2.600  1.00  0.00    -0.067 NA
ATOM     18  H3  UNL     1       7.338  39.612  -3.278  1.00  0.00     0.161 HD
ENDBRANCH  13  14
ENDBRANCH  12  13
ENDBRANCH  11  12
ENDBRANCH   1  11
BRANCH   6  19
HETATM   19  C8  UNL     1       8.023  34.367  -8.332  1.00  0.00     0.036 C 
BRANCH  19  20
HETATM   20  C9  UNL     1       7.376  33.040  -8.668  1.00  0.00     0.022 C 
BRANCH  20  21
HETATM   21  C10 UNL     1       6.663  33.144 -10.028  1.00  0.00     0.122 C 
BRANCH  21  22
HETATM   22  N5  UNL     1       6.279  34.517 -10.268  1.00  0.00    -0.367 N 
HETATM   23  C11 UNL     1       5.230  34.886 -10.903  1.00  0.00     0.196 C 
HETATM   24  N6  UNL     1       4.984  36.273 -11.060  1.00  0.00    -0.067 NA
HETATM   25  N7  UNL     1       4.313  33.956 -11.452  1.00  0.00    -0.067 NA
ATOM     26  H5  UNL     1       6.890  35.248  -9.903  1.00  0.00     0.161 HD
ENDBRANCH  21  22
ENDBRANCH  20  21
ENDBRANCH  19  20
ENDBRANCH   6  19
TORSDOF 8
ENDMDL
MODEL 4
REMARK VINA RESULT: -7.305926978      6.737     10.077
REMARK  8 active torsions:
REMARK  status: ('A' for Active; 'I' for Inactive)
REMARK    1  A    between atoms: N3_4  and  C2_6 
REMARK    2  A    between atoms: C2_6  and  C3_7 
REMARK    3  A    between atoms: C3_7  and  C4_8 
REMARK    4  A    between atoms: C4_8  and  C5_9 
REMARK    5  A    between atoms: C7_14  and  C8_15 
REMARK    6  A    between atoms: C8_15  and  C9_16 
REMARK    7  A    between atoms: C9_16  and  C10_17 
REMARK    8  A    between atoms: C10_17  and  N5_18 
ROOT
HETATM    1  C5  UNL     1       7.522  32.488  -7.968  1.00  0.00     0.176 C 
HETATM    2  N4  UNL     1       6.937  32.978  -6.730  1.00  0.00    -0.346 N 
ATOM      3  H4  UNL     1       5.989  32.694  -6.484  1.00  0.00     0.163 HD
HETATM    4  C6  UNL     1       7.644  33.838  -5.860  1.00  0.00     0.241 C 
HETATM    5  O1  UNL     1       7.008  34.448  -4.969  1.00  0.00    -0.271 OA
HETATM    6  C7  UNL     1       9.088  34.032  -5.971  1.00  0.00     0.176 C 
HETATM    7  N8  UNL     1       9.683  33.454  -7.151  1.00  0.00    -0.346 N 
ATOM      8  H8  UNL     1      10.599  33.774  -7.465  1.00  0.00     0.163 HD
HETATM    9  C12 UNL     1       9.002  32.445  -7.876  1.00  0.00     0.241 C 
HETATM   10  O2  UNL     1       9.637  31.508  -8.446  1.00  0.00    -0.271 OA
ENDROOT
BRANCH   1  11
HETATM   11  C4  UNL     1       7.065  33.416  -9.051  1.00  0.00     0.036 C 
BRANCH  11  12
HETATM   12  C3  UNL     1       6.615  32.750 -10.311  1.00  0.00     0.022 C 
BRANCH  12  13
HETATM   13  C2  UNL     1       6.516  33.776 -11.432  1.00  0.00     0.122 C 
BRANCH  13  14
HETATM   14  N3  UNL     1       5.117  33.865 -11.790  1.00  0.00    -0.367 N 
HETATM   15  C1  UNL     1       4.465  34.941 -11.554  1.00  0.00     0.196 C 
HETATM   16  N1  UNL     1       3.089  34.975 -11.928  1.00  0.00    -0.067 NA
HETATM   17  N2  UNL     1       5.128  36.033 -10.939  1.00  0.00    -0.067 NA
ATOM     18  H3  UNL     1       4.651  33.072 -12.231  1.00  0.00     0.161 HD
ENDBRANCH  13  14
ENDBRANCH  12  13
ENDBRANCH  11  12
ENDBRANCH   1  11
BRANCH   6  19
HETATM   19  C8  UNL     1       9.547  35.450  -5.757  1.00  0.00     0.036 C 
BRANCH  19  20
HETATM   20  C9  UNL     1      10.000  35.717  -4.337  1.00  0.00     0.022 C 
BRANCH  20  21
HETATM   21  C10 UNL     1       9.205  36.902  -3.757  1.00  0.00     0.122 C 
BRANCH  21  22
HETATM   22  N5  UNL     1      10.123  37.906  -3.269  1.00  0.00    -0.367 N 
HETATM   23  C11 UNL     1       9.955  39.171  -3.383  1.00  0.00     0.196 C 
HETATM   24  N6  UNL     1      10.944  40.037  -2.855  1.00  0.00    -0.067 NA
HETATM   25  N7  UNL     1       8.818  39.728  -4.019  1.00  0.00    -0.067 NA
ATOM     26  H5  UNL     1      10.968  37.583  -2.799  1.00  0.00     0.161 HD
ENDBRANCH  21  22
ENDBRANCH  20  21
ENDBRANCH  19  20
ENDBRANCH   6  19
TORSDOF 8
ENDMDL
MODEL 5
REMARK VINA RESULT: -7.208404364      5.822      8.612
REMARK  8 active torsions:
REMARK  status: ('A' for Active; 'I' for Inactive)
REMARK    1  A    between atoms: N3_4  and  C2_6 
REMARK    2  A    between atoms: C2_6  and  C3_7 
REMARK    3  A    between atoms: C3_7  and  C4_8 
REMARK    4  A    between atoms: C4_8  and  C5_9 
REMARK    5  A    between atoms: C7_14  and  C8_15 
REMARK    6  A    between atoms: C8_15  and  C9_16 
REMARK    7  A    between atoms: C9_16  and  C10_17 
REMARK    8  A    between atoms: C10_17  and  N5_18 
ROOT
HETATM    1  C5  UNL     1       9.249  35.202  -4.304  1.00  0.00     0.176 C 
HETATM    2  N4  UNL     1       9.870  35.962  -5.377  1.00  0.00    -0.346 N 
ATOM      3  H4  UNL     1      10.446  36.770  -5.143  1.00  0.00     0.163 HD
HETATM    4  C6  UNL     1       9.696  35.613  -6.736  1.00  0.00     0.241 C 
HETATM    5  O1  UNL     1      10.008  36.448  -7.616  1.00  0.00    -0.271 OA
HETATM    6  C7  UNL     1       9.165  34.312  -7.136  1.00  0.00     0.176 C 
HETATM    7  N8  UNL     1       8.643  33.516  -6.053  1.00  0.00    -0.346 N 
ATOM      8  H8  UNL     1       8.003  32.747  -6.251  1.00  0.00     0.163 HD
HETATM    9  C12 UNL     1       9.014  33.796  -4.715  1.00  0.00     0.241 C 
HETATM   10  O2  UNL     1       9.148  32.865  -3.864  1.00  0.00    -0.271 OA
ENDROOT
BRANCH   1  11
HETATM   11  C4  UNL     1       7.967  35.901  -3.974  1.00  0.00     0.036 C 
BRANCH  11  12
HETATM   12  C3  UNL     1       7.845  36.376  -2.563  1.00  0.00     0.022 C 
BRANCH  12  13
HETATM   13  C2  UNL     1       7.582  37.876  -2.543  1.00  0.00     0.122 C 
BRANCH  13  14
HETATM   14  N3  UNL     1       8.870  38.520  -2.395  1.00  0.00    -0.367 N 
HETATM   15  C1  UNL     1       9.279  39.340  -3.289  1.00  0.00     0.196 C 
HETATM   16  N1  UNL     1      10.555  39.948  -3.094  1.00  0.00    -0.067 NA
HETATM   17  N2  UNL     1       8.459  39.603  -4.416  1.00  0.00    -0.067 NA
ATOM     18  H3  UNL     1       9.450  38.321  -1.581  1.00  0.00     0.161 HD
ENDBRANCH  13  14
ENDBRANCH  12  13
ENDBRANCH  11  12
ENDBRANCH   1  11
BRANCH   6  19
HETATM   19  C8  UNL     1       8.210  34.358  -8.300  1.00  0.00     0.036 C 
BRANCH  19  20
HETATM   20  C9  UNL     1       7.588  33.012  -8.609  1.00  0.00     0.022 C 
BRANCH  20  21
HETATM   21  C10 UNL     1       6.808  33.098  -9.934  1.00  0.00     0.122 C 
BRANCH  21  22
HETATM   22  N5  UNL     1       6.377  34.460 -10.154  1.00  0.00    -0.367 N 
HETATM   23  C11 UNL     1       5.336  34.803 -10.816  1.00  0.00     0.196 C 
HETATM   24  N6  UNL     1       5.040  36.182 -10.949  1.00  0.00    -0.067 NA
HETATM   25  N7  UNL     1       4.477  33.851 -11.419  1.00  0.00    -0.067 NA
ATOM     26  H5  UNL     1       6.946  35.204  -9.751  1.00  0.00     0.161 HD
ENDBRANCH  21  22
ENDBRANCH  20  21
ENDBRANCH  19  20
ENDBRANCH   6  19
TORSDOF 8
ENDMDL
