MODEL 1
REMARK VINA RESULT: -6.097771187      0.000      0.000
REMARK  3 active torsions:
REMARK  status: ('A' for Active; 'I' for Inactive)
REMARK    1  A    between atoms: N1_1  and  N2_4 
REMARK       I    between atoms: N2_4  and  C1_6 
REMARK    2  A    between atoms: C1_6  and  C2_8 
REMARK    3  A    between atoms: C5_11  and  C6_12 
ROOT
HETATM    1  C2  UNL     1      -1.994  58.898  44.697  1.00  0.00     0.103 A 
HETATM    2  C3  UNL     1      -2.145  58.650  43.351  1.00  0.00     0.038 A 
HETATM    3  C4  UNL     1      -3.413  58.141  43.123  1.00  0.00     0.037 A 
HETATM    4  C5  UNL     1      -4.028  58.082  44.343  1.00  0.00     0.098 A 
HETATM    5  N4  UNL     1      -3.156  58.541  45.268  1.00  0.00    -0.348 N 
ATOM      6  H4  UNL     1      -3.354  58.608  46.266  1.00  0.00     0.166 HD
ENDROOT
BRANCH   1   7
HETATM    7  C1  UNL     1      -0.821  59.438  45.397  1.00  0.00     0.286 C 
HETATM    8  N2  UNL     1       0.075  58.553  46.048  1.00  0.00    -0.271 N 
ATOM      9  H2  UNL     1      -0.088  57.546  46.034  1.00  0.00     0.189 HD
HETATM   10  O1  UNL     1      -0.597  60.674  45.429  1.00  0.00    -0.264 OA
BRANCH   8  11
HETATM   11  N1  UNL     1       1.179  59.083  46.706  1.00  0.00    -0.342 N 
ATOM     12  H12 UNL     1       2.115  58.922  46.333  1.00  0.00     0.176 HD
ATOM     13  H11 UNL     1       1.030  59.627  47.556  1.00  0.00     0.176 HD
ENDBRANCH   8  11
ENDBRANCH   1   7
BRANCH   4  14
HETATM   14  C6  UNL     1      -5.374  57.616  44.631  1.00  0.00     0.281 C 
HETATM   15  N3  UNL     1      -6.048  56.846  43.654  1.00  0.00    -0.056 NA
HETATM   16  O2  UNL     1      -5.961  57.871  45.711  1.00  0.00    -0.269 OA
ENDBRANCH   4  14
TORSDOF 3
ENDMDL
MODEL 2
REMARK VINA RESULT: -5.557734998      3.636      5.789
REMARK  3 active torsions:
REMARK  status: ('A' for Active; 'I' for Inactive)
REMARK    1  A    between atoms: N1_1  and  N2_4 
REMARK       I    between atoms: N2_4  and  C1_6 
REMARK    2  A    between atoms: C1_6  and  C2_8 
REMARK    3  A    between atoms: C5_11  and  C6_12 
ROOT
HETATM    1  C2  UNL     1       0.403  59.903  44.222  1.00  0.00     0.103 A 
HETATM    2  C3  UNL     1       0.876  61.105  43.744  1.00  0.00     0.038 A 
HETATM    3  C4  UNL     1       1.728  60.866  42.679  1.00  0.00     0.037 A 
HETATM    4  C5  UNL     1       1.768  59.508  42.516  1.00  0.00     0.098 A 
HETATM    5  N4  UNL     1       0.965  58.956  43.453  1.00  0.00    -0.348 N 
ATOM      6  H4  UNL     1       0.807  57.954  43.561  1.00  0.00     0.166 HD
ENDROOT
BRANCH   1   7
HETATM    7  C1  UNL     1      -0.524  59.667  45.337  1.00  0.00     0.286 C 
HETATM    8  N2  UNL     1      -1.917  59.834  45.137  1.00  0.00    -0.271 N 
ATOM      9  H2  UNL     1      -2.281  60.116  44.227  1.00  0.00     0.189 HD
HETATM   10  O1  UNL     1      -0.102  59.318  46.468  1.00  0.00    -0.264 OA
BRANCH   8  11
HETATM   11  N1  UNL     1      -2.779  59.606  46.204  1.00  0.00    -0.342 N 
ATOM     12  H12 UNL     1      -2.406  59.267  47.091  1.00  0.00     0.176 HD
ATOM     13  H11 UNL     1      -3.775  59.785  46.078  1.00  0.00     0.176 HD
ENDBRANCH   8  11
ENDBRANCH   1   7
BRANCH   4  14
HETATM   14  C6  UNL     1       2.524  58.760  41.526  1.00  0.00     0.281 C 
HETATM   15  N3  UNL     1       1.985  58.621  40.225  1.00  0.00    -0.056 NA
HETATM   16  O2  UNL     1       3.634  58.234  41.780  1.00  0.00    -0.269 OA
ENDBRANCH   4  14
TORSDOF 3
ENDMDL
MODEL 3
REMARK VINA RESULT: -5.536284285      3.708      6.038
REMARK  3 active torsions:
REMARK  status: ('A' for Active; 'I' for Inactive)
REMARK    1  A    between atoms: N1_1  and  N2_4 
REMARK       I    between atoms: N2_4  and  C1_6 
REMARK    2  A    between atoms: C1_6  and  C2_8 
REMARK    3  A    between atoms: C5_11  and  C6_12 
ROOT
HETATM    1  C2  UNL     1       0.744  59.265  44.266  1.00  0.00     0.103 A 
HETATM    2  C3  UNL     1       2.007  59.357  44.809  1.00  0.00     0.038 A 
HETATM    3  C4  UNL     1       2.945  59.110  43.821  1.00  0.00     0.037 A 
HETATM    4  C5  UNL     1       2.240  58.868  42.674  1.00  0.00     0.098 A 
HETATM    5  N4  UNL     1       0.925  58.967  42.969  1.00  0.00    -0.348 N 
ATOM      6  H4  UNL     1       0.170  58.834  42.296  1.00  0.00     0.166 HD
ENDROOT
BRANCH   1   7
HETATM    7  C1  UNL     1      -0.551  59.449  44.935  1.00  0.00     0.286 C 
HETATM    8  N2  UNL     1      -1.445  58.355  45.040  1.00  0.00    -0.271 N 
ATOM      9  H2  UNL     1      -1.198  57.443  44.656  1.00  0.00     0.189 HD
HETATM   10  O1  UNL     1      -0.880  60.562  45.417  1.00  0.00    -0.264 OA
BRANCH   8  11
HETATM   11  N1  UNL     1      -2.667  58.547  45.676  1.00  0.00    -0.342 N 
ATOM     12  H12 UNL     1      -3.209  59.390  45.484  1.00  0.00     0.176 HD
ATOM     13  H11 UNL     1      -2.999  57.836  46.328  1.00  0.00     0.176 HD
ENDBRANCH   8  11
ENDBRANCH   1   7
BRANCH   4  14
HETATM   14  C6  UNL     1       2.774  58.557  41.359  1.00  0.00     0.281 C 
HETATM   15  N3  UNL     1       4.107  58.092  41.262  1.00  0.00    -0.056 NA
HETATM   16  O2  UNL     1       2.101  58.685  40.308  1.00  0.00    -0.269 OA
ENDBRANCH   4  14
TORSDOF 3
ENDMDL
MODEL 4
REMARK VINA RESULT: -5.517653216      3.585      6.483
REMARK  3 active torsions:
REMARK  status: ('A' for Active; 'I' for Inactive)
REMARK    1  A    between atoms: N1_1  and  N2_4 
REMARK       I    between atoms: N2_4  and  C1_6 
REMARK    2  A    between atoms: C1_6  and  C2_8 
REMARK    3  A    between atoms: C5_11  and  C6_12 
ROOT
HETATM    1  C2  UNL     1       0.638  59.666  44.398  1.00  0.00     0.103 A 
HETATM    2  C3  UNL     1       0.489  59.488  43.040  1.00  0.00     0.038 A 
HETATM    3  C4  UNL     1       1.704  59.721  42.417  1.00  0.00     0.037 A 
HETATM    4  C5  UNL     1       2.590  60.041  43.409  1.00  0.00     0.098 A 
HETATM    5  N4  UNL     1       1.925  60.000  44.584  1.00  0.00    -0.348 N 
ATOM      6  H4  UNL     1       2.345  60.197  45.493  1.00  0.00     0.166 HD
ENDROOT
BRANCH   1   7
HETATM    7  C1  UNL     1      -0.376  59.527  45.451  1.00  0.00     0.286 C 
HETATM    8  N2  UNL     1      -1.742  59.746  45.141  1.00  0.00    -0.271 N 
ATOM      9  H2  UNL     1      -2.026  59.999  44.195  1.00  0.00     0.189 HD
HETATM   10  O1  UNL     1      -0.054  59.215  46.625  1.00  0.00    -0.264 OA
BRANCH   8  11
HETATM   11  N1  UNL     1      -2.688  59.610  46.151  1.00  0.00    -0.342 N 
ATOM     12  H12 UNL     1      -2.403  59.259  47.066  1.00  0.00     0.176 HD
ATOM     13  H11 UNL     1      -3.656  59.866  45.955  1.00  0.00     0.176 HD
ENDBRANCH   8  11
ENDBRANCH   1   7
BRANCH   4  14
HETATM   14  C6  UNL     1       3.998  60.370  43.262  1.00  0.00     0.281 C 
HETATM   15  N3  UNL     1       4.405  61.709  43.470  1.00  0.00    -0.056 NA
HETATM   16  O2  UNL     1       4.864  59.515  42.957  1.00  0.00    -0.269 OA
ENDBRANCH   4  14
TORSDOF 3
ENDMDL
MODEL 5
REMARK VINA RESULT: -5.511082515      2.682      5.699
REMARK  3 active torsions:
REMARK  status: ('A' for Active; 'I' for Inactive)
REMARK    1  A    between atoms: N1_1  and  N2_4 
REMARK       I    between atoms: N2_4  and  C1_6 
REMARK    2  A    between atoms: C1_6  and  C2_8 
REMARK    3  A    between atoms: C5_11  and  C6_12 
ROOT
HETATM    1  C2  UNL     1      -0.814  59.226  44.290  1.00  0.00     0.103 A 
HETATM    2  C3  UNL     1      -0.724  59.853  43.067  1.00  0.00     0.038 A 
HETATM    3  C4  UNL     1       0.610  60.060  42.761  1.00  0.00     0.037 A 
HETATM    4  C5  UNL     1       1.329  59.553  43.809  1.00  0.00     0.098 A 
HETATM    5  N4  UNL     1       0.451  59.060  44.710  1.00  0.00    -0.348 N 
ATOM      6  H4  UNL     1       0.714  58.621  45.592  1.00  0.00     0.166 HD
ENDROOT
BRANCH   1   7
HETATM    7  C1  UNL     1      -2.023  58.810  45.014  1.00  0.00     0.286 C 
HETATM    8  N2  UNL     1      -3.008  58.041  44.347  1.00  0.00    -0.271 N 
ATOM      9  H2  UNL     1      -2.886  57.773  43.371  1.00  0.00     0.189 HD
HETATM   10  O1  UNL     1      -2.198  59.126  46.218  1.00  0.00    -0.264 OA
BRANCH   8  11
HETATM   11  N1  UNL     1      -4.146  57.657  45.049  1.00  0.00    -0.342 N 
ATOM     12  H12 UNL     1      -4.850  58.354  45.290  1.00  0.00     0.176 HD
ATOM     13  H11 UNL     1      -4.254  56.677  45.311  1.00  0.00     0.176 HD
ENDBRANCH   8  11
ENDBRANCH   1   7
BRANCH   4  14
HETATM   14  C6  UNL     1       2.774  59.532  43.960  1.00  0.00     0.281 C 
HETATM   15  N3  UNL     1       3.504  60.704  43.651  1.00  0.00    -0.056 NA
HETATM   16  O2  UNL     1       3.397  58.516  44.352  1.00  0.00    -0.269 OA
ENDBRANCH   4  14
TORSDOF 3
ENDMDL
