MODEL 1
REMARK VINA RESULT: -5.341145837      0.000      0.000
REMARK  3 active torsions:
REMARK  status: ('A' for Active; 'I' for Inactive)
REMARK    1  A    between atoms: N1_1  and  N2_4 
REMARK    2  A    between atoms: C1_6  and  C2_8 
REMARK    3  A    between atoms: C3_9  and  C4_10 
ROOT
HETATM    1  C2  UNL     1       1.326  59.977  44.203  1.00  0.00     0.082 C 
HETATM    2  C3  UNL     1       0.044  59.957  43.960  1.00  0.00     0.038 C 
HETATM    3  C5  UNL     1      -0.318  61.302  43.297  1.00  0.00     0.066 C 
HETATM    4  C6  UNL     1       0.995  61.562  42.591  1.00  0.00     0.124 C 
HETATM    5  N5  UNL     1       1.850  61.278  43.749  1.00  0.00    -0.386 N 
ATOM      6  H5  UNL     1       2.609  61.836  44.139  1.00  0.00     0.159 HD
ENDROOT
BRANCH   1   7
HETATM    7  C1  UNL     1       2.153  58.965  44.812  1.00  0.00     0.157 C 
HETATM    8  N2  UNL     1       2.019  58.603  46.030  1.00  0.00    -0.293 N 
ATOM      9  H2  UNL     1       2.670  57.869  46.310  1.00  0.00     0.187 HD
HETATM   10  N3  UNL     1       3.167  58.277  44.117  1.00  0.00    -0.079 NA
BRANCH   8  11
HETATM   11  N1  UNL     1       1.189  58.996  47.025  1.00  0.00    -0.344 N 
ATOM     12  H12 UNL     1       0.208  58.841  46.792  1.00  0.00     0.176 HD
ATOM     13  H11 UNL     1       1.350  59.410  47.943  1.00  0.00     0.176 HD
ENDBRANCH   8  11
ENDBRANCH   1   7
BRANCH   2  14
HETATM   14  C4  UNL     1      -1.007  58.995  44.179  1.00  0.00     0.263 C 
HETATM   15  N4  UNL     1      -1.313  58.622  45.574  1.00  0.00    -0.057 NA
HETATM   16  O1  UNL     1      -1.740  58.389  43.390  1.00  0.00    -0.271 OA
ENDBRANCH   2  14
TORSDOF 3
ENDMDL
MODEL 2
REMARK VINA RESULT: -5.152671240      1.919      3.377
REMARK  3 active torsions:
REMARK  status: ('A' for Active; 'I' for Inactive)
REMARK    1  A    between atoms: N1_1  and  N2_4 
REMARK    2  A    between atoms: C1_6  and  C2_8 
REMARK    3  A    between atoms: C3_9  and  C4_10 
ROOT
HETATM    1  C2  UNL     1       0.169  59.768  44.058  1.00  0.00     0.082 C 
HETATM    2  C3  UNL     1       1.340  59.650  43.493  1.00  0.00     0.038 C 
HETATM    3  C5  UNL     1       1.371  60.621  42.295  1.00  0.00     0.066 C 
HETATM    4  C6  UNL     1       0.449  61.686  42.848  1.00  0.00     0.124 C 
HETATM    5  N5  UNL     1      -0.602  60.763  43.290  1.00  0.00    -0.386 N 
ATOM      6  H5  UNL     1      -1.606  60.801  43.113  1.00  0.00     0.159 HD
ENDROOT
BRANCH   1   7
HETATM    7  C1  UNL     1      -0.359  59.082  45.210  1.00  0.00     0.157 C 
HETATM    8  N2  UNL     1      -1.329  58.253  45.137  1.00  0.00    -0.293 N 
ATOM      9  H2  UNL     1      -1.581  57.841  46.035  1.00  0.00     0.187 HD
HETATM   10  N3  UNL     1       0.153  59.251  46.511  1.00  0.00    -0.079 NA
BRANCH   8  11
HETATM   11  N1  UNL     1      -2.090  57.810  44.108  1.00  0.00    -0.344 N 
ATOM     12  H12 UNL     1      -3.088  57.881  44.309  1.00  0.00     0.176 HD
ATOM     13  H11 UNL     1      -1.865  57.427  43.190  1.00  0.00     0.176 HD
ENDBRANCH   8  11
ENDBRANCH   1   7
BRANCH   2  14
HETATM   14  C4  UNL     1       2.508  58.849  43.758  1.00  0.00     0.263 C 
HETATM   15  N4  UNL     1       3.267  58.341  42.598  1.00  0.00    -0.057 NA
HETATM   16  O1  UNL     1       3.028  58.483  44.818  1.00  0.00    -0.271 OA
ENDBRANCH   2  14
TORSDOF 3
ENDMDL
MODEL 3
REMARK VINA RESULT: -5.077020308      2.583      3.943
REMARK  3 active torsions:
REMARK  status: ('A' for Active; 'I' for Inactive)
REMARK    1  A    between atoms: N1_1  and  N2_4 
REMARK    2  A    between atoms: C1_6  and  C2_8 
REMARK    3  A    between atoms: C3_9  and  C4_10 
ROOT
HETATM    1  C2  UNL     1       1.989  59.603  43.735  1.00  0.00     0.082 C 
HETATM    2  C3  UNL     1       2.877  60.454  43.298  1.00  0.00     0.038 C 
HETATM    3  C5  UNL     1       3.918  59.655  42.487  1.00  0.00     0.066 C 
HETATM    4  C6  UNL     1       3.009  58.559  41.977  1.00  0.00     0.124 C 
HETATM    5  N5  UNL     1       2.387  58.261  43.272  1.00  0.00    -0.386 N 
ATOM      6  H5  UNL     1       2.262  57.359  43.732  1.00  0.00     0.159 HD
ENDROOT
BRANCH   1   7
HETATM    7  C1  UNL     1       0.816  59.843  44.539  1.00  0.00     0.157 C 
HETATM    8  N2  UNL     1       0.673  59.360  45.713  1.00  0.00    -0.293 N 
ATOM      9  H2  UNL     1      -0.205  59.628  46.158  1.00  0.00     0.187 HD
HETATM   10  N3  UNL     1      -0.263  60.640  44.110  1.00  0.00    -0.079 NA
BRANCH   8  11
HETATM   11  N1  UNL     1       1.449  58.564  46.486  1.00  0.00    -0.344 N 
ATOM     12  H12 UNL     1       1.241  58.670  47.479  1.00  0.00     0.176 HD
ATOM     13  H11 UNL     1       2.187  57.892  46.273  1.00  0.00     0.176 HD
ENDBRANCH   8  11
ENDBRANCH   1   7
BRANCH   2  14
HETATM   14  C4  UNL     1       3.050  61.880  43.422  1.00  0.00     0.263 C 
HETATM   15  N4  UNL     1       4.311  62.366  44.017  1.00  0.00    -0.057 NA
HETATM   16  O1  UNL     1       2.316  62.825  43.114  1.00  0.00    -0.271 OA
ENDBRANCH   2  14
TORSDOF 3
ENDMDL
MODEL 4
REMARK VINA RESULT: -5.036911305      2.239      3.867
REMARK  3 active torsions:
REMARK  status: ('A' for Active; 'I' for Inactive)
REMARK    1  A    between atoms: N1_1  and  N2_4 
REMARK    2  A    between atoms: C1_6  and  C2_8 
REMARK    3  A    between atoms: C3_9  and  C4_10 
ROOT
HETATM    1  C2  UNL     1      -1.436  58.885  44.096  1.00  0.00     0.082 C 
HETATM    2  C3  UNL     1      -1.984  59.517  43.094  1.00  0.00     0.038 C 
HETATM    3  C5  UNL     1      -3.253  58.736  42.696  1.00  0.00     0.066 C 
HETATM    4  C6  UNL     1      -3.611  58.185  44.059  1.00  0.00     0.124 C 
HETATM    5  N5  UNL     1      -2.266  57.701  44.387  1.00  0.00    -0.386 N 
ATOM      6  H5  UNL     1      -1.978  56.784  44.728  1.00  0.00     0.159 HD
ENDROOT
BRANCH   1   7
HETATM    7  C1  UNL     1      -0.237  59.205  44.829  1.00  0.00     0.157 C 
HETATM    8  N2  UNL     1       0.928  59.149  44.308  1.00  0.00    -0.293 N 
ATOM      9  H2  UNL     1       1.674  59.416  44.950  1.00  0.00     0.187 HD
HETATM   10  N3  UNL     1      -0.244  59.623  46.175  1.00  0.00    -0.079 NA
BRANCH   8  11
HETATM   11  N1  UNL     1       1.374  58.805  43.076  1.00  0.00    -0.344 N 
ATOM     12  H12 UNL     1       1.126  57.846  42.831  1.00  0.00     0.176 HD
ATOM     13  H11 UNL     1       1.898  59.309  42.361  1.00  0.00     0.176 HD
ENDBRANCH   8  11
ENDBRANCH   1   7
BRANCH   2  14
HETATM   14  C4  UNL     1      -1.652  60.709  42.354  1.00  0.00     0.263 C 
HETATM   15  N4  UNL     1      -0.460  60.662  41.483  1.00  0.00    -0.057 NA
HETATM   16  O1  UNL     1      -2.193  61.819  42.301  1.00  0.00    -0.271 OA
ENDBRANCH   2  14
TORSDOF 3
ENDMDL
MODEL 5
REMARK VINA RESULT: -5.033740992      1.701      3.087
REMARK  3 active torsions:
REMARK  status: ('A' for Active; 'I' for Inactive)
REMARK    1  A    between atoms: N1_1  and  N2_4 
REMARK    2  A    between atoms: C1_6  and  C2_8 
REMARK    3  A    between atoms: C3_9  and  C4_10 
ROOT
HETATM    1  C2  UNL     1       0.472  59.412  44.117  1.00  0.00     0.082 C 
HETATM    2  C3  UNL     1       0.160  60.244  43.161  1.00  0.00     0.038 C 
HETATM    3  C5  UNL     1       1.373  60.329  42.212  1.00  0.00     0.066 C 
HETATM    4  C6  UNL     1       1.904  58.925  42.404  1.00  0.00     0.124 C 
HETATM    5  N5  UNL     1       1.847  58.939  43.870  1.00  0.00    -0.386 N 
ATOM      6  H5  UNL     1       2.570  58.687  44.543  1.00  0.00     0.159 HD
ENDROOT
BRANCH   1   7
HETATM    7  C1  UNL     1      -0.314  58.990  45.249  1.00  0.00     0.157 C 
HETATM    8  N2  UNL     1      -1.392  58.314  45.129  1.00  0.00    -0.293 N 
ATOM      9  H2  UNL     1      -1.827  58.081  46.021  1.00  0.00     0.187 HD
HETATM   10  N3  UNL     1       0.043  59.268  46.583  1.00  0.00    -0.079 NA
BRANCH   8  11
HETATM   11  N1  UNL     1      -2.074  57.845  44.057  1.00  0.00    -0.344 N 
ATOM     12  H12 UNL     1      -1.874  58.378  43.210  1.00  0.00     0.176 HD
ATOM     13  H11 UNL     1      -2.736  57.079  43.934  1.00  0.00     0.176 HD
ENDBRANCH   8  11
ENDBRANCH   1   7
BRANCH   2  14
HETATM   14  C4  UNL     1      -1.007  61.032  42.854  1.00  0.00     0.263 C 
HETATM   15  N4  UNL     1      -0.803  62.310  42.144  1.00  0.00    -0.057 NA
HETATM   16  O1  UNL     1      -2.208  60.840  43.079  1.00  0.00    -0.271 OA
ENDBRANCH   2  14
TORSDOF 3
ENDMDL
