MODEL 1
REMARK VINA RESULT: -6.928847747      0.000      0.000
REMARK  15 active torsions:
REMARK  status: ('A' for Active; 'I' for Inactive)
REMARK    1  A    between atoms: C10_10  and  C11_11 
REMARK    2  A    between atoms: C11_11  and  C13_13 
REMARK    3  A    between atoms: C13_13  and  C14_14 
REMARK    4  A    between atoms: C14_14  and  C15_15 
REMARK    5  A    between atoms: C15_15  and  N1_16 
REMARK    6  A    between atoms: N1_16  and  C16_18 
REMARK    7  A    between atoms: C16_18  and  C17_19 
REMARK    8  A    between atoms: C17_19  and  C18_20 
REMARK    9  A    between atoms: C18_20  and  C19_21 
REMARK   10  A    between atoms: C19_21  and  N2_22 
REMARK   11  A    between atoms: N2_22  and  O1_24 
REMARK   12  A    between atoms: C25_30  and  O2_31 
REMARK   13  A    between atoms: C29_36  and  C30_37 
REMARK   14  A    between atoms: C30_37  and  C31_38 
REMARK   15  A    between atoms: C31_38  and  C32_39 
ROOT
HETATM    1  C1  UNL     1      31.116  27.682   4.998  1.00  0.00     0.010 C 
HETATM    2  C2  UNL     1      30.938  28.189   6.439  1.00  0.00    -0.014 C 
HETATM    3  C3  UNL     1      32.182  28.904   6.795  1.00  0.00     0.005 C 
HETATM    4  C4  UNL     1      32.279  29.260   8.262  1.00  0.00     0.006 C 
HETATM    5  C5  UNL     1      30.917  28.944   8.836  1.00  0.00    -0.001 C 
HETATM    6  C6  UNL     1      30.696  29.457  10.189  1.00  0.00    -0.002 C 
HETATM    7  C7  UNL     1      30.845  30.988  10.308  1.00  0.00     0.015 C 
HETATM    8  C8  UNL     1      29.734  31.459  11.130  1.00  0.00    -0.032 C 
HETATM    9  C9  UNL     1      28.740  32.244  10.372  1.00  0.00     0.016 C 
HETATM   10  C10 UNL     1      29.998  31.970  12.497  1.00  0.00     0.022 C 
HETATM   11  C21 UNL     1      28.600  31.834  13.079  1.00  0.00     0.010 C 
HETATM   12  C22 UNL     1      27.967  30.646  12.314  1.00  0.00     0.006 C 
HETATM   13  C23 UNL     1      29.125  30.115  11.632  1.00  0.00     0.001 C 
HETATM   14  C24 UNL     1      29.180  29.338  10.448  1.00  0.00     0.024 C 
HETATM   15  C25 UNL     1      28.787  27.891  10.487  1.00  0.00     0.123 C 
HETATM   16  C26 UNL     1      29.148  27.245   9.201  1.00  0.00     0.042 C 
HETATM   17  C27 UNL     1      30.619  27.459   8.768  1.00  0.00    -0.034 C 
HETATM   18  C28 UNL     1      31.412  26.671   9.743  1.00  0.00     0.016 C 
HETATM   19  C29 UNL     1      30.717  26.969   7.380  1.00  0.00    -0.002 C 
ENDROOT
BRANCH  10  20
HETATM   20  C11 UNL     1      30.629  33.291  12.650  1.00  0.00    -0.083 C 
HETATM   21  C12 UNL     1      30.598  33.921  14.005  1.00  0.00     0.043 C 
BRANCH  20  22
HETATM   22  C13 UNL     1      31.921  33.538  11.980  1.00  0.00    -0.022 C 
BRANCH  22  23
HETATM   23  C14 UNL     1      33.184  33.511  12.705  1.00  0.00     0.046 C 
BRANCH  23  24
HETATM   24  C15 UNL     1      34.343  32.760  12.149  1.00  0.00     0.117 C 
BRANCH  24  25
HETATM   25  N1  UNL     1      34.084  31.507  11.552  1.00  0.00    -0.421 N 
ATOM     26  H1  UNL     1      33.433  30.841  11.968  1.00  0.00     0.153 HD
BRANCH  25  27
HETATM   27  C16 UNL     1      34.777  31.216  10.336  1.00  0.00     0.113 C 
BRANCH  27  28
HETATM   28  C17 UNL     1      36.263  31.262  10.459  1.00  0.00     0.020 C 
BRANCH  28  29
HETATM   29  C18 UNL     1      36.932  30.267   9.548  1.00  0.00     0.018 C 
BRANCH  29  30
HETATM   30  C19 UNL     1      35.990  29.263   8.986  1.00  0.00     0.120 C 
BRANCH  30  31
HETATM   31  N2  UNL     1      36.593  27.951   8.831  1.00  0.00    -0.204 NA
HETATM   32  C20 UNL     1      36.736  27.580   7.439  1.00  0.00     0.143 C 
BRANCH  31  33
HETATM   33  O1  UNL     1      35.815  27.011   9.412  1.00  0.00    -0.314 OA
ATOM     34  H1  UNL     1      36.151  26.144   9.218  1.00  0.00     0.237 HD
ENDBRANCH  31  33
ENDBRANCH  30  31
ENDBRANCH  29  30
ENDBRANCH  28  29
ENDBRANCH  27  28
ENDBRANCH  25  27
ENDBRANCH  24  25
ENDBRANCH  23  24
ENDBRANCH  22  23
ENDBRANCH  20  22
ENDBRANCH  10  20
BRANCH  15  35
HETATM   35  O2  UNL     1      29.160  27.220  11.624  1.00  0.00    -0.395 OA
ATOM     36  H2  UNL     1      28.456  27.046  12.238  1.00  0.00     0.210 HD
ENDBRANCH  15  35
BRANCH  19  37
HETATM   37  C30 UNL     1      31.633  25.945   6.915  1.00  0.00     0.014 C 
BRANCH  37  38
HETATM   38  C31 UNL     1      31.265  24.497   6.877  1.00  0.00     0.100 C 
BRANCH  38  39
HETATM   39  C32 UNL     1      31.171  24.030   5.434  1.00  0.00     0.231 C 
HETATM   40  N3  UNL     1      29.947  24.145   4.775  1.00  0.00    -0.062 NA
HETATM   41  O3  UNL     1      32.181  23.561   4.887  1.00  0.00    -0.277 OA
ENDBRANCH  38  39
ENDBRANCH  37  38
ENDBRANCH  19  37
TORSDOF 15
ENDMDL
MODEL 2
REMARK VINA RESULT: -6.919183918      4.215      7.492
REMARK  15 active torsions:
REMARK  status: ('A' for Active; 'I' for Inactive)
REMARK    1  A    between atoms: C10_10  and  C11_11 
REMARK    2  A    between atoms: C11_11  and  C13_13 
REMARK    3  A    between atoms: C13_13  and  C14_14 
REMARK    4  A    between atoms: C14_14  and  C15_15 
REMARK    5  A    between atoms: C15_15  and  N1_16 
REMARK    6  A    between atoms: N1_16  and  C16_18 
REMARK    7  A    between atoms: C16_18  and  C17_19 
REMARK    8  A    between atoms: C17_19  and  C18_20 
REMARK    9  A    between atoms: C18_20  and  C19_21 
REMARK   10  A    between atoms: C19_21  and  N2_22 
REMARK   11  A    between atoms: N2_22  and  O1_24 
REMARK   12  A    between atoms: C25_30  and  O2_31 
REMARK   13  A    between atoms: C29_36  and  C30_37 
REMARK   14  A    between atoms: C30_37  and  C31_38 
REMARK   15  A    between atoms: C31_38  and  C32_39 
ROOT
HETATM    1  C1  UNL     1      36.822  31.524   6.552  1.00  0.00     0.010 C 
HETATM    2  C2  UNL     1      35.821  31.392   7.712  1.00  0.00    -0.014 C 
HETATM    3  C3  UNL     1      36.562  31.715   8.950  1.00  0.00     0.005 C 
HETATM    4  C4  UNL     1      35.794  31.401  10.215  1.00  0.00     0.006 C 
HETATM    5  C5  UNL     1      34.396  31.057   9.754  1.00  0.00    -0.001 C 
HETATM    6  C6  UNL     1      33.408  30.974  10.830  1.00  0.00    -0.002 C 
HETATM    7  C7  UNL     1      33.261  32.275  11.645  1.00  0.00     0.015 C 
HETATM    8  C8  UNL     1      31.830  32.498  11.833  1.00  0.00    -0.032 C 
HETATM    9  C9  UNL     1      31.316  33.655  11.076  1.00  0.00     0.016 C 
HETATM   10  C10 UNL     1      31.235  32.342  13.183  1.00  0.00     0.022 C 
HETATM   11  C21 UNL     1      29.779  32.161  12.784  1.00  0.00     0.010 C 
HETATM   12  C22 UNL     1      29.832  31.505  11.383  1.00  0.00     0.006 C 
HETATM   13  C23 UNL     1      31.232  31.163  11.296  1.00  0.00     0.001 C 
HETATM   14  C24 UNL     1      32.027  30.961  10.140  1.00  0.00     0.024 C 
HETATM   15  C25 UNL     1      31.874  29.700   9.342  1.00  0.00     0.123 C 
HETATM   16  C26 UNL     1      32.961  29.618   8.335  1.00  0.00     0.042 C 
HETATM   17  C27 UNL     1      34.386  29.795   8.914  1.00  0.00    -0.034 C 
HETATM   18  C28 UNL     1      34.616  28.570   9.719  1.00  0.00     0.016 C 
HETATM   19  C29 UNL     1      35.289  29.930   7.756  1.00  0.00    -0.002 C 
ENDROOT
BRANCH  10  20
HETATM   20  C11 UNL     1      31.496  33.376  14.197  1.00  0.00    -0.083 C 
HETATM   21  C12 UNL     1      32.922  33.708  14.497  1.00  0.00     0.043 C 
BRANCH  20  22
HETATM   22  C13 UNL     1      30.657  34.591  14.200  1.00  0.00    -0.022 C 
BRANCH  22  23
HETATM   23  C14 UNL     1      31.211  35.912  13.936  1.00  0.00     0.046 C 
BRANCH  23  24
HETATM   24  C15 UNL     1      30.662  37.102  14.642  1.00  0.00     0.117 C 
BRANCH  24  25
HETATM   25  N1  UNL     1      31.243  37.451  15.881  1.00  0.00    -0.421 N 
ATOM     26  H1  UNL     1      32.182  37.145  16.136  1.00  0.00     0.153 HD
BRANCH  25  27
HETATM   27  C16 UNL     1      30.451  38.253  16.762  1.00  0.00     0.113 C 
BRANCH  27  28
HETATM   28  C17 UNL     1      30.655  39.721  16.591  1.00  0.00     0.020 C 
BRANCH  28  29
HETATM   29  C18 UNL     1      29.363  40.436  16.295  1.00  0.00     0.018 C 
BRANCH  29  30
HETATM   30  C19 UNL     1      29.108  40.604  14.840  1.00  0.00     0.120 C 
BRANCH  30  31
HETATM   31  N2  UNL     1      27.743  40.283  14.467  1.00  0.00    -0.204 NA
HETATM   32  C20 UNL     1      27.614  38.921  13.993  1.00  0.00     0.143 C 
BRANCH  31  33
HETATM   33  O1  UNL     1      27.334  41.090  13.463  1.00  0.00    -0.314 OA
ATOM     34  H1  UNL     1      26.430  40.900  13.239  1.00  0.00     0.237 HD
ENDBRANCH  31  33
ENDBRANCH  30  31
ENDBRANCH  29  30
ENDBRANCH  28  29
ENDBRANCH  27  28
ENDBRANCH  25  27
ENDBRANCH  24  25
ENDBRANCH  23  24
ENDBRANCH  22  23
ENDBRANCH  20  22
ENDBRANCH  10  20
BRANCH  15  35
HETATM   35  O2  UNL     1      31.653  28.567  10.084  1.00  0.00    -0.395 OA
ATOM     36  H2  UNL     1      32.439  28.125  10.385  1.00  0.00     0.210 HD
ENDBRANCH  15  35
BRANCH  19  37
HETATM   37  C30 UNL     1      36.438  29.087   7.486  1.00  0.00     0.014 C 
BRANCH  37  38
HETATM   38  C31 UNL     1      36.468  28.112   6.353  1.00  0.00     0.100 C 
BRANCH  38  39
HETATM   39  C32 UNL     1      36.721  26.713   6.888  1.00  0.00     0.231 C 
HETATM   40  N3  UNL     1      37.639  25.901   6.222  1.00  0.00    -0.062 NA
HETATM   41  O3  UNL     1      36.105  26.334   7.896  1.00  0.00    -0.277 OA
ENDBRANCH  38  39
ENDBRANCH  37  38
ENDBRANCH  19  37
TORSDOF 15
ENDMDL
MODEL 3
REMARK VINA RESULT: -6.834684081      3.275      6.574
REMARK  15 active torsions:
REMARK  status: ('A' for Active; 'I' for Inactive)
REMARK    1  A    between atoms: C10_10  and  C11_11 
REMARK    2  A    between atoms: C11_11  and  C13_13 
REMARK    3  A    between atoms: C13_13  and  C14_14 
REMARK    4  A    between atoms: C14_14  and  C15_15 
REMARK    5  A    between atoms: C15_15  and  N1_16 
REMARK    6  A    between atoms: N1_16  and  C16_18 
REMARK    7  A    between atoms: C16_18  and  C17_19 
REMARK    8  A    between atoms: C17_19  and  C18_20 
REMARK    9  A    between atoms: C18_20  and  C19_21 
REMARK   10  A    between atoms: C19_21  and  N2_22 
REMARK   11  A    between atoms: N2_22  and  O1_24 
REMARK   12  A    between atoms: C25_30  and  O2_31 
REMARK   13  A    between atoms: C29_36  and  C30_37 
REMARK   14  A    between atoms: C30_37  and  C31_38 
REMARK   15  A    between atoms: C31_38  and  C32_39 
ROOT
HETATM    1  C1  UNL     1      35.880  27.107   8.892  1.00  0.00     0.010 C 
HETATM    2  C2  UNL     1      35.663  28.567   9.322  1.00  0.00    -0.014 C 
HETATM    3  C3  UNL     1      34.211  28.732   9.545  1.00  0.00     0.005 C 
HETATM    4  C4  UNL     1      33.787  30.172   9.738  1.00  0.00     0.006 C 
HETATM    5  C5  UNL     1      35.076  30.951   9.861  1.00  0.00    -0.001 C 
HETATM    6  C6  UNL     1      34.908  32.331  10.316  1.00  0.00    -0.002 C 
HETATM    7  C7  UNL     1      34.223  32.455  11.693  1.00  0.00     0.015 C 
HETATM    8  C8  UNL     1      34.972  33.453  12.450  1.00  0.00    -0.032 C 
HETATM    9  C9  UNL     1      35.730  32.881  13.580  1.00  0.00     0.016 C 
HETATM   10  C10 UNL     1      34.354  34.770  12.740  1.00  0.00     0.022 C 
HETATM   11  C21 UNL     1      35.613  35.566  13.042  1.00  0.00     0.010 C 
HETATM   12  C22 UNL     1      36.721  34.890  12.199  1.00  0.00     0.006 C 
HETATM   13  C23 UNL     1      35.929  34.021  11.360  1.00  0.00     0.001 C 
HETATM   14  C24 UNL     1      36.318  32.828  10.699  1.00  0.00     0.024 C 
HETATM   15  C25 UNL     1      37.177  32.901   9.472  1.00  0.00     0.123 C 
HETATM   16  C26 UNL     1      37.251  31.561   8.839  1.00  0.00     0.042 C 
HETATM   17  C27 UNL     1      35.876  30.902   8.573  1.00  0.00    -0.034 C 
HETATM   18  C28 UNL     1      35.273  31.722   7.493  1.00  0.00     0.016 C 
HETATM   19  C29 UNL     1      36.155  29.507   8.183  1.00  0.00    -0.002 C 
ENDROOT
BRANCH  10  20
HETATM   20  C11 UNL     1      33.289  34.847  13.753  1.00  0.00    -0.083 C 
HETATM   21  C12 UNL     1      33.493  35.778  14.905  1.00  0.00     0.043 C 
BRANCH  20  22
HETATM   22  C13 UNL     1      31.883  34.862  13.302  1.00  0.00    -0.022 C 
BRANCH  22  23
HETATM   23  C14 UNL     1      30.980  33.748  13.551  1.00  0.00     0.046 C 
BRANCH  23  24
HETATM   24  C15 UNL     1      31.528  32.421  13.945  1.00  0.00     0.117 C 
BRANCH  24  25
HETATM   25  N1  UNL     1      30.803  31.274  13.553  1.00  0.00    -0.421 N 
ATOM     26  H1  UNL     1      31.030  30.348  13.916  1.00  0.00     0.153 HD
BRANCH  25  27
HETATM   27  C16 UNL     1      29.735  31.473  12.623  1.00  0.00     0.113 C 
BRANCH  27  28
HETATM   28  C17 UNL     1      28.589  30.535  12.806  1.00  0.00     0.020 C 
BRANCH  28  29
HETATM   29  C18 UNL     1      28.048  30.047  11.489  1.00  0.00     0.018 C 
BRANCH  29  30
HETATM   30  C19 UNL     1      29.089  29.441  10.617  1.00  0.00     0.120 C 
BRANCH  30  31
HETATM   31  N2  UNL     1      29.252  30.148   9.360  1.00  0.00    -0.204 NA
HETATM   32  C20 UNL     1      28.082  30.032   8.515  1.00  0.00     0.143 C 
BRANCH  31  33
HETATM   33  O1  UNL     1      30.291  29.630   8.667  1.00  0.00    -0.314 OA
ATOM     34  H1  UNL     1      30.804  30.329   8.278  1.00  0.00     0.237 HD
ENDBRANCH  31  33
ENDBRANCH  30  31
ENDBRANCH  29  30
ENDBRANCH  28  29
ENDBRANCH  27  28
ENDBRANCH  25  27
ENDBRANCH  24  25
ENDBRANCH  23  24
ENDBRANCH  22  23
ENDBRANCH  20  22
ENDBRANCH  10  20
BRANCH  15  35
HETATM   35  O2  UNL     1      36.900  33.950   8.632  1.00  0.00    -0.395 OA
ATOM     36  H2  UNL     1      36.522  33.705   7.795  1.00  0.00     0.210 HD
ENDBRANCH  15  35
BRANCH  19  37
HETATM   37  C30 UNL     1      35.726  28.881   6.947  1.00  0.00     0.014 C 
BRANCH  37  38
HETATM   38  C31 UNL     1      36.565  28.892   5.710  1.00  0.00     0.100 C 
BRANCH  38  39
HETATM   39  C32 UNL     1      36.850  27.466   5.271  1.00  0.00     0.231 C 
HETATM   40  N3  UNL     1      36.213  26.981   4.128  1.00  0.00    -0.062 NA
HETATM   41  O3  UNL     1      37.635  26.776   5.938  1.00  0.00    -0.277 OA
ENDBRANCH  38  39
ENDBRANCH  37  38
ENDBRANCH  19  37
TORSDOF 15
ENDMDL
MODEL 4
REMARK VINA RESULT: -6.826036680      3.524      6.506
REMARK  15 active torsions:
REMARK  status: ('A' for Active; 'I' for Inactive)
REMARK    1  A    between atoms: C10_10  and  C11_11 
REMARK    2  A    between atoms: C11_11  and  C13_13 
REMARK    3  A    between atoms: C13_13  and  C14_14 
REMARK    4  A    between atoms: C14_14  and  C15_15 
REMARK    5  A    between atoms: C15_15  and  N1_16 
REMARK    6  A    between atoms: N1_16  and  C16_18 
REMARK    7  A    between atoms: C16_18  and  C17_19 
REMARK    8  A    between atoms: C17_19  and  C18_20 
REMARK    9  A    between atoms: C18_20  and  C19_21 
REMARK   10  A    between atoms: C19_21  and  N2_22 
REMARK   11  A    between atoms: N2_22  and  O1_24 
REMARK   12  A    between atoms: C25_30  and  O2_31 
REMARK   13  A    between atoms: C29_36  and  C30_37 
REMARK   14  A    between atoms: C30_37  and  C31_38 
REMARK   15  A    between atoms: C31_38  and  C32_39 
ROOT
HETATM    1  C1  UNL     1      36.673  31.354   6.184  1.00  0.00     0.010 C 
HETATM    2  C2  UNL     1      35.725  31.275   7.393  1.00  0.00    -0.014 C 
HETATM    3  C3  UNL     1      36.494  31.743   8.566  1.00  0.00     0.005 C 
HETATM    4  C4  UNL     1      35.793  31.503   9.884  1.00  0.00     0.006 C 
HETATM    5  C5  UNL     1      34.400  31.048   9.516  1.00  0.00    -0.001 C 
HETATM    6  C6  UNL     1      33.459  31.009  10.636  1.00  0.00    -0.002 C 
HETATM    7  C7  UNL     1      33.273  32.369  11.342  1.00  0.00     0.015 C 
HETATM    8  C8  UNL     1      31.840  32.533  11.571  1.00  0.00    -0.032 C 
HETATM    9  C9  UNL     1      31.234  33.591  10.739  1.00  0.00     0.016 C 
HETATM   10  C10 UNL     1      31.306  32.467  12.953  1.00  0.00     0.022 C 
HETATM   11  C21 UNL     1      29.848  32.176  12.634  1.00  0.00     0.010 C 
HETATM   12  C22 UNL     1      29.883  31.403  11.294  1.00  0.00     0.006 C 
HETATM   13  C23 UNL     1      31.296  31.127  11.177  1.00  0.00     0.001 C 
HETATM   14  C24 UNL     1      32.056  30.864  10.010  1.00  0.00     0.024 C 
HETATM   15  C25 UNL     1      31.943  29.532   9.330  1.00  0.00     0.123 C 
HETATM   16  C26 UNL     1      32.993  29.417   8.288  1.00  0.00     0.042 C 
HETATM   17  C27 UNL     1      34.427  29.718   8.789  1.00  0.00    -0.034 C 
HETATM   18  C28 UNL     1      34.754  28.582   9.685  1.00  0.00     0.016 C 
HETATM   19  C29 UNL     1      35.276  29.797   7.585  1.00  0.00    -0.002 C 
ENDROOT
BRANCH  10  20
HETATM   20  C11 UNL     1      31.549  33.598  13.862  1.00  0.00    -0.083 C 
HETATM   21  C12 UNL     1      30.358  34.277  14.459  1.00  0.00     0.043 C 
BRANCH  20  22
HETATM   22  C13 UNL     1      32.646  33.492  14.845  1.00  0.00    -0.022 C 
BRANCH  22  23
HETATM   23  C14 UNL     1      33.825  34.343  14.781  1.00  0.00     0.046 C 
BRANCH  23  24
HETATM   24  C15 UNL     1      33.801  35.586  13.963  1.00  0.00     0.117 C 
BRANCH  24  25
HETATM   25  N1  UNL     1      33.269  36.750  14.561  1.00  0.00    -0.421 N 
ATOM     26  H1  UNL     1      33.252  36.871  15.573  1.00  0.00     0.153 HD
BRANCH  25  27
HETATM   27  C16 UNL     1      32.755  37.751  13.678  1.00  0.00     0.113 C 
BRANCH  27  28
HETATM   28  C17 UNL     1      31.323  37.555  13.306  1.00  0.00     0.020 C 
BRANCH  28  29
HETATM   29  C18 UNL     1      30.415  38.488  14.062  1.00  0.00     0.018 C 
BRANCH  29  30
HETATM   30  C19 UNL     1      29.819  37.869  15.276  1.00  0.00     0.120 C 
BRANCH  30  31
HETATM   31  N2  UNL     1      30.375  38.398  16.508  1.00  0.00    -0.204 NA
HETATM   32  C20 UNL     1      30.858  39.753  16.349  1.00  0.00     0.143 C 
BRANCH  31  33
HETATM   33  O1  UNL     1      31.427  37.647  16.902  1.00  0.00    -0.314 OA
ATOM     34  H1  UNL     1      31.255  37.268  17.756  1.00  0.00     0.237 HD
ENDBRANCH  31  33
ENDBRANCH  30  31
ENDBRANCH  29  30
ENDBRANCH  28  29
ENDBRANCH  27  28
ENDBRANCH  25  27
ENDBRANCH  24  25
ENDBRANCH  23  24
ENDBRANCH  22  23
ENDBRANCH  20  22
ENDBRANCH  10  20
BRANCH  15  35
HETATM   35  O2  UNL     1      31.813  28.459  10.176  1.00  0.00    -0.395 OA
ATOM     36  H2  UNL     1      31.593  27.638   9.752  1.00  0.00     0.210 HD
ENDBRANCH  15  35
BRANCH  19  37
HETATM   37  C30 UNL     1      36.459  28.993   7.340  1.00  0.00     0.014 C 
BRANCH  37  38
HETATM   38  C31 UNL     1      36.471  27.864   6.360  1.00  0.00     0.100 C 
BRANCH  38  39
HETATM   39  C32 UNL     1      35.701  26.685   6.928  1.00  0.00     0.231 C 
HETATM   40  N3  UNL     1      34.416  26.434   6.446  1.00  0.00    -0.062 NA
HETATM   41  O3  UNL     1      36.234  25.982   7.801  1.00  0.00    -0.277 OA
ENDBRANCH  38  39
ENDBRANCH  37  38
ENDBRANCH  19  37
TORSDOF 15
ENDMDL
MODEL 5
REMARK VINA RESULT: -6.824141131      9.150     12.696
REMARK  15 active torsions:
REMARK  status: ('A' for Active; 'I' for Inactive)
REMARK    1  A    between atoms: C10_10  and  C11_11 
REMARK    2  A    between atoms: C11_11  and  C13_13 
REMARK    3  A    between atoms: C13_13  and  C14_14 
REMARK    4  A    between atoms: C14_14  and  C15_15 
REMARK    5  A    between atoms: C15_15  and  N1_16 
REMARK    6  A    between atoms: N1_16  and  C16_18 
REMARK    7  A    between atoms: C16_18  and  C17_19 
REMARK    8  A    between atoms: C17_19  and  C18_20 
REMARK    9  A    between atoms: C18_20  and  C19_21 
REMARK   10  A    between atoms: C19_21  and  N2_22 
REMARK   11  A    between atoms: N2_22  and  O1_24 
REMARK   12  A    between atoms: C25_30  and  O2_31 
REMARK   13  A    between atoms: C29_36  and  C30_37 
REMARK   14  A    between atoms: C30_37  and  C31_38 
REMARK   15  A    between atoms: C31_38  and  C32_39 
ROOT
HETATM    1  C1  UNL     1      30.421  40.407  17.218  1.00  0.00     0.010 C 
HETATM    2  C2  UNL     1      31.308  39.656  16.210  1.00  0.00    -0.014 C 
HETATM    3  C3  UNL     1      31.908  40.680  15.328  1.00  0.00     0.005 C 
HETATM    4  C4  UNL     1      32.618  40.101  14.124  1.00  0.00     0.006 C 
HETATM    5  C5  UNL     1      32.658  38.610  14.367  1.00  0.00    -0.001 C 
HETATM    6  C6  UNL     1      33.532  37.872  13.455  1.00  0.00    -0.002 C 
HETATM    7  C7  UNL     1      35.004  38.331  13.492  1.00  0.00     0.015 C 
HETATM    8  C8  UNL     1      35.824  37.123  13.504  1.00  0.00    -0.032 C 
HETATM    9  C9  UNL     1      36.516  36.901  14.789  1.00  0.00     0.016 C 
HETATM   10  C10 UNL     1      36.633  36.773  12.311  1.00  0.00     0.022 C 
HETATM   11  C21 UNL     1      36.851  35.296  12.593  1.00  0.00     0.010 C 
HETATM   12  C22 UNL     1      35.605  34.859  13.403  1.00  0.00     0.006 C 
HETATM   13  C23 UNL     1      34.758  36.017  13.241  1.00  0.00     0.001 C 
HETATM   14  C24 UNL     1      33.699  36.466  14.070  1.00  0.00     0.024 C 
HETATM   15  C25 UNL     1      32.382  35.747  14.050  1.00  0.00     0.123 C 
HETATM   16  C26 UNL     1      31.379  36.533  14.811  1.00  0.00     0.042 C 
HETATM   17  C27 UNL     1      31.263  38.014  14.377  1.00  0.00    -0.034 C 
HETATM   18  C28 UNL     1      30.654  37.960  13.025  1.00  0.00     0.016 C 
HETATM   19  C29 UNL     1      30.419  38.677  15.389  1.00  0.00    -0.002 C 
ENDROOT
BRANCH  10  20
HETATM   20  C11 UNL     1      37.845  37.555  12.022  1.00  0.00    -0.083 C 
HETATM   21  C12 UNL     1      38.677  37.139  10.852  1.00  0.00     0.043 C 
BRANCH  20  22
HETATM   22  C13 UNL     1      37.779  39.027  12.128  1.00  0.00    -0.022 C 
BRANCH  22  23
HETATM   23  C14 UNL     1      38.897  39.815  12.626  1.00  0.00     0.046 C 
BRANCH  23  24
HETATM   24  C15 UNL     1      38.740  40.631  13.861  1.00  0.00     0.117 C 
BRANCH  24  25
HETATM   25  N1  UNL     1      37.441  40.750  14.403  1.00  0.00    -0.421 N 
ATOM     26  H1  UNL     1      36.620  40.846  13.807  1.00  0.00     0.153 HD
BRANCH  25  27
HETATM   27  C16 UNL     1      37.333  40.729  15.829  1.00  0.00     0.113 C 
BRANCH  27  28
HETATM   28  C17 UNL     1      37.989  39.553  16.470  1.00  0.00     0.020 C 
BRANCH  28  29
HETATM   29  C18 UNL     1      38.951  39.967  17.552  1.00  0.00     0.018 C 
BRANCH  29  30
HETATM   30  C19 UNL     1      39.539  38.814  18.284  1.00  0.00     0.120 C 
BRANCH  30  31
HETATM   31  N2  UNL     1      39.432  38.949  19.726  1.00  0.00    -0.204 NA
HETATM   32  C20 UNL     1      40.331  39.956  20.247  1.00  0.00     0.143 C 
BRANCH  31  33
HETATM   33  O1  UNL     1      39.756  37.782  20.326  1.00  0.00    -0.314 OA
ATOM     34  H1  UNL     1      39.133  37.106  20.083  1.00  0.00     0.237 HD
ENDBRANCH  31  33
ENDBRANCH  30  31
ENDBRANCH  29  30
ENDBRANCH  28  29
ENDBRANCH  27  28
ENDBRANCH  25  27
ENDBRANCH  24  25
ENDBRANCH  23  24
ENDBRANCH  22  23
ENDBRANCH  20  22
ENDBRANCH  10  20
BRANCH  15  35
HETATM   35  O2  UNL     1      31.986  35.297  12.816  1.00  0.00    -0.395 OA
ATOM     36  H2  UNL     1      31.049  35.329  12.659  1.00  0.00     0.210 HD
ENDBRANCH  15  35
BRANCH  19  37
HETATM   37  C30 UNL     1      29.191  39.399  15.114  1.00  0.00     0.014 C 
BRANCH  37  38
HETATM   38  C31 UNL     1      27.851  38.736  15.131  1.00  0.00     0.100 C 
BRANCH  38  39
HETATM   39  C32 UNL     1      27.134  39.062  16.429  1.00  0.00     0.231 C 
HETATM   40  N3  UNL     1      26.605  38.012  17.180  1.00  0.00    -0.062 NA
HETATM   41  O3  UNL     1      27.040  40.248  16.783  1.00  0.00    -0.277 OA
ENDBRANCH  38  39
ENDBRANCH  37  38
ENDBRANCH  19  37
TORSDOF 15
ENDMDL
