MODEL 1
REMARK VINA RESULT: -4.512190863      0.000      0.000
REMARK  1 active torsions:
REMARK  status: ('A' for Active; 'I' for Inactive)
REMARK    1  A    between atoms: N1_1  and  C1_5 
ROOT
HETATM    1  C1  UNL     1      26.036   5.641   4.886  1.00  0.00     0.128 A 
HETATM    2  C2  UNL     1      26.932   6.567   4.139  1.00  0.00     0.039 C 
HETATM    3  C3  UNL     1      27.342   7.298   5.403  1.00  0.00     0.010 C 
HETATM    4  C4  UNL     1      26.163   6.629   6.084  1.00  0.00     0.024 A 
HETATM    5  C5  UNL     1      26.304   5.168   6.249  1.00  0.00     0.046 A 
ENDROOT
BRANCH   1   6
HETATM    6  N1  UNL     1      24.717   5.437   4.347  1.00  0.00    -0.070 N 
ATOM      7  H13 UNL     1      24.082   6.139   4.727  1.00  0.00     0.275 HD
ATOM      8  H12 UNL     1      24.708   5.690   3.359  1.00  0.00     0.275 HD
ATOM      9  H11 UNL     1      24.309   4.510   4.465  1.00  0.00     0.275 HD
ENDBRANCH   1   6
TORSDOF 1
ENDMDL
MODEL 2
REMARK VINA RESULT: -4.304041621      1.479      2.186
REMARK  1 active torsions:
REMARK  status: ('A' for Active; 'I' for Inactive)
REMARK    1  A    between atoms: N1_1  and  C1_5 
ROOT
HETATM    1  C1  UNL     1      26.419   6.654   4.682  1.00  0.00     0.128 A 
HETATM    2  C2  UNL     1      25.467   5.522   4.506  1.00  0.00     0.039 C 
HETATM    3  C3  UNL     1      25.596   5.098   5.956  1.00  0.00     0.010 C 
HETATM    4  C4  UNL     1      26.828   5.982   6.027  1.00  0.00     0.024 A 
HETATM    5  C5  UNL     1      26.546   7.428   5.922  1.00  0.00     0.046 A 
ENDROOT
BRANCH   1   6
HETATM    6  N1  UNL     1      27.449   6.798   3.687  1.00  0.00    -0.070 N 
ATOM      7  H13 UNL     1      27.021   6.918   2.769  1.00  0.00     0.275 HD
ATOM      8  H12 UNL     1      27.908   7.702   3.800  1.00  0.00     0.275 HD
ATOM      9  H11 UNL     1      28.152   6.062   3.642  1.00  0.00     0.275 HD
ENDBRANCH   1   6
TORSDOF 1
ENDMDL
MODEL 3
REMARK VINA RESULT: -4.267866851      1.211      1.976
REMARK  1 active torsions:
REMARK  status: ('A' for Active; 'I' for Inactive)
REMARK    1  A    between atoms: N1_1  and  C1_5 
ROOT
HETATM    1  C1  UNL     1      25.877   5.009   4.829  1.00  0.00     0.128 A 
HETATM    2  C2  UNL     1      26.355   5.161   6.231  1.00  0.00     0.039 C 
HETATM    3  C3  UNL     1      26.301   6.675   6.157  1.00  0.00     0.010 C 
HETATM    4  C4  UNL     1      26.196   6.523   4.651  1.00  0.00     0.024 A 
HETATM    5  C5  UNL     1      24.929   5.925   4.186  1.00  0.00     0.046 A 
ENDROOT
BRANCH   1   6
HETATM    6  N1  UNL     1      26.600   4.088   3.992  1.00  0.00    -0.070 N 
ATOM      7  H13 UNL     1      27.581   4.362   3.951  1.00  0.00     0.275 HD
ATOM      8  H12 UNL     1      26.676   3.186   4.462  1.00  0.00     0.275 HD
ATOM      9  H11 UNL     1      26.245   3.950   3.046  1.00  0.00     0.275 HD
ENDBRANCH   1   6
TORSDOF 1
ENDMDL
MODEL 4
REMARK VINA RESULT: -4.233001037      1.742      2.312
REMARK  1 active torsions:
REMARK  status: ('A' for Active; 'I' for Inactive)
REMARK    1  A    between atoms: N1_1  and  C1_5 
ROOT
HETATM    1  C1  UNL     1      26.307   6.287   4.583  1.00  0.00     0.128 A 
HETATM    2  C2  UNL     1      27.315   6.488   3.505  1.00  0.00     0.039 C 
HETATM    3  C3  UNL     1      27.053   5.118   2.911  1.00  0.00     0.010 C 
HETATM    4  C4  UNL     1      26.336   4.776   4.203  1.00  0.00     0.024 A 
HETATM    5  C5  UNL     1      25.073   5.513   4.412  1.00  0.00     0.046 A 
ENDROOT
BRANCH   1   6
HETATM    6  N1  UNL     1      26.710   6.630   5.922  1.00  0.00    -0.070 N 
ATOM      7  H13 UNL     1      27.077   5.802   6.390  1.00  0.00     0.275 HD
ATOM      8  H12 UNL     1      27.545   7.214   5.888  1.00  0.00     0.275 HD
ATOM      9  H11 UNL     1      26.008   7.073   6.514  1.00  0.00     0.275 HD
ENDBRANCH   1   6
TORSDOF 1
ENDMDL
MODEL 5
REMARK VINA RESULT: -4.197802453      1.476      2.223
REMARK  1 active torsions:
REMARK  status: ('A' for Active; 'I' for Inactive)
REMARK    1  A    between atoms: N1_1  and  C1_5 
ROOT
HETATM    1  C1  UNL     1      26.838   5.962   4.483  1.00  0.00     0.128 A 
HETATM    2  C2  UNL     1      26.768   6.333   5.924  1.00  0.00     0.039 C 
HETATM    3  C3  UNL     1      25.494   5.537   6.137  1.00  0.00     0.010 C 
HETATM    4  C4  UNL     1      25.360   5.489   4.626  1.00  0.00     0.024 A 
HETATM    5  C5  UNL     1      26.387   4.672   3.950  1.00  0.00     0.046 A 
ENDROOT
BRANCH   1   6
HETATM    6  N1  UNL     1      27.093   7.027   3.550  1.00  0.00    -0.070 N 
ATOM      7  H13 UNL     1      26.208   7.413   3.223  1.00  0.00     0.275 HD
ATOM      8  H12 UNL     1      27.477   7.832   4.045  1.00  0.00     0.275 HD
ATOM      9  H11 UNL     1      27.685   6.806   2.749  1.00  0.00     0.275 HD
ENDBRANCH   1   6
TORSDOF 1
ENDMDL
