MODEL 1
REMARK VINA RESULT: -4.868123285      0.000      0.000
REMARK  1 active torsions:
REMARK  status: ('A' for Active; 'I' for Inactive)
REMARK    1  A    between atoms: N1_1  and  C1_5 
ROOT
HETATM    1  C1  UNL     1      26.856   6.893   4.200  1.00  0.00     0.183 C 
HETATM    2  C2  UNL     1      26.496   5.458   3.839  1.00  0.00     0.033 C 
HETATM    3  C3  UNL     1      25.439   5.170   4.907  1.00  0.00     0.002 C 
HETATM    4  C4  UNL     1      26.194   5.625   6.160  1.00  0.00     0.002 C 
HETATM    5  C5  UNL     1      26.682   6.997   5.695  1.00  0.00     0.033 C 
ENDROOT
BRANCH   1   6
HETATM    6  N1  UNL     1      28.197   7.231   3.773  1.00  0.00    -0.075 N 
ATOM      7  H13 UNL     1      28.473   8.154   4.109  1.00  0.00     0.274 HD
ATOM      8  H12 UNL     1      28.895   6.669   4.260  1.00  0.00     0.274 HD
ATOM      9  H11 UNL     1      28.300   7.158   2.761  1.00  0.00     0.274 HD
ENDBRANCH   1   6
TORSDOF 1
ENDMDL
MODEL 2
REMARK VINA RESULT: -4.575594710      1.538      2.306
REMARK  1 active torsions:
REMARK  status: ('A' for Active; 'I' for Inactive)
REMARK    1  A    between atoms: N1_1  and  C1_5 
ROOT
HETATM    1  C1  UNL     1      25.967   5.398   4.491  1.00  0.00     0.183 C 
HETATM    2  C2  UNL     1      26.093   5.231   6.000  1.00  0.00     0.033 C 
HETATM    3  C3  UNL     1      26.191   6.698   6.424  1.00  0.00     0.002 C 
HETATM    4  C4  UNL     1      27.291   7.178   5.474  1.00  0.00     0.002 C 
HETATM    5  C5  UNL     1      26.755   6.638   4.148  1.00  0.00     0.033 C 
ENDROOT
BRANCH   1   6
HETATM    6  N1  UNL     1      26.441   4.227   3.783  1.00  0.00    -0.075 N 
ATOM      7  H13 UNL     1      25.722   3.850   3.165  1.00  0.00     0.274 HD
ATOM      8  H12 UNL     1      27.140   4.474   3.082  1.00  0.00     0.274 HD
ATOM      9  H11 UNL     1      26.791   3.516   4.424  1.00  0.00     0.274 HD
ENDBRANCH   1   6
TORSDOF 1
ENDMDL
MODEL 3
REMARK VINA RESULT: -4.484053784      1.035      1.378
REMARK  1 active torsions:
REMARK  status: ('A' for Active; 'I' for Inactive)
REMARK    1  A    between atoms: N1_1  and  C1_5 
ROOT
HETATM    1  C1  UNL     1      26.364   5.814   3.841  1.00  0.00     0.183 C 
HETATM    2  C2  UNL     1      26.178   4.676   4.836  1.00  0.00     0.033 C 
HETATM    3  C3  UNL     1      25.649   5.458   6.040  1.00  0.00     0.002 C 
HETATM    4  C4  UNL     1      26.701   6.567   6.122  1.00  0.00     0.002 C 
HETATM    5  C5  UNL     1      26.721   7.026   4.665  1.00  0.00     0.033 C 
ENDROOT
BRANCH   1   6
HETATM    6  N1  UNL     1      27.374   5.499   2.852  1.00  0.00    -0.075 N 
ATOM      7  H13 UNL     1      28.300   5.799   3.157  1.00  0.00     0.274 HD
ATOM      8  H12 UNL     1      27.541   4.494   2.798  1.00  0.00     0.274 HD
ATOM      9  H11 UNL     1      27.140   5.887   1.938  1.00  0.00     0.274 HD
ENDBRANCH   1   6
TORSDOF 1
ENDMDL
MODEL 4
REMARK VINA RESULT: -4.409706876      0.551      1.739
REMARK  1 active torsions:
REMARK  status: ('A' for Active; 'I' for Inactive)
REMARK    1  A    between atoms: N1_1  and  C1_5 
ROOT
HETATM    1  C1  UNL     1      27.442   6.375   4.124  1.00  0.00     0.183 C 
HETATM    2  C2  UNL     1      26.760   7.015   5.326  1.00  0.00     0.033 C 
HETATM    3  C3  UNL     1      25.966   5.817   5.852  1.00  0.00     0.002 C 
HETATM    4  C4  UNL     1      25.281   5.362   4.560  1.00  0.00     0.002 C 
HETATM    5  C5  UNL     1      26.483   5.326   3.617  1.00  0.00     0.033 C 
ENDROOT
BRANCH   1   6
HETATM    6  N1  UNL     1      27.774   7.357   3.113  1.00  0.00    -0.075 N 
ATOM      7  H13 UNL     1      27.847   6.931   2.189  1.00  0.00     0.274 HD
ATOM      8  H12 UNL     1      26.992   7.988   2.936  1.00  0.00     0.274 HD
ATOM      9  H11 UNL     1      28.622   7.872   3.352  1.00  0.00     0.274 HD
ENDBRANCH   1   6
TORSDOF 1
ENDMDL
MODEL 5
REMARK VINA RESULT: -4.278243779      1.785      2.412
REMARK  1 active torsions:
REMARK  status: ('A' for Active; 'I' for Inactive)
REMARK    1  A    between atoms: N1_1  and  C1_5 
ROOT
HETATM    1  C1  UNL     1      25.994   5.456   4.728  1.00  0.00     0.183 C 
HETATM    2  C2  UNL     1      26.546   6.750   4.143  1.00  0.00     0.033 C 
HETATM    3  C3  UNL     1      27.492   7.171   5.270  1.00  0.00     0.002 C 
HETATM    4  C4  UNL     1      26.549   7.051   6.470  1.00  0.00     0.002 C 
HETATM    5  C5  UNL     1      25.976   5.656   6.223  1.00  0.00     0.033 C 
ENDROOT
BRANCH   1   6
HETATM    6  N1  UNL     1      24.685   5.144   4.194  1.00  0.00    -0.075 N 
ATOM      7  H13 UNL     1      23.957   5.273   4.896  1.00  0.00     0.274 HD
ATOM      8  H12 UNL     1      24.381   5.846   3.519  1.00  0.00     0.274 HD
ATOM      9  H11 UNL     1      24.655   4.206   3.795  1.00  0.00     0.274 HD
ENDBRANCH   1   6
TORSDOF 1
ENDMDL
