MODEL 1
REMARK VINA RESULT: -4.826882967      0.000      0.000
REMARK  1 active torsions:
REMARK  status: ('A' for Active; 'I' for Inactive)
REMARK    1  A    between atoms: N1_1  and  C1_5 
ROOT
HETATM    1  C1  UNL     1      27.042   5.439   4.068  1.00  0.00     0.191 C 
HETATM    2  C2  UNL     1      25.965   4.770   4.883  1.00  0.00     0.017 C 
HETATM    3  C3  UNL     1      26.183   5.327   6.257  1.00  0.00     0.007 C 
HETATM    4  C4  UNL     1      26.488   6.796   5.889  1.00  0.00     0.007 C 
HETATM    5  C5  UNL     1      26.262   6.715   4.415  1.00  0.00     0.017 C 
HETATM    6  C6  UNL     1      25.028   5.822   4.272  1.00  0.00     0.013 C 
ENDROOT
BRANCH   1   7
HETATM    7  N1  UNL     1      26.997   5.180   2.647  1.00  0.00    -0.074 N 
ATOM      8  H13 UNL     1      27.692   5.752   2.165  1.00  0.00     0.274 HD
ATOM      9  H12 UNL     1      27.361   4.248   2.449  1.00  0.00     0.274 HD
ATOM     10  H11 UNL     1      26.084   5.299   2.208  1.00  0.00     0.274 HD
ENDBRANCH   1   7
TORSDOF 1
ENDMDL
MODEL 2
REMARK VINA RESULT: -4.218779468      1.766      2.655
REMARK  1 active torsions:
REMARK  status: ('A' for Active; 'I' for Inactive)
REMARK    1  A    between atoms: N1_1  and  C1_5 
ROOT
HETATM    1  C1  UNL     1      26.766   6.028   5.413  1.00  0.00     0.191 C 
HETATM    2  C2  UNL     1      26.394   6.526   4.039  1.00  0.00     0.017 C 
HETATM    3  C3  UNL     1      26.993   5.495   3.131  1.00  0.00     0.007 C 
HETATM    4  C4  UNL     1      26.652   4.220   3.934  1.00  0.00     0.007 C 
HETATM    5  C5  UNL     1      25.860   4.848   5.033  1.00  0.00     0.017 C 
HETATM    6  C6  UNL     1      25.017   5.913   4.330  1.00  0.00     0.013 C 
ENDROOT
BRANCH   1   7
HETATM    7  N1  UNL     1      26.204   6.772   6.517  1.00  0.00    -0.074 N 
ATOM      8  H13 UNL     1      25.957   7.715   6.213  1.00  0.00     0.274 HD
ATOM      9  H12 UNL     1      25.279   6.409   6.749  1.00  0.00     0.274 HD
ATOM     10  H11 UNL     1      26.782   6.816   7.355  1.00  0.00     0.274 HD
ENDBRANCH   1   7
TORSDOF 1
ENDMDL
MODEL 3
REMARK VINA RESULT: -4.033604898      1.157      1.372
REMARK  1 active torsions:
REMARK  status: ('A' for Active; 'I' for Inactive)
REMARK    1  A    between atoms: N1_1  and  C1_5 
ROOT
HETATM    1  C1  UNL     1      27.527   6.348   4.292  1.00  0.00     0.191 C 
HETATM    2  C2  UNL     1      26.265   5.590   3.972  1.00  0.00     0.017 C 
HETATM    3  C3  UNL     1      25.988   4.841   5.241  1.00  0.00     0.007 C 
HETATM    4  C4  UNL     1      26.344   5.940   6.267  1.00  0.00     0.007 C 
HETATM    5  C5  UNL     1      26.630   7.056   5.317  1.00  0.00     0.017 C 
HETATM    6  C6  UNL     1      25.549   6.921   4.242  1.00  0.00     0.013 C 
ENDROOT
BRANCH   1   7
HETATM    7  N1  UNL     1      27.972   7.273   3.274  1.00  0.00    -0.074 N 
ATOM      8  H13 UNL     1      27.286   8.019   3.156  1.00  0.00     0.274 HD
ATOM      9  H12 UNL     1      28.769   7.811   3.614  1.00  0.00     0.274 HD
ATOM     10  H11 UNL     1      28.193   6.856   2.370  1.00  0.00     0.274 HD
ENDBRANCH   1   7
TORSDOF 1
ENDMDL
MODEL 4
REMARK VINA RESULT: -3.855897915      1.353      2.079
REMARK  1 active torsions:
REMARK  status: ('A' for Active; 'I' for Inactive)
REMARK    1  A    between atoms: N1_1  and  C1_5 
ROOT
HETATM    1  C1  UNL     1      25.217   6.152   4.618  1.00  0.00     0.191 C 
HETATM    2  C2  UNL     1      26.644   6.017   4.154  1.00  0.00     0.017 C 
HETATM    3  C3  UNL     1      27.376   7.008   5.008  1.00  0.00     0.007 C 
HETATM    4  C4  UNL     1      26.662   6.756   6.355  1.00  0.00     0.007 C 
HETATM    5  C5  UNL     1      25.785   5.620   5.941  1.00  0.00     0.017 C 
HETATM    6  C6  UNL     1      26.679   4.764   5.041  1.00  0.00     0.013 C 
ENDROOT
BRANCH   1   7
HETATM    7  N1  UNL     1      24.284   5.210   4.043  1.00  0.00    -0.074 N 
ATOM      8  H13 UNL     1      23.817   4.686   4.783  1.00  0.00     0.274 HD
ATOM      9  H12 UNL     1      23.488   5.707   3.643  1.00  0.00     0.274 HD
ATOM     10  H11 UNL     1      24.677   4.568   3.356  1.00  0.00     0.274 HD
ENDBRANCH   1   7
TORSDOF 1
ENDMDL
MODEL 5
REMARK VINA RESULT: -3.739745908      1.557      2.409
REMARK  1 active torsions:
REMARK  status: ('A' for Active; 'I' for Inactive)
REMARK    1  A    between atoms: N1_1  and  C1_5 
ROOT
HETATM    1  C1  UNL     1      27.161   6.708   4.512  1.00  0.00     0.191 C 
HETATM    2  C2  UNL     1      25.727   6.913   4.930  1.00  0.00     0.017 C 
HETATM    3  C3  UNL     1      25.009   5.791   4.241  1.00  0.00     0.007 C 
HETATM    4  C4  UNL     1      26.035   4.659   4.465  1.00  0.00     0.007 C 
HETATM    5  C5  UNL     1      27.018   5.403   5.308  1.00  0.00     0.017 C 
HETATM    6  C6  UNL     1      26.148   6.243   6.246  1.00  0.00     0.013 C 
ENDROOT
BRANCH   1   7
HETATM    7  N1  UNL     1      28.122   7.587   5.137  1.00  0.00    -0.074 N 
ATOM      8  H13 UNL     1      28.207   8.450   4.599  1.00  0.00     0.274 HD
ATOM      9  H12 UNL     1      27.744   7.955   6.010  1.00  0.00     0.274 HD
ATOM     10  H11 UNL     1      29.045   7.185   5.298  1.00  0.00     0.274 HD
ENDBRANCH   1   7
TORSDOF 1
ENDMDL
