MODEL 1
REMARK VINA RESULT: -7.816342495      0.000      0.000
REMARK  10 active torsions:
REMARK  status: ('A' for Active; 'I' for Inactive)
REMARK    1  A    between atoms: C2_2  and  C3_3 
REMARK    2  A    between atoms: C3_3  and  C4_4 
REMARK    3  A    between atoms: C4_4  and  C5_5 
REMARK    4  A    between atoms: C5_5  and  C6_6 
REMARK    5  A    between atoms: C6_6  and  C7_7 
REMARK    6  A    between atoms: C7_7  and  C8_8 
REMARK    7  A    between atoms: C8_8  and  C9_9 
REMARK    8  A    between atoms: N4_31  and  C23_33 
REMARK    9  A    between atoms: C23_33  and  C24_34 
REMARK   10  A    between atoms: C27_37  and  C28_38 
ROOT
HETATM    1  C9  UNL     1       6.088   5.717  18.374  1.00  0.00     0.277 C 
HETATM    2  N1  UNL     1       6.173   7.140  18.666  1.00  0.00    -0.062 N 
ATOM      3  H11 UNL     1       5.462   7.685  18.179  1.00  0.00     0.278 HD
ATOM      4  H12 UNL     1       6.992   7.580  18.247  1.00  0.00     0.278 HD
HETATM    5  C10 UNL     1       6.121   7.310  20.098  1.00  0.00     0.233 C 
HETATM    6  C11 UNL     1       7.316   8.075  20.614  1.00  0.00     0.028 C 
HETATM    7  C12 UNL     1       6.937   8.892  21.858  1.00  0.00     0.011 C 
HETATM    8  C13 UNL     1       6.292   7.914  22.814  1.00  0.00     0.103 C 
HETATM    9  C14 UNL     1       6.007   8.503  24.136  1.00  0.00     0.218 C 
HETATM   10  O1  UNL     1       6.976   9.153  24.664  1.00  0.00    -0.274 OA
HETATM   11  N2  UNL     1       4.815   8.436  24.875  1.00  0.00    -0.344 N 
ATOM     12  H2  UNL     1       4.887   8.021  25.805  1.00  0.00     0.163 HD
HETATM   13  C15 UNL     1       3.494   8.883  24.479  1.00  0.00     0.106 C 
HETATM   14  C16 UNL     1       3.442   9.631  23.195  1.00  0.00     0.048 C 
HETATM   15  C17 UNL     1       3.158   9.993  25.524  1.00  0.00     0.048 C 
HETATM   16  C18 UNL     1       2.488   7.795  24.612  1.00  0.00     0.245 C 
HETATM   17  O2  UNL     1       2.362   7.371  25.824  1.00  0.00    -0.271 OA
HETATM   18  N3  UNL     1       1.700   7.199  23.652  1.00  0.00    -0.353 N 
ATOM     19  H3  UNL     1       0.695   7.216  23.827  1.00  0.00     0.163 HD
HETATM   20  C19 UNL     1       2.126   6.537  22.399  1.00  0.00     0.107 C 
HETATM   21  C20 UNL     1       1.243   7.176  21.342  1.00  0.00     0.034 C 
HETATM   22  C21 UNL     1       1.906   5.114  22.647  1.00  0.00     0.267 C 
HETATM   23  N4  UNL     1       2.337   4.111  21.691  1.00  0.00    -0.047 N 
HETATM   24  C22 UNL     1       1.488   4.153  20.566  1.00  0.00     0.278 C 
HETATM   25  C26 UNL     1       3.736   4.231  21.440  1.00  0.00     0.227 C 
HETATM   26  C27 UNL     1       4.417   3.646  20.307  1.00  0.00     0.039 C 
HETATM   27  N5  UNL     1       4.090   4.212  18.997  1.00  0.00    -0.327 N 
ATOM     28  H5  UNL     1       3.392   3.717  18.441  1.00  0.00     0.168 HD
HETATM   29  C31 UNL     1       4.641   5.362  18.440  1.00  0.00     0.252 C 
HETATM   30  O3  UNL     1       3.846   6.219  17.923  1.00  0.00    -0.271 OA
ENDROOT
BRANCH   1  31
HETATM   31  C8  UNL     1       6.538   5.391  16.988  1.00  0.00     0.043 C 
BRANCH  31  32
HETATM   32  C7  UNL     1       7.239   4.032  16.881  1.00  0.00     0.006 C 
BRANCH  32  33
HETATM   33  C6  UNL     1       7.937   3.691  18.148  1.00  0.00     0.027 C 
BRANCH  33  34
HETATM   34  C5  UNL     1       9.354   3.302  18.033  1.00  0.00    -0.031 C 
BRANCH  34  35
HETATM   35  C4  UNL     1       9.794   1.915  18.014  1.00  0.00    -0.031 C 
BRANCH  35  36
HETATM   36  C3  UNL     1       8.847   0.793  18.126  1.00  0.00     0.026 C 
BRANCH  36  37
HETATM   37  C2  UNL     1       8.504   0.105  16.835  1.00  0.00    -0.001 C 
HETATM   38  C1  UNL     1       7.070   0.424  16.437  1.00  0.00     0.005 C 
ENDBRANCH  36  37
ENDBRANCH  35  36
ENDBRANCH  34  35
ENDBRANCH  33  34
ENDBRANCH  32  33
ENDBRANCH  31  32
ENDBRANCH   1  31
BRANCH  26  39
HETATM   39  C28 UNL     1       4.621   2.185  20.181  1.00  0.00     0.029 C 
HETATM   40  C29 UNL     1       6.054   1.769  20.450  1.00  0.00     0.016 C 
HETATM   41  C30 UNL     1       4.421   1.868  18.680  1.00  0.00     0.016 C 
ENDBRANCH  26  39
BRANCH  23  42
HETATM   42  C23 UNL     1       2.166   2.871  22.423  1.00  0.00     0.242 C 
BRANCH  42  43
HETATM   43  C24 UNL     1       3.086   2.507  23.491  1.00  0.00     0.024 C 
HETATM   44  C25 UNL     1       3.399   1.052  23.703  1.00  0.00     0.007 C 
ENDBRANCH  42  43
ENDBRANCH  23  42
TORSDOF 10
ENDMDL
MODEL 2
REMARK VINA RESULT: -7.454120885      2.322      5.406
REMARK  10 active torsions:
REMARK  status: ('A' for Active; 'I' for Inactive)
REMARK    1  A    between atoms: C2_2  and  C3_3 
REMARK    2  A    between atoms: C3_3  and  C4_4 
REMARK    3  A    between atoms: C4_4  and  C5_5 
REMARK    4  A    between atoms: C5_5  and  C6_6 
REMARK    5  A    between atoms: C6_6  and  C7_7 
REMARK    6  A    between atoms: C7_7  and  C8_8 
REMARK    7  A    between atoms: C8_8  and  C9_9 
REMARK    8  A    between atoms: N4_31  and  C23_33 
REMARK    9  A    between atoms: C23_33  and  C24_34 
REMARK   10  A    between atoms: C27_37  and  C28_38 
ROOT
HETATM    1  C9  UNL     1       3.213   3.506  21.534  1.00  0.00     0.277 C 
HETATM    2  N1  UNL     1       1.942   3.538  22.243  1.00  0.00    -0.062 N 
ATOM      3  H11 UNL     1       2.031   3.274  23.224  1.00  0.00     0.278 HD
ATOM      4  H12 UNL     1       1.313   2.789  21.957  1.00  0.00     0.278 HD
HETATM    5  C10 UNL     1       1.362   4.849  22.069  1.00  0.00     0.233 C 
HETATM    6  C11 UNL     1      -0.025   4.772  21.478  1.00  0.00     0.028 C 
HETATM    7  C12 UNL     1      -0.890   5.937  21.981  1.00  0.00     0.011 C 
HETATM    8  C13 UNL     1      -0.099   7.193  21.697  1.00  0.00     0.103 C 
HETATM    9  C14 UNL     1      -0.857   8.428  21.976  1.00  0.00     0.218 C 
HETATM   10  O1  UNL     1      -2.041   8.462  21.489  1.00  0.00    -0.274 OA
HETATM   11  N2  UNL     1      -0.438   9.555  22.700  1.00  0.00    -0.344 N 
ATOM     12  H2  UNL     1      -0.451  10.442  22.196  1.00  0.00     0.163 HD
HETATM   13  C15 UNL     1       0.010   9.613  24.078  1.00  0.00     0.106 C 
HETATM   14  C16 UNL     1      -0.136   8.346  24.841  1.00  0.00     0.048 C 
HETATM   15  C17 UNL     1      -1.045  10.537  24.765  1.00  0.00     0.048 C 
HETATM   16  C18 UNL     1       1.344  10.263  24.190  1.00  0.00     0.245 C 
HETATM   17  O2  UNL     1       1.347  11.483  23.773  1.00  0.00    -0.271 OA
HETATM   18  N3  UNL     1       2.535   9.757  24.662  1.00  0.00    -0.353 N 
ATOM     19  H3  UNL     1       2.976  10.285  25.415  1.00  0.00     0.163 HD
HETATM   20  C19 UNL     1       3.256   8.544  24.215  1.00  0.00     0.107 C 
HETATM   21  C20 UNL     1       3.546   7.807  25.511  1.00  0.00     0.034 C 
HETATM   22  C21 UNL     1       4.418   9.058  23.493  1.00  0.00     0.267 C 
HETATM   23  N4  UNL     1       5.310   8.166  22.777  1.00  0.00    -0.047 N 
HETATM   24  C22 UNL     1       6.079   7.439  23.708  1.00  0.00     0.278 C 
HETATM   25  C26 UNL     1       4.584   7.403  21.815  1.00  0.00     0.227 C 
HETATM   26  C27 UNL     1       5.075   6.196  21.189  1.00  0.00     0.039 C 
HETATM   27  N5  UNL     1       5.223   5.031  22.065  1.00  0.00    -0.327 N 
ATOM     28  H5  UNL     1       6.155   4.848  22.437  1.00  0.00     0.168 HD
HETATM   29  C31 UNL     1       4.211   4.151  22.436  1.00  0.00     0.252 C 
HETATM   30  O3  UNL     1       4.105   3.845  23.672  1.00  0.00    -0.271 OA
ENDROOT
BRANCH   1  31
HETATM   31  C8  UNL     1       3.698   2.114  21.296  1.00  0.00     0.043 C 
BRANCH  31  32
HETATM   32  C7  UNL     1       5.095   2.058  20.669  1.00  0.00     0.006 C 
BRANCH  32  33
HETATM   33  C6  UNL     1       5.013   1.928  19.191  1.00  0.00     0.027 C 
BRANCH  33  34
HETATM   34  C5  UNL     1       6.252   1.532  18.497  1.00  0.00    -0.031 C 
BRANCH  34  35
HETATM   35  C4  UNL     1       7.553   1.514  19.149  1.00  0.00    -0.031 C 
BRANCH  35  36
HETATM   36  C3  UNL     1       8.759   1.012  18.473  1.00  0.00     0.026 C 
BRANCH  36  37
HETATM   37  C2  UNL     1       9.706   2.067  17.972  1.00  0.00    -0.001 C 
HETATM   38  C1  UNL     1       9.093   3.449  18.153  1.00  0.00     0.005 C 
ENDBRANCH  36  37
ENDBRANCH  35  36
ENDBRANCH  34  35
ENDBRANCH  33  34
ENDBRANCH  32  33
ENDBRANCH  31  32
ENDBRANCH   1  31
BRANCH  26  39
HETATM   39  C28 UNL     1       6.174   6.215  20.197  1.00  0.00     0.029 C 
HETATM   40  C29 UNL     1       5.789   5.558  18.886  1.00  0.00     0.016 C 
HETATM   41  C30 UNL     1       7.265   5.280  20.772  1.00  0.00     0.016 C 
ENDBRANCH  26  39
BRANCH  23  42
HETATM   42  C23 UNL     1       6.142   9.079  22.019  1.00  0.00     0.242 C 
BRANCH  42  43
HETATM   43  C24 UNL     1       7.554   9.237  22.339  1.00  0.00     0.024 C 
HETATM   44  C25 UNL     1       8.572   8.870  21.295  1.00  0.00     0.007 C 
ENDBRANCH  42  43
ENDBRANCH  23  42
TORSDOF 10
ENDMDL
MODEL 3
REMARK VINA RESULT: -7.423106279      0.401      1.138
REMARK  10 active torsions:
REMARK  status: ('A' for Active; 'I' for Inactive)
REMARK    1  A    between atoms: C2_2  and  C3_3 
REMARK    2  A    between atoms: C3_3  and  C4_4 
REMARK    3  A    between atoms: C4_4  and  C5_5 
REMARK    4  A    between atoms: C5_5  and  C6_6 
REMARK    5  A    between atoms: C6_6  and  C7_7 
REMARK    6  A    between atoms: C7_7  and  C8_8 
REMARK    7  A    between atoms: C8_8  and  C9_9 
REMARK    8  A    between atoms: N4_31  and  C23_33 
REMARK    9  A    between atoms: C23_33  and  C24_34 
REMARK   10  A    between atoms: C27_37  and  C28_38 
ROOT
HETATM    1  C9  UNL     1       6.264   5.657  18.377  1.00  0.00     0.277 C 
HETATM    2  N1  UNL     1       6.342   7.082  18.663  1.00  0.00    -0.062 N 
ATOM      3  H11 UNL     1       5.639   7.624  18.159  1.00  0.00     0.278 HD
ATOM      4  H12 UNL     1       7.169   7.520  18.258  1.00  0.00     0.278 HD
HETATM    5  C10 UNL     1       6.262   7.260  20.093  1.00  0.00     0.233 C 
HETATM    6  C11 UNL     1       7.446   8.029  20.627  1.00  0.00     0.028 C 
HETATM    7  C12 UNL     1       7.042   8.852  21.859  1.00  0.00     0.011 C 
HETATM    8  C13 UNL     1       6.379   7.879  22.808  1.00  0.00     0.103 C 
HETATM    9  C14 UNL     1       6.068   8.475  24.122  1.00  0.00     0.218 C 
HETATM   10  O1  UNL     1       7.027   9.129  24.664  1.00  0.00    -0.274 OA
HETATM   11  N2  UNL     1       4.863   8.410  24.838  1.00  0.00    -0.344 N 
ATOM     12  H2  UNL     1       4.917   8.001  25.771  1.00  0.00     0.163 HD
HETATM   13  C15 UNL     1       3.549   8.854  24.413  1.00  0.00     0.106 C 
HETATM   14  C16 UNL     1       3.521   9.595  23.125  1.00  0.00     0.048 C 
HETATM   15  C17 UNL     1       3.191   9.969  25.446  1.00  0.00     0.048 C 
HETATM   16  C18 UNL     1       2.541   7.766  24.533  1.00  0.00     0.245 C 
HETATM   17  O2  UNL     1       2.392   7.348  25.744  1.00  0.00    -0.271 OA
HETATM   18  N3  UNL     1       1.772   7.163  23.561  1.00  0.00    -0.353 N 
ATOM     19  H3  UNL     1       0.765   7.180  23.717  1.00  0.00     0.163 HD
HETATM   20  C19 UNL     1       2.224   6.495  22.320  1.00  0.00     0.107 C 
HETATM   21  C20 UNL     1       1.360   7.127  21.243  1.00  0.00     0.034 C 
HETATM   22  C21 UNL     1       2.001   5.073  22.572  1.00  0.00     0.267 C 
HETATM   23  N4  UNL     1       2.451   4.065  21.630  1.00  0.00    -0.047 N 
HETATM   24  C22 UNL     1       1.624   4.100  20.489  1.00  0.00     0.278 C 
HETATM   25  C26 UNL     1       3.855   4.185  21.406  1.00  0.00     0.227 C 
HETATM   26  C27 UNL     1       4.558   3.595  20.289  1.00  0.00     0.039 C 
HETATM   27  N5  UNL     1       4.256   4.153  18.970  1.00  0.00    -0.327 N 
ATOM     28  H5  UNL     1       3.570   3.654  18.403  1.00  0.00     0.168 HD
HETATM   29  C31 UNL     1       4.816   5.300  18.417  1.00  0.00     0.252 C 
HETATM   30  O3  UNL     1       4.031   6.153  17.880  1.00  0.00    -0.271 OA
ENDROOT
BRANCH   1  31
HETATM   31  C8  UNL     1       6.742   5.323  17.002  1.00  0.00     0.043 C 
BRANCH  31  32
HETATM   32  C7  UNL     1       7.265   3.890  16.872  1.00  0.00     0.006 C 
BRANCH  32  33
HETATM   33  C6  UNL     1       6.520   3.141  15.827  1.00  0.00     0.027 C 
BRANCH  33  34
HETATM   34  C5  UNL     1       6.910   1.735  15.621  1.00  0.00    -0.031 C 
BRANCH  34  35
HETATM   35  C4  UNL     1       7.223   0.833  16.720  1.00  0.00    -0.031 C 
BRANCH  35  36
HETATM   36  C3  UNL     1       8.583   0.319  16.946  1.00  0.00     0.026 C 
BRANCH  36  37
HETATM   37  C2  UNL     1       9.268   0.824  18.184  1.00  0.00    -0.001 C 
HETATM   38  C1  UNL     1      10.037   2.101  17.874  1.00  0.00     0.005 C 
ENDBRANCH  36  37
ENDBRANCH  35  36
ENDBRANCH  34  35
ENDBRANCH  33  34
ENDBRANCH  32  33
ENDBRANCH  31  32
ENDBRANCH   1  31
BRANCH  26  39
HETATM   39  C28 UNL     1       4.766   2.133  20.175  1.00  0.00     0.029 C 
HETATM   40  C29 UNL     1       6.233   1.756  20.096  1.00  0.00     0.016 C 
HETATM   41  C30 UNL     1       4.209   1.744  18.785  1.00  0.00     0.016 C 
ENDBRANCH  26  39
BRANCH  23  42
HETATM   42  C23 UNL     1       2.267   2.829  22.365  1.00  0.00     0.242 C 
BRANCH  42  43
HETATM   43  C24 UNL     1       3.161   2.477  23.460  1.00  0.00     0.024 C 
HETATM   44  C25 UNL     1       3.355   1.022  23.788  1.00  0.00     0.007 C 
ENDBRANCH  42  43
ENDBRANCH  23  42
TORSDOF 10
ENDMDL
MODEL 4
REMARK VINA RESULT: -7.402344878      2.490      4.952
REMARK  10 active torsions:
REMARK  status: ('A' for Active; 'I' for Inactive)
REMARK    1  A    between atoms: C2_2  and  C3_3 
REMARK    2  A    between atoms: C3_3  and  C4_4 
REMARK    3  A    between atoms: C4_4  and  C5_5 
REMARK    4  A    between atoms: C5_5  and  C6_6 
REMARK    5  A    between atoms: C6_6  and  C7_7 
REMARK    6  A    between atoms: C7_7  and  C8_8 
REMARK    7  A    between atoms: C8_8  and  C9_9 
REMARK    8  A    between atoms: N4_31  and  C23_33 
REMARK    9  A    between atoms: C23_33  and  C24_34 
REMARK   10  A    between atoms: C27_37  and  C28_38 
ROOT
HETATM    1  C9  UNL     1       4.829   5.942  19.067  1.00  0.00     0.277 C 
HETATM    2  N1  UNL     1       3.377   5.988  19.158  1.00  0.00    -0.062 N 
ATOM      3  H11 UNL     1       2.992   5.218  19.704  1.00  0.00     0.278 HD
ATOM      4  H12 UNL     1       2.921   5.770  18.273  1.00  0.00     0.278 HD
HETATM    5  C10 UNL     1       3.000   7.282  19.676  1.00  0.00     0.233 C 
HETATM    6  C11 UNL     1       2.041   7.994  18.753  1.00  0.00     0.028 C 
HETATM    7  C12 UNL     1       1.092   8.897  19.554  1.00  0.00     0.011 C 
HETATM    8  C13 UNL     1       1.978   9.767  20.417  1.00  0.00     0.103 C 
HETATM    9  C14 UNL     1       1.230  10.811  21.143  1.00  0.00     0.218 C 
HETATM   10  O1  UNL     1       0.407  11.487  20.431  1.00  0.00    -0.274 OA
HETATM   11  N2  UNL     1       1.314  11.149  22.503  1.00  0.00    -0.344 N 
ATOM     12  H2  UNL     1       1.573  12.114  22.710  1.00  0.00     0.163 HD
HETATM   13  C15 UNL     1       1.077  10.294  23.650  1.00  0.00     0.106 C 
HETATM   14  C16 UNL     1       0.541   8.945  23.328  1.00  0.00     0.048 C 
HETATM   15  C17 UNL     1      -0.135  10.971  24.364  1.00  0.00     0.048 C 
HETATM   16  C18 UNL     1       2.234  10.303  24.585  1.00  0.00     0.245 C 
HETATM   17  O2  UNL     1       2.482  11.472  25.069  1.00  0.00    -0.271 OA
HETATM   18  N3  UNL     1       3.050   9.268  24.990  1.00  0.00    -0.353 N 
ATOM     19  H3  UNL     1       3.115   9.121  25.997  1.00  0.00     0.163 HD
HETATM   20  C19 UNL     1       3.844   8.345  24.148  1.00  0.00     0.107 C 
HETATM   21  C20 UNL     1       3.470   6.973  24.680  1.00  0.00     0.034 C 
HETATM   22  C21 UNL     1       5.228   8.762  24.358  1.00  0.00     0.267 C 
HETATM   23  N4  UNL     1       6.311   8.178  23.590  1.00  0.00    -0.047 N 
HETATM   24  C22 UNL     1       6.532   6.858  24.034  1.00  0.00     0.278 C 
HETATM   25  C26 UNL     1       6.081   8.351  22.193  1.00  0.00     0.227 C 
HETATM   26  C27 UNL     1       6.753   7.605  21.154  1.00  0.00     0.039 C 
HETATM   27  N5  UNL     1       6.430   6.178  21.074  1.00  0.00    -0.327 N 
ATOM     28  H5  UNL     1       7.076   5.532  21.528  1.00  0.00     0.168 HD
HETATM   29  C31 UNL     1       5.325   5.623  20.437  1.00  0.00     0.252 C 
HETATM   30  O3  UNL     1       4.647   4.744  21.070  1.00  0.00    -0.271 OA
ENDROOT
BRANCH   1  31
HETATM   31  C8  UNL     1       5.311   4.841  18.179  1.00  0.00     0.043 C 
BRANCH  31  32
HETATM   32  C7  UNL     1       6.453   5.267  17.251  1.00  0.00     0.006 C 
BRANCH  32  33
HETATM   33  C6  UNL     1       7.424   4.159  17.056  1.00  0.00     0.027 C 
BRANCH  33  34
HETATM   34  C5  UNL     1       8.296   3.840  18.202  1.00  0.00    -0.031 C 
BRANCH  34  35
HETATM   35  C4  UNL     1       8.965   2.556  18.352  1.00  0.00    -0.031 C 
BRANCH  35  36
HETATM   36  C3  UNL     1       8.249   1.350  18.797  1.00  0.00     0.026 C 
BRANCH  36  37
HETATM   37  C2  UNL     1       6.824   1.564  19.225  1.00  0.00    -0.001 C 
HETATM   38  C1  UNL     1       6.771   1.941  20.699  1.00  0.00     0.005 C 
ENDBRANCH  36  37
ENDBRANCH  35  36
ENDBRANCH  34  35
ENDBRANCH  33  34
ENDBRANCH  32  33
ENDBRANCH  31  32
ENDBRANCH   1  31
BRANCH  26  39
HETATM   39  C28 UNL     1       8.186   7.808  20.841  1.00  0.00     0.029 C 
HETATM   40  C29 UNL     1       8.554   9.274  20.714  1.00  0.00     0.016 C 
HETATM   41  C30 UNL     1       8.378   7.255  19.409  1.00  0.00     0.016 C 
ENDBRANCH  26  39
BRANCH  23  42
HETATM   42  C23 UNL     1       7.438   9.030  23.918  1.00  0.00     0.242 C 
BRANCH  42  43
HETATM   43  C24 UNL     1       8.549   8.520  24.709  1.00  0.00     0.024 C 
HETATM   44  C25 UNL     1       9.941   8.976  24.370  1.00  0.00     0.007 C 
ENDBRANCH  42  43
ENDBRANCH  23  42
TORSDOF 10
ENDMDL
MODEL 5
REMARK VINA RESULT: -7.394629088      1.427      1.874
REMARK  10 active torsions:
REMARK  status: ('A' for Active; 'I' for Inactive)
REMARK    1  A    between atoms: C2_2  and  C3_3 
REMARK    2  A    between atoms: C3_3  and  C4_4 
REMARK    3  A    between atoms: C4_4  and  C5_5 
REMARK    4  A    between atoms: C5_5  and  C6_6 
REMARK    5  A    between atoms: C6_6  and  C7_7 
REMARK    6  A    between atoms: C7_7  and  C8_8 
REMARK    7  A    between atoms: C8_8  and  C9_9 
REMARK    8  A    between atoms: N4_31  and  C23_33 
REMARK    9  A    between atoms: C23_33  and  C24_34 
REMARK   10  A    between atoms: C27_37  and  C28_38 
ROOT
HETATM    1  C9  UNL     1       6.070   6.116  19.621  1.00  0.00     0.277 C 
HETATM    2  N1  UNL     1       5.653   7.447  20.038  1.00  0.00    -0.062 N 
ATOM      3  H11 UNL     1       5.018   7.887  19.372  1.00  0.00     0.278 HD
ATOM      4  H12 UNL     1       6.407   8.131  19.980  1.00  0.00     0.278 HD
HETATM    5  C10 UNL     1       5.090   7.348  21.363  1.00  0.00     0.233 C 
HETATM    6  C11 UNL     1       5.786   8.269  22.335  1.00  0.00     0.028 C 
HETATM    7  C12 UNL     1       4.809   8.746  23.420  1.00  0.00     0.011 C 
HETATM    8  C13 UNL     1       4.187   7.494  23.996  1.00  0.00     0.103 C 
HETATM    9  C14 UNL     1       3.332   7.761  25.169  1.00  0.00     0.218 C 
HETATM   10  O1  UNL     1       3.853   8.518  26.062  1.00  0.00    -0.274 OA
HETATM   11  N2  UNL     1       2.034   7.290  25.419  1.00  0.00    -0.344 N 
ATOM     12  H2  UNL     1       1.911   6.748  26.275  1.00  0.00     0.163 HD
HETATM   13  C15 UNL     1       0.846   7.479  24.609  1.00  0.00     0.106 C 
HETATM   14  C16 UNL     1       1.010   8.405  23.458  1.00  0.00     0.048 C 
HETATM   15  C17 UNL     1      -0.110   8.280  25.548  1.00  0.00     0.048 C 
HETATM   16  C18 UNL     1       0.198   6.180  24.281  1.00  0.00     0.245 C 
HETATM   17  O2  UNL     1      -0.194   5.534  25.327  1.00  0.00    -0.271 OA
HETATM   18  N3  UNL     1      -0.033   5.592  23.056  1.00  0.00    -0.353 N 
ATOM     19  H3  UNL     1      -1.001   5.344  22.857  1.00  0.00     0.163 HD
HETATM   20  C19 UNL     1       0.948   5.276  21.993  1.00  0.00     0.107 C 
HETATM   21  C20 UNL     1       0.317   5.865  20.744  1.00  0.00     0.034 C 
HETATM   22  C21 UNL     1       1.066   3.821  22.030  1.00  0.00     0.267 C 
HETATM   23  N4  UNL     1       2.048   3.128  21.217  1.00  0.00    -0.047 N 
HETATM   24  C22 UNL     1       1.638   3.165  19.868  1.00  0.00     0.278 C 
HETATM   25  C26 UNL     1       3.359   3.612  21.499  1.00  0.00     0.227 C 
HETATM   26  C27 UNL     1       4.508   3.408  20.646  1.00  0.00     0.039 C 
HETATM   27  N5  UNL     1       4.483   4.102  19.356  1.00  0.00    -0.327 N 
ATOM     28  H5  UNL     1       4.174   3.562  18.547  1.00  0.00     0.168 HD
HETATM   29  C31 UNL     1       4.841   5.427  19.131  1.00  0.00     0.252 C 
HETATM   30  O3  UNL     1       4.054   6.151  18.432  1.00  0.00    -0.271 OA
ENDROOT
BRANCH   1  31
HETATM   31  C8  UNL     1       7.021   6.150  18.470  1.00  0.00     0.043 C 
BRANCH  31  32
HETATM   32  C7  UNL     1       7.348   4.761  17.912  1.00  0.00     0.006 C 
BRANCH  32  33
HETATM   33  C6  UNL     1       8.478   4.141  18.650  1.00  0.00     0.027 C 
BRANCH  33  34
HETATM   34  C5  UNL     1       9.257   3.121  17.923  1.00  0.00    -0.031 C 
BRANCH  34  35
HETATM   35  C4  UNL     1       9.281   1.719  18.313  1.00  0.00    -0.031 C 
BRANCH  35  36
HETATM   36  C3  UNL     1       8.479   0.701  17.617  1.00  0.00     0.026 C 
BRANCH  36  37
HETATM   37  C2  UNL     1       7.747   1.178  16.394  1.00  0.00    -0.001 C 
HETATM   38  C1  UNL     1       6.681   0.168  15.994  1.00  0.00     0.005 C 
ENDBRANCH  36  37
ENDBRANCH  35  36
ENDBRANCH  34  35
ENDBRANCH  33  34
ENDBRANCH  32  33
ENDBRANCH  31  32
ENDBRANCH   1  31
BRANCH  26  39
HETATM   39  C28 UNL     1       5.142   2.080  20.484  1.00  0.00     0.029 C 
HETATM   40  C29 UNL     1       6.602   2.076  20.895  1.00  0.00     0.016 C 
HETATM   41  C30 UNL     1       5.187   1.826  18.959  1.00  0.00     0.016 C 
ENDBRANCH  26  39
BRANCH  23  42
HETATM   42  C23 UNL     1       2.001   1.774  21.735  1.00  0.00     0.242 C 
BRANCH  42  43
HETATM   43  C24 UNL     1       2.448   1.482  23.090  1.00  0.00     0.024 C 
HETATM   44  C25 UNL     1       3.355   0.303  23.308  1.00  0.00     0.007 C 
ENDBRANCH  42  43
ENDBRANCH  23  42
TORSDOF 10
ENDMDL
