MODEL 1
REMARK VINA RESULT: -9.440192531      0.000      0.000
REMARK  12 active torsions:
REMARK  status: ('A' for Active; 'I' for Inactive)
REMARK    1  A    between atoms: C2_2  and  C3_3 
REMARK    2  A    between atoms: C3_3  and  C4_4 
REMARK       I    between atoms: C4_4  and  N1_6 
REMARK    3  A    between atoms: N2_9  and  C7_10 
REMARK    4  A    between atoms: C7_10  and  O2_11 
REMARK    5  A    between atoms: C7_10  and  C8_13 
REMARK    6  A    between atoms: C8_13  and  C9_14 
REMARK    7  A    between atoms: C8_13  and  N5_26 
REMARK    8  A    between atoms: C9_14  and  C10_15 
REMARK       I    between atoms: N5_26  and  C18_28 
REMARK       I    between atoms: C18_28  and  N6_30 
REMARK    9  A    between atoms: N6_30  and  C19_32 
REMARK   10  A    between atoms: C19_32  and  C20_33 
REMARK   11  A    between atoms: C23_36  and  C24_37 
REMARK   12  A    between atoms: C24_37  and  C26_39 
ROOT
HETATM    1  C8  UNL     1       3.853   7.684  23.146  1.00  0.00     0.165 C 
ENDROOT
BRANCH   1   2
HETATM    2  C7  UNL     1       5.002   8.559  22.898  1.00  0.00     0.137 C 
BRANCH   2   3
HETATM    3  N2  UNL     1       6.306   8.566  23.415  1.00  0.00    -0.361 N 
HETATM    4  C6  UNL     1       7.353   9.156  22.540  1.00  0.00     0.144 C 
HETATM    5  C5  UNL     1       8.621   8.329  22.580  1.00  0.00     0.145 C 
HETATM    6  N1  UNL     1       9.036   8.373  23.992  1.00  0.00    -0.349 N 
HETATM    7  C4  UNL     1      10.258   8.967  24.373  1.00  0.00     0.219 C 
HETATM    8  C31 UNL     1       8.132   7.786  24.921  1.00  0.00     0.145 C 
HETATM    9  O1  UNL     1      10.991   9.464  23.483  1.00  0.00    -0.273 OA
HETATM   10  C30 UNL     1       6.681   8.033  24.702  1.00  0.00     0.144 C 
BRANCH   7  11
HETATM   11  C3  UNL     1      10.693   9.019  25.780  1.00  0.00     0.103 C 
BRANCH  11  12
HETATM   12  C2  UNL     1      11.696   7.887  26.038  1.00  0.00     0.005 C 
HETATM   13  C1  UNL     1      11.274   7.048  27.215  1.00  0.00     0.005 C 
ENDBRANCH  11  12
ENDBRANCH   7  11
ENDBRANCH   2   3
BRANCH   2  14
HETATM   14  O2  UNL     1       4.769   9.503  22.034  1.00  0.00    -0.348 OA
ATOM     15  H2  UNL     1       3.996   9.357  21.499  1.00  0.00     0.219 HD
ENDBRANCH   2  14
ENDBRANCH   1   2
BRANCH   1  16
HETATM   16  C9  UNL     1       2.531   8.433  22.943  1.00  0.00     0.076 C 
BRANCH  16  17
HETATM   17  C10 UNL     1       1.569   8.253  24.025  1.00  0.00    -0.011 A 
HETATM   18  C11 UNL     1       1.509   7.081  24.829  1.00  0.00     0.098 A 
HETATM   19  N3  UNL     1       0.589   7.216  25.774  1.00  0.00    -0.363 N 
HETATM   20  C12 UNL     1       0.014   8.423  25.658  1.00  0.00     0.059 A 
ATOM     21  H3  UNL     1       0.355   6.515  26.477  1.00  0.00     0.165 HD
HETATM   22  C13 UNL     1      -0.989   9.045  26.376  1.00  0.00     0.033 A 
HETATM   23  C17 UNL     1       0.619   9.075  24.570  1.00  0.00     0.068 A 
HETATM   24  C14 UNL     1      -1.397  10.298  26.024  1.00  0.00     0.020 A 
HETATM   25  C15 UNL     1      -0.776  10.887  24.953  1.00  0.00     0.091 A 
HETATM   26  N4  UNL     1       0.200  10.313  24.236  1.00  0.00    -0.359 N 
HETATM   27  C16 UNL     1       0.794  10.965  23.095  1.00  0.00     0.156 C 
ENDBRANCH  16  17
ENDBRANCH   1  16
BRANCH   1  28
HETATM   28  N5  UNL     1       3.877   6.609  22.152  1.00  0.00    -0.331 N 
HETATM   29  C18 UNL     1       4.469   5.350  22.418  1.00  0.00     0.316 C 
HETATM   30  O3  UNL     1       4.980   5.148  23.544  1.00  0.00    -0.247 OA
HETATM   31  N6  UNL     1       4.506   4.310  21.458  1.00  0.00    -0.343 N 
ATOM     32  H6  UNL     1       4.087   4.491  20.546  1.00  0.00     0.164 HD
ATOM     33  H5  UNL     1       3.453   6.773  21.238  1.00  0.00     0.165 HD
BRANCH  31  34
HETATM   34  C19 UNL     1       5.094   3.016  21.680  1.00  0.00     0.129 C 
BRANCH  34  35
HETATM   35  C20 UNL     1       6.285   2.754  20.819  1.00  0.00     0.003 C 
HETATM   36  C21 UNL     1       7.080   3.952  20.431  1.00  0.00     0.006 C 
HETATM   37  C22 UNL     1       7.955   3.793  19.244  1.00  0.00     0.005 C 
HETATM   38  C23 UNL     1       7.834   2.574  18.422  1.00  0.00    -0.011 C 
HETATM   39  C28 UNL     1       7.092   1.421  19.001  1.00  0.00     0.005 C 
HETATM   40  C29 UNL     1       5.812   1.962  19.597  1.00  0.00     0.006 C 
BRANCH  38  41
HETATM   41  C24 UNL     1       9.225   2.053  18.013  1.00  0.00    -0.015 C 
HETATM   42  C25 UNL     1       9.343   0.583  18.382  1.00  0.00     0.010 C 
BRANCH  41  43
HETATM   43  C26 UNL     1       9.430   2.184  16.531  1.00  0.00     0.000 C 
HETATM   44  C27 UNL     1       8.156   2.352  15.769  1.00  0.00     0.005 C 
ENDBRANCH  41  43
ENDBRANCH  38  41
ENDBRANCH  34  35
ENDBRANCH  31  34
ENDBRANCH   1  28
TORSDOF 12
ENDMDL
MODEL 2
REMARK VINA RESULT: -9.326452789      1.451      1.759
REMARK  12 active torsions:
REMARK  status: ('A' for Active; 'I' for Inactive)
REMARK    1  A    between atoms: C2_2  and  C3_3 
REMARK    2  A    between atoms: C3_3  and  C4_4 
REMARK       I    between atoms: C4_4  and  N1_6 
REMARK    3  A    between atoms: N2_9  and  C7_10 
REMARK    4  A    between atoms: C7_10  and  O2_11 
REMARK    5  A    between atoms: C7_10  and  C8_13 
REMARK    6  A    between atoms: C8_13  and  C9_14 
REMARK    7  A    between atoms: C8_13  and  N5_26 
REMARK    8  A    between atoms: C9_14  and  C10_15 
REMARK       I    between atoms: N5_26  and  C18_28 
REMARK       I    between atoms: C18_28  and  N6_30 
REMARK    9  A    between atoms: N6_30  and  C19_32 
REMARK   10  A    between atoms: C19_32  and  C20_33 
REMARK   11  A    between atoms: C23_36  and  C24_37 
REMARK   12  A    between atoms: C24_37  and  C26_39 
ROOT
HETATM    1  C8  UNL     1       4.186   8.269  22.348  1.00  0.00     0.165 C 
ENDROOT
BRANCH   1   2
HETATM    2  C7  UNL     1       5.461   8.970  22.182  1.00  0.00     0.137 C 
BRANCH   2   3
HETATM    3  N2  UNL     1       6.675   8.890  22.879  1.00  0.00    -0.361 N 
HETATM    4  C6  UNL     1       7.880   9.369  22.152  1.00  0.00     0.144 C 
HETATM    5  C5  UNL     1       9.057   8.447  22.386  1.00  0.00     0.145 C 
HETATM    6  N1  UNL     1       9.272   8.498  23.842  1.00  0.00    -0.349 N 
HETATM    7  C4  UNL     1      10.473   9.006  24.383  1.00  0.00     0.219 C 
HETATM    8  C31 UNL     1       8.201   8.012  24.644  1.00  0.00     0.145 C 
HETATM    9  O1  UNL     1      11.362   9.417  23.598  1.00  0.00    -0.273 OA
HETATM   10  C30 UNL     1       6.821   8.367  24.216  1.00  0.00     0.144 C 
BRANCH   7  11
HETATM   11  C3  UNL     1      10.709   9.064  25.836  1.00  0.00     0.103 C 
BRANCH  11  12
HETATM   12  C2  UNL     1      11.600   7.884  26.249  1.00  0.00     0.005 C 
HETATM   13  C1  UNL     1      10.854   6.932  27.146  1.00  0.00     0.005 C 
ENDBRANCH  11  12
ENDBRANCH   7  11
ENDBRANCH   2   3
BRANCH   2  14
HETATM   14  O2  UNL     1       5.468   9.826  21.202  1.00  0.00    -0.348 OA
ATOM     15  H2  UNL     1       4.626  10.238  21.042  1.00  0.00     0.219 HD
ENDBRANCH   2  14
ENDBRANCH   1   2
BRANCH   1  16
HETATM   16  C9  UNL     1       3.002   9.179  22.004  1.00  0.00     0.076 C 
BRANCH  16  17
HETATM   17  C10 UNL     1       2.382   9.819  23.160  1.00  0.00    -0.011 A 
HETATM   18  C11 UNL     1       2.781   9.561  24.501  1.00  0.00     0.098 A 
HETATM   19  N3  UNL     1       2.097  10.325  25.341  1.00  0.00    -0.363 N 
HETATM   20  C12 UNL     1       1.249  11.095  24.643  1.00  0.00     0.059 A 
ATOM     21  H3  UNL     1       2.200  10.328  26.356  1.00  0.00     0.165 HD
HETATM   22  C13 UNL     1       0.321  12.041  25.033  1.00  0.00     0.033 A 
HETATM   23  C17 UNL     1       1.419  10.784  23.283  1.00  0.00     0.068 A 
HETATM   24  C14 UNL     1      -0.435  12.676  24.092  1.00  0.00     0.020 A 
HETATM   25  C15 UNL     1      -0.230  12.334  22.780  1.00  0.00     0.091 A 
HETATM   26  N4  UNL     1       0.660  11.421  22.368  1.00  0.00    -0.359 N 
HETATM   27  C16 UNL     1       0.808  11.073  20.977  1.00  0.00     0.156 C 
ENDBRANCH  16  17
ENDBRANCH   1  16
BRANCH   1  28
HETATM   28  N5  UNL     1       4.148   7.161  21.390  1.00  0.00    -0.331 N 
HETATM   29  C18 UNL     1       4.757   5.911  21.660  1.00  0.00     0.316 C 
HETATM   30  O3  UNL     1       5.339   5.746  22.758  1.00  0.00    -0.247 OA
HETATM   31  N6  UNL     1       4.735   4.840  20.735  1.00  0.00    -0.343 N 
ATOM     32  H6  UNL     1       4.259   4.991  19.846  1.00  0.00     0.164 HD
ATOM     33  H5  UNL     1       3.666   7.294  20.500  1.00  0.00     0.165 HD
BRANCH  31  34
HETATM   34  C19 UNL     1       5.338   3.553  20.962  1.00  0.00     0.129 C 
BRANCH  34  35
HETATM   35  C20 UNL     1       6.256   3.131  19.863  1.00  0.00     0.003 C 
HETATM   36  C21 UNL     1       6.644   1.693  19.860  1.00  0.00     0.006 C 
HETATM   37  C22 UNL     1       7.871   1.354  19.098  1.00  0.00     0.005 C 
HETATM   38  C23 UNL     1       8.720   2.446  18.585  1.00  0.00    -0.011 C 
HETATM   39  C28 UNL     1       8.143   3.817  18.558  1.00  0.00     0.005 C 
HETATM   40  C29 UNL     1       7.479   4.052  19.895  1.00  0.00     0.006 C 
BRANCH  38  41
HETATM   41  C24 UNL     1       9.203   2.134  17.155  1.00  0.00    -0.015 C 
HETATM   42  C25 UNL     1       9.313   0.627  16.976  1.00  0.00     0.010 C 
BRANCH  41  43
HETATM   43  C26 UNL     1       8.233   2.659  16.136  1.00  0.00     0.000 C 
HETATM   44  C27 UNL     1       7.240   1.639  15.682  1.00  0.00     0.005 C 
ENDBRANCH  41  43
ENDBRANCH  38  41
ENDBRANCH  34  35
ENDBRANCH  31  34
ENDBRANCH   1  28
TORSDOF 12
ENDMDL
MODEL 3
REMARK VINA RESULT: -9.273833214      1.880      7.459
REMARK  12 active torsions:
REMARK  status: ('A' for Active; 'I' for Inactive)
REMARK    1  A    between atoms: C2_2  and  C3_3 
REMARK    2  A    between atoms: C3_3  and  C4_4 
REMARK       I    between atoms: C4_4  and  N1_6 
REMARK    3  A    between atoms: N2_9  and  C7_10 
REMARK    4  A    between atoms: C7_10  and  O2_11 
REMARK    5  A    between atoms: C7_10  and  C8_13 
REMARK    6  A    between atoms: C8_13  and  C9_14 
REMARK    7  A    between atoms: C8_13  and  N5_26 
REMARK    8  A    between atoms: C9_14  and  C10_15 
REMARK       I    between atoms: N5_26  and  C18_28 
REMARK       I    between atoms: C18_28  and  N6_30 
REMARK    9  A    between atoms: N6_30  and  C19_32 
REMARK   10  A    between atoms: C19_32  and  C20_33 
REMARK   11  A    between atoms: C23_36  and  C24_37 
REMARK   12  A    between atoms: C24_37  and  C26_39 
ROOT
HETATM    1  C8  UNL     1       6.246   7.579  23.830  1.00  0.00     0.165 C 
ENDROOT
BRANCH   1   2
HETATM    2  C7  UNL     1       4.861   7.245  24.172  1.00  0.00     0.137 C 
BRANCH   2   3
HETATM    3  N2  UNL     1       3.733   8.044  24.405  1.00  0.00    -0.361 N 
HETATM    4  C6  UNL     1       3.872   9.487  24.075  1.00  0.00     0.144 C 
HETATM    5  C5  UNL     1       3.227  10.350  25.137  1.00  0.00     0.145 C 
HETATM    6  N1  UNL     1       1.811   9.947  25.120  1.00  0.00    -0.349 N 
HETATM    7  C4  UNL     1       0.797  10.863  24.768  1.00  0.00     0.219 C 
HETATM    8  C31 UNL     1       1.549   8.593  25.474  1.00  0.00     0.145 C 
HETATM    9  O1  UNL     1       1.123  12.037  24.466  1.00  0.00    -0.273 OA
HETATM   10  C30 UNL     1       2.485   7.563  24.949  1.00  0.00     0.144 C 
BRANCH   7  11
HETATM   11  C3  UNL     1      -0.626  10.480  24.747  1.00  0.00     0.103 C 
BRANCH  11  12
HETATM   12  C2  UNL     1      -1.366  11.233  25.861  1.00  0.00     0.005 C 
HETATM   13  C1  UNL     1      -2.613  10.498  26.273  1.00  0.00     0.005 C 
ENDBRANCH  11  12
ENDBRANCH   7  11
ENDBRANCH   2   3
BRANCH   2  14
HETATM   14  O2  UNL     1       4.638   5.968  24.276  1.00  0.00    -0.348 OA
ATOM     15  H2  UNL     1       5.360   5.478  24.654  1.00  0.00     0.219 HD
ENDBRANCH   2  14
ENDBRANCH   1   2
BRANCH   1  16
HETATM   16  C9  UNL     1       7.114   7.706  25.087  1.00  0.00     0.076 C 
BRANCH  16  17
HETATM   17  C10 UNL     1       8.482   8.145  24.829  1.00  0.00    -0.011 A 
HETATM   18  C11 UNL     1       8.834   9.005  23.752  1.00  0.00     0.098 A 
HETATM   19  N3  UNL     1      10.128   9.292  23.795  1.00  0.00    -0.363 N 
HETATM   20  C12 UNL     1      10.680   8.671  24.849  1.00  0.00     0.059 A 
ATOM     21  H3  UNL     1      10.625   9.889  23.134  1.00  0.00     0.165 HD
HETATM   22  C13 UNL     1      11.975   8.634  25.328  1.00  0.00     0.033 A 
HETATM   23  C17 UNL     1       9.661   7.953  25.497  1.00  0.00     0.068 A 
HETATM   24  C14 UNL     1      12.266   7.894  26.436  1.00  0.00     0.020 A 
HETATM   25  C15 UNL     1      11.236   7.211  27.029  1.00  0.00     0.091 A 
HETATM   26  N4  UNL     1       9.969   7.226  26.590  1.00  0.00    -0.359 N 
HETATM   27  C16 UNL     1       8.930   6.458  27.231  1.00  0.00     0.156 C 
ENDBRANCH  16  17
ENDBRANCH   1  16
BRANCH   1  28
HETATM   28  N5  UNL     1       6.803   6.470  23.053  1.00  0.00    -0.331 N 
HETATM   29  C18 UNL     1       6.866   6.498  21.638  1.00  0.00     0.316 C 
HETATM   30  O3  UNL     1       6.440   7.510  21.034  1.00  0.00    -0.247 OA
HETATM   31  N6  UNL     1       7.392   5.425  20.880  1.00  0.00    -0.343 N 
ATOM     32  H6  UNL     1       7.734   4.609  21.386  1.00  0.00     0.164 HD
ATOM     33  H5  UNL     1       7.158   5.650  23.547  1.00  0.00     0.165 HD
BRANCH  31  34
HETATM   34  C19 UNL     1       7.478   5.406  19.443  1.00  0.00     0.129 C 
BRANCH  34  35
HETATM   35  C20 UNL     1       7.573   4.028  18.877  1.00  0.00     0.003 C 
HETATM   36  C21 UNL     1       7.095   2.930  19.761  1.00  0.00     0.006 C 
HETATM   37  C22 UNL     1       7.590   1.570  19.432  1.00  0.00     0.005 C 
HETATM   38  C23 UNL     1       8.652   1.420  18.419  1.00  0.00    -0.011 C 
HETATM   39  C28 UNL     1       8.939   2.586  17.539  1.00  0.00     0.005 C 
HETATM   40  C29 UNL     1       9.020   3.809  18.424  1.00  0.00     0.006 C 
BRANCH  38  41
HETATM   41  C24 UNL     1       8.359   0.222  17.496  1.00  0.00    -0.015 C 
HETATM   42  C25 UNL     1       7.400   0.654  16.396  1.00  0.00     0.010 C 
BRANCH  41  43
HETATM   43  C26 UNL     1       9.619  -0.278  16.851  1.00  0.00     0.000 C 
HETATM   44  C27 UNL     1       9.549  -1.716  16.450  1.00  0.00     0.005 C 
ENDBRANCH  41  43
ENDBRANCH  38  41
ENDBRANCH  34  35
ENDBRANCH  31  34
ENDBRANCH   1  28
TORSDOF 12
ENDMDL
MODEL 4
REMARK VINA RESULT: -9.239854123      1.018      1.684
REMARK  12 active torsions:
REMARK  status: ('A' for Active; 'I' for Inactive)
REMARK    1  A    between atoms: C2_2  and  C3_3 
REMARK    2  A    between atoms: C3_3  and  C4_4 
REMARK       I    between atoms: C4_4  and  N1_6 
REMARK    3  A    between atoms: N2_9  and  C7_10 
REMARK    4  A    between atoms: C7_10  and  O2_11 
REMARK    5  A    between atoms: C7_10  and  C8_13 
REMARK    6  A    between atoms: C8_13  and  C9_14 
REMARK    7  A    between atoms: C8_13  and  N5_26 
REMARK    8  A    between atoms: C9_14  and  C10_15 
REMARK       I    between atoms: N5_26  and  C18_28 
REMARK       I    between atoms: C18_28  and  N6_30 
REMARK    9  A    between atoms: N6_30  and  C19_32 
REMARK   10  A    between atoms: C19_32  and  C20_33 
REMARK   11  A    between atoms: C23_36  and  C24_37 
REMARK   12  A    between atoms: C24_37  and  C26_39 
ROOT
HETATM    1  C8  UNL     1       4.147   8.054  22.530  1.00  0.00     0.165 C 
ENDROOT
BRANCH   1   2
HETATM    2  C7  UNL     1       5.356   8.872  22.413  1.00  0.00     0.137 C 
BRANCH   2   3
HETATM    3  N2  UNL     1       6.598   8.812  23.062  1.00  0.00    -0.361 N 
HETATM    4  C6  UNL     1       7.761   9.334  22.297  1.00  0.00     0.144 C 
HETATM    5  C5  UNL     1       8.969   8.438  22.470  1.00  0.00     0.145 C 
HETATM    6  N1  UNL     1       9.239   8.470  23.917  1.00  0.00    -0.349 N 
HETATM    7  C4  UNL     1      10.447   8.999  24.420  1.00  0.00     0.219 C 
HETATM    8  C31 UNL     1       8.213   7.943  24.750  1.00  0.00     0.145 C 
HETATM    9  O1  UNL     1      11.294   9.446  23.608  1.00  0.00    -0.273 OA
HETATM   10  C30 UNL     1       6.809   8.269  24.383  1.00  0.00     0.144 C 
BRANCH   7  11
HETATM   11  C3  UNL     1      10.739   9.038  25.864  1.00  0.00     0.103 C 
BRANCH  11  12
HETATM   12  C2  UNL     1      11.630   7.843  26.230  1.00  0.00     0.005 C 
HETATM   13  C1  UNL     1      10.925   6.916  27.183  1.00  0.00     0.005 C 
ENDBRANCH  11  12
ENDBRANCH   7  11
ENDBRANCH   2   3
BRANCH   2  14
HETATM   14  O2  UNL     1       5.258   9.835  21.543  1.00  0.00    -0.348 OA
ATOM     15  H2  UNL     1       4.442   9.836  21.056  1.00  0.00     0.219 HD
ENDBRANCH   2  14
ENDBRANCH   1   2
BRANCH   1  16
HETATM   16  C9  UNL     1       2.887   8.878  22.243  1.00  0.00     0.076 C 
BRANCH  16  17
HETATM   17  C10 UNL     1       2.107   9.213  23.430  1.00  0.00    -0.011 A 
HETATM   18  C11 UNL     1       2.400  10.325  24.268  1.00  0.00     0.098 A 
HETATM   19  N3  UNL     1       1.494  10.429  25.231  1.00  0.00    -0.363 N 
HETATM   20  C12 UNL     1       0.594   9.444  25.094  1.00  0.00     0.059 A 
ATOM     21  H3  UNL     1       1.483  11.144  25.958  1.00  0.00     0.165 HD
HETATM   22  C13 UNL     1      -0.526   9.104  25.829  1.00  0.00     0.033 A 
HETATM   23  C17 UNL     1       0.969   8.681  23.976  1.00  0.00     0.068 A 
HETATM   24  C14 UNL     1      -1.269   8.020  25.466  1.00  0.00     0.020 A 
HETATM   25  C15 UNL     1      -0.858   7.309  24.368  1.00  0.00     0.091 A 
HETATM   26  N4  UNL     1       0.222   7.612  23.635  1.00  0.00    -0.359 N 
HETATM   27  C16 UNL     1       0.631   6.806  22.510  1.00  0.00     0.156 C 
ENDBRANCH  16  17
ENDBRANCH   1  16
BRANCH   1  28
HETATM   28  N5  UNL     1       4.202   7.012  21.503  1.00  0.00    -0.331 N 
HETATM   29  C18 UNL     1       4.794   5.747  21.744  1.00  0.00     0.316 C 
HETATM   30  O3  UNL     1       5.277   5.511  22.876  1.00  0.00    -0.247 OA
HETATM   31  N6  UNL     1       4.862   4.739  20.752  1.00  0.00    -0.343 N 
ATOM     32  H6  UNL     1       4.466   4.948  19.836  1.00  0.00     0.164 HD
ATOM     33  H5  UNL     1       3.801   7.202  20.584  1.00  0.00     0.165 HD
BRANCH  31  34
HETATM   34  C19 UNL     1       5.452   3.441  20.948  1.00  0.00     0.129 C 
BRANCH  34  35
HETATM   35  C20 UNL     1       6.348   3.027  19.828  1.00  0.00     0.003 C 
HETATM   36  C21 UNL     1       6.827   1.617  19.869  1.00  0.00     0.006 C 
HETATM   37  C22 UNL     1       8.040   1.321  19.068  1.00  0.00     0.005 C 
HETATM   38  C23 UNL     1       8.795   2.438  18.471  1.00  0.00    -0.011 C 
HETATM   39  C28 UNL     1       8.130   3.769  18.411  1.00  0.00     0.005 C 
HETATM   40  C29 UNL     1       7.510   4.023  19.766  1.00  0.00     0.006 C 
BRANCH  38  41
HETATM   41  C24 UNL     1       9.237   2.092  17.036  1.00  0.00    -0.015 C 
HETATM   42  C25 UNL     1       9.284   0.581  16.872  1.00  0.00     0.010 C 
BRANCH  41  43
HETATM   43  C26 UNL     1       8.268   2.644  16.030  1.00  0.00     0.000 C 
HETATM   44  C27 UNL     1       7.232   1.656  15.601  1.00  0.00     0.005 C 
ENDBRANCH  41  43
ENDBRANCH  38  41
ENDBRANCH  34  35
ENDBRANCH  31  34
ENDBRANCH   1  28
TORSDOF 12
ENDMDL
MODEL 5
REMARK VINA RESULT: -9.124610603      1.845      2.533
REMARK  12 active torsions:
REMARK  status: ('A' for Active; 'I' for Inactive)
REMARK    1  A    between atoms: C2_2  and  C3_3 
REMARK    2  A    between atoms: C3_3  and  C4_4 
REMARK       I    between atoms: C4_4  and  N1_6 
REMARK    3  A    between atoms: N2_9  and  C7_10 
REMARK    4  A    between atoms: C7_10  and  O2_11 
REMARK    5  A    between atoms: C7_10  and  C8_13 
REMARK    6  A    between atoms: C8_13  and  C9_14 
REMARK    7  A    between atoms: C8_13  and  N5_26 
REMARK    8  A    between atoms: C9_14  and  C10_15 
REMARK       I    between atoms: N5_26  and  C18_28 
REMARK       I    between atoms: C18_28  and  N6_30 
REMARK    9  A    between atoms: N6_30  and  C19_32 
REMARK   10  A    between atoms: C19_32  and  C20_33 
REMARK   11  A    between atoms: C23_36  and  C24_37 
REMARK   12  A    between atoms: C24_37  and  C26_39 
ROOT
HETATM    1  C8  UNL     1       4.933   7.291  21.822  1.00  0.00     0.165 C 
ENDROOT
BRANCH   1   2
HETATM    2  C7  UNL     1       6.338   7.693  21.715  1.00  0.00     0.137 C 
BRANCH   2   3
HETATM    3  N2  UNL     1       7.332   7.899  22.681  1.00  0.00    -0.361 N 
HETATM    4  C6  UNL     1       7.057   7.342  24.032  1.00  0.00     0.144 C 
HETATM    5  C5  UNL     1       7.479   8.313  25.114  1.00  0.00     0.145 C 
HETATM    6  N1  UNL     1       8.927   8.481  24.904  1.00  0.00    -0.349 N 
HETATM    7  C4  UNL     1       9.856   8.083  25.890  1.00  0.00     0.219 C 
HETATM    8  C31 UNL     1       9.310   9.058  23.661  1.00  0.00     0.145 C 
HETATM    9  O1  UNL     1       9.426   7.579  26.956  1.00  0.00    -0.273 OA
HETATM   10  C30 UNL     1       8.564   8.616  22.452  1.00  0.00     0.144 C 
BRANCH   7  11
HETATM   11  C3  UNL     1      11.309   8.244  25.701  1.00  0.00     0.103 C 
BRANCH  11  12
HETATM   12  C2  UNL     1      12.046   7.523  26.838  1.00  0.00     0.005 C 
HETATM   13  C1  UNL     1      13.525   7.454  26.564  1.00  0.00     0.005 C 
ENDBRANCH  11  12
ENDBRANCH   7  11
ENDBRANCH   2   3
BRANCH   2  14
HETATM   14  O2  UNL     1       6.736   7.893  20.492  1.00  0.00    -0.348 OA
ATOM     15  H2  UNL     1       7.553   7.460  20.275  1.00  0.00     0.219 HD
ENDBRANCH   2  14
ENDBRANCH   1   2
BRANCH   1  16
HETATM   16  C9  UNL     1       4.010   8.512  21.901  1.00  0.00     0.076 C 
BRANCH  16  17
HETATM   17  C10 UNL     1       3.357   8.687  23.195  1.00  0.00    -0.011 A 
HETATM   18  C11 UNL     1       3.973   9.343  24.297  1.00  0.00     0.098 A 
HETATM   19  N3  UNL     1       3.131   9.417  25.319  1.00  0.00    -0.363 N 
HETATM   20  C12 UNL     1       1.969   8.843  24.973  1.00  0.00     0.059 A 
ATOM     21  H3  UNL     1       3.335   9.841  26.224  1.00  0.00     0.165 HD
HETATM   22  C13 UNL     1       0.789   8.650  25.665  1.00  0.00     0.033 A 
HETATM   23  C17 UNL     1       2.102   8.384  23.652  1.00  0.00     0.068 A 
HETATM   24  C14 UNL     1      -0.252   8.009  25.061  1.00  0.00     0.020 A 
HETATM   25  C15 UNL     1      -0.069   7.580  23.772  1.00  0.00     0.091 A 
HETATM   26  N4  UNL     1       1.062   7.750  23.073  1.00  0.00    -0.359 N 
HETATM   27  C16 UNL     1       1.213   7.245  21.731  1.00  0.00     0.156 C 
ENDBRANCH  16  17
ENDBRANCH   1  16
BRANCH   1  28
HETATM   28  N5  UNL     1       4.569   6.577  20.597  1.00  0.00    -0.331 N 
HETATM   29  C18 UNL     1       4.671   5.168  20.487  1.00  0.00     0.316 C 
HETATM   30  O3  UNL     1       5.077   4.513  21.476  1.00  0.00    -0.247 OA
HETATM   31  N6  UNL     1       4.333   4.472  19.302  1.00  0.00    -0.343 N 
ATOM     32  H6  UNL     1       4.005   5.019  18.507  1.00  0.00     0.164 HD
ATOM     33  H5  UNL     1       4.231   7.111  19.796  1.00  0.00     0.165 HD
BRANCH  31  34
HETATM   34  C19 UNL     1       4.419   3.044  19.142  1.00  0.00     0.129 C 
BRANCH  34  35
HETATM   35  C20 UNL     1       5.713   2.595  18.549  1.00  0.00     0.003 C 
HETATM   36  C21 UNL     1       5.609   1.817  17.283  1.00  0.00     0.006 C 
HETATM   37  C22 UNL     1       6.789   0.988  16.933  1.00  0.00     0.005 C 
HETATM   38  C23 UNL     1       7.868   0.822  17.925  1.00  0.00    -0.011 C 
HETATM   39  C28 UNL     1       7.889   1.752  19.086  1.00  0.00     0.005 C 
HETATM   40  C29 UNL     1       6.480   1.827  19.629  1.00  0.00     0.006 C 
BRANCH  38  41
HETATM   41  C24 UNL     1       9.249   0.917  17.249  1.00  0.00    -0.015 C 
HETATM   42  C25 UNL     1       9.960   2.175  17.724  1.00  0.00     0.010 C 
BRANCH  41  43
HETATM   43  C26 UNL     1      10.101  -0.268  17.604  1.00  0.00     0.000 C 
HETATM   44  C27 UNL     1       9.970  -1.402  16.640  1.00  0.00     0.005 C 
ENDBRANCH  41  43
ENDBRANCH  38  41
ENDBRANCH  34  35
ENDBRANCH  31  34
ENDBRANCH   1  28
TORSDOF 12
ENDMDL
