MODEL 1
REMARK VINA RESULT: -8.230359119      0.000      0.000
REMARK  11 active torsions:
REMARK  status: ('A' for Active; 'I' for Inactive)
REMARK    1  A    between atoms: C3_3  and  N1_4 
REMARK    2  A    between atoms: C3_3  and  C13_17 
REMARK       I    between atoms: N1_4  and  C4_6 
REMARK       I    between atoms: C4_6  and  N2_8 
REMARK    3  A    between atoms: N2_8  and  C5_9 
REMARK    4  A    between atoms: N2_8  and  C8_12 
REMARK    5  A    between atoms: C5_9  and  C6_10 
REMARK    6  A    between atoms: C8_12  and  C9_13 
REMARK    7  A    between atoms: C9_13  and  C10_14 
REMARK    8  A    between atoms: C10_14  and  C11_15 
REMARK       I    between atoms: C13_17  and  N3_19 
REMARK    9  A    between atoms: N3_19  and  C14_21 
REMARK   10  A    between atoms: C15_22  and  C16_23 
REMARK   11  A    between atoms: C16_23  and  N4_24 
ROOT
HETATM    1  C1  UNL     1       1.806   2.003  19.489  1.00  0.00     0.015 C 
HETATM    2  C2  UNL     1       2.476   2.358  20.425  1.00  0.00    -0.082 C 
HETATM    3  C3  UNL     1       3.302   2.796  21.540  1.00  0.00     0.257 C 
ENDROOT
BRANCH   3   4
HETATM    4  N1  UNL     1       3.093   4.232  21.684  1.00  0.00    -0.319 N 
HETATM    5  C4  UNL     1       3.180   4.826  22.960  1.00  0.00     0.319 C 
HETATM    6  O1  UNL     1       3.443   4.090  23.969  1.00  0.00    -0.247 OA
HETATM    7  N2  UNL     1       2.977   6.215  23.113  1.00  0.00    -0.334 N 
ATOM      8  H1  UNL     1       2.886   4.804  20.865  1.00  0.00     0.166 HD
BRANCH   7   9
HETATM    9  C5  UNL     1       2.665   7.035  21.987  1.00  0.00     0.127 C 
BRANCH   9  10
HETATM   10  C6  UNL     1       3.854   7.624  21.290  1.00  0.00     0.015 C 
HETATM   11  C7  UNL     1       3.763   9.118  21.230  1.00  0.00     0.006 C 
ENDBRANCH   9  10
ENDBRANCH   7   9
BRANCH   7  12
HETATM   12  C8  UNL     1       3.072   6.811  24.442  1.00  0.00     0.127 C 
BRANCH  12  13
HETATM   13  C9  UNL     1       4.483   7.302  24.641  1.00  0.00     0.020 C 
BRANCH  13  14
HETATM   14  C10 UNL     1       4.504   8.795  24.800  1.00  0.00     0.001 C 
BRANCH  14  15
HETATM   15  C11 UNL     1       3.274   9.273  25.486  1.00  0.00    -0.004 C 
HETATM   16  C12 UNL     1       2.780  10.520  24.760  1.00  0.00     0.005 C 
ENDBRANCH  14  15
ENDBRANCH  13  14
ENDBRANCH  12  13
ENDBRANCH   7  12
ENDBRANCH   3   4
BRANCH   3  17
HETATM   17  C13 UNL     1       4.752   2.579  21.281  1.00  0.00     0.253 C 
HETATM   18  O2  UNL     1       5.490   1.984  22.106  1.00  0.00    -0.270 OA
HETATM   19  N3  UNL     1       5.374   3.036  20.076  1.00  0.00    -0.353 N 
ATOM     20  H3  UNL     1       4.800   3.523  19.387  1.00  0.00     0.163 HD
BRANCH  19  21
HETATM   21  C14 UNL     1       6.766   2.842  19.794  1.00  0.00     0.094 C 
HETATM   22  C15 UNL     1       7.349   4.028  19.060  1.00  0.00     0.027 C 
HETATM   23  C24 UNL     1       8.526   3.695  18.216  1.00  0.00     0.013 C 
HETATM   24  C25 UNL     1       9.015   2.319  18.126  1.00  0.00    -0.013 C 
HETATM   25  C26 UNL     1       8.392   1.295  19.032  1.00  0.00     0.011 C 
HETATM   26  C32 UNL     1       8.798   1.725  16.721  1.00  0.00     0.013 C 
HETATM   27  C27 UNL     1       6.909   1.596  18.952  1.00  0.00     0.010 C 
HETATM   28  C28 UNL     1       6.417   1.786  17.560  1.00  0.00     0.015 C 
HETATM   29  C29 UNL     1       7.346   1.464  16.463  1.00  0.00    -0.047 C 
HETATM   30  C30 UNL     1       7.202   0.018  16.032  1.00  0.00     0.015 C 
HETATM   31  C31 UNL     1       6.963   2.303  15.241  1.00  0.00     0.015 C 
BRANCH  22  32
HETATM   32  C16 UNL     1       7.752   4.997  20.145  1.00  0.00     0.136 C 
BRANCH  32  33
HETATM   33  N4  UNL     1       7.507   6.374  19.814  1.00  0.00    -0.339 N 
HETATM   34  C17 UNL     1       7.201   6.928  18.683  1.00  0.00     0.185 A 
HETATM   35  N5  UNL     1       7.053   8.329  18.850  1.00  0.00    -0.337 N 
HETATM   36  C18 UNL     1       7.263   8.650  20.073  1.00  0.00     0.134 A 
ATOM     37  H5  UNL     1       6.814   8.984  18.105  1.00  0.00     0.168 HD
HETATM   38  N6  UNL     1       7.317   9.654  20.970  1.00  0.00    -0.340 N 
HETATM   39  C21 UNL     1       7.550   7.484  20.729  1.00  0.00     0.088 A 
HETATM   40  C19 UNL     1       7.636   9.137  22.196  1.00  0.00     0.039 A 
ATOM     41  H6  UNL     1       7.147  10.639  20.769  1.00  0.00     0.167 HD
HETATM   42  C20 UNL     1       7.781   7.810  22.054  1.00  0.00     0.003 A 
HETATM   43  C23 UNL     1       7.909   9.069  23.475  1.00  0.00     0.008 A 
HETATM   44  C22 UNL     1       8.097   7.618  23.466  1.00  0.00     0.073 A 
ENDBRANCH  32  33
ENDBRANCH  22  32
ENDBRANCH  19  21
ENDBRANCH   3  17
TORSDOF 11
ENDMDL
MODEL 2
REMARK VINA RESULT: -7.619122046      3.649      5.520
REMARK  11 active torsions:
REMARK  status: ('A' for Active; 'I' for Inactive)
REMARK    1  A    between atoms: C3_3  and  N1_4 
REMARK    2  A    between atoms: C3_3  and  C13_17 
REMARK       I    between atoms: N1_4  and  C4_6 
REMARK       I    between atoms: C4_6  and  N2_8 
REMARK    3  A    between atoms: N2_8  and  C5_9 
REMARK    4  A    between atoms: N2_8  and  C8_12 
REMARK    5  A    between atoms: C5_9  and  C6_10 
REMARK    6  A    between atoms: C8_12  and  C9_13 
REMARK    7  A    between atoms: C9_13  and  C10_14 
REMARK    8  A    between atoms: C10_14  and  C11_15 
REMARK       I    between atoms: C13_17  and  N3_19 
REMARK    9  A    between atoms: N3_19  and  C14_21 
REMARK   10  A    between atoms: C15_22  and  C16_23 
REMARK   11  A    between atoms: C16_23  and  N4_24 
ROOT
HETATM    1  C1  UNL     1       6.239   5.857  13.283  1.00  0.00     0.015 C 
HETATM    2  C2  UNL     1       5.563   6.290  14.181  1.00  0.00    -0.082 C 
HETATM    3  C3  UNL     1       4.764   6.806  15.282  1.00  0.00     0.257 C 
ENDROOT
BRANCH   3   4
HETATM    4  N1  UNL     1       5.371   8.065  15.694  1.00  0.00    -0.319 N 
HETATM    5  C4  UNL     1       4.550   9.167  16.010  1.00  0.00     0.319 C 
HETATM    6  O1  UNL     1       3.282   9.037  15.930  1.00  0.00    -0.247 OA
HETATM    7  N2  UNL     1       5.126  10.394  16.408  1.00  0.00    -0.334 N 
ATOM      8  H1  UNL     1       6.386   8.150  15.753  1.00  0.00     0.166 HD
BRANCH   7   9
HETATM    9  C5  UNL     1       6.544  10.543  16.479  1.00  0.00     0.127 C 
BRANCH   9  10
HETATM   10  C6  UNL     1       7.165  10.043  17.748  1.00  0.00     0.015 C 
HETATM   11  C7  UNL     1       7.028  11.046  18.853  1.00  0.00     0.006 C 
ENDBRANCH   9  10
ENDBRANCH   7   9
BRANCH   7  12
HETATM   12  C8  UNL     1       4.259  11.522  16.732  1.00  0.00     0.127 C 
BRANCH  12  13
HETATM   13  C9  UNL     1       4.377  12.543  15.629  1.00  0.00     0.020 C 
BRANCH  13  14
HETATM   14  C10 UNL     1       4.468  13.928  16.201  1.00  0.00     0.001 C 
BRANCH  14  15
HETATM   15  C11 UNL     1       5.056  13.900  17.567  1.00  0.00    -0.004 C 
HETATM   16  C12 UNL     1       5.492  15.317  17.924  1.00  0.00     0.005 C 
ENDBRANCH  14  15
ENDBRANCH  13  14
ENDBRANCH  12  13
ENDBRANCH   7  12
ENDBRANCH   3   4
BRANCH   3  17
HETATM   17  C13 UNL     1       4.780   5.895  16.460  1.00  0.00     0.253 C 
HETATM   18  O2  UNL     1       3.719   5.464  16.977  1.00  0.00    -0.270 OA
HETATM   19  N3  UNL     1       6.006   5.466  17.056  1.00  0.00    -0.353 N 
ATOM     20  H3  UNL     1       6.884   5.800  16.658  1.00  0.00     0.163 HD
BRANCH  19  21
HETATM   21  C14 UNL     1       6.058   4.588  18.189  1.00  0.00     0.094 C 
HETATM   22  C15 UNL     1       7.209   4.939  19.104  1.00  0.00     0.027 C 
HETATM   23  C24 UNL     1       7.710   3.795  19.909  1.00  0.00     0.013 C 
HETATM   24  C25 UNL     1       7.117   2.465  19.765  1.00  0.00    -0.013 C 
HETATM   25  C26 UNL     1       5.891   2.335  18.905  1.00  0.00     0.011 C 
HETATM   26  C32 UNL     1       8.102   1.464  19.130  1.00  0.00     0.013 C 
HETATM   27  C27 UNL     1       6.217   3.173  17.685  1.00  0.00     0.010 C 
HETATM   28  C28 UNL     1       7.573   2.911  17.130  1.00  0.00     0.015 C 
HETATM   29  C29 UNL     1       8.321   1.769  17.681  1.00  0.00    -0.047 C 
HETATM   30  C30 UNL     1       8.047   0.504  16.892  1.00  0.00     0.015 C 
HETATM   31  C31 UNL     1       9.819   2.045  17.516  1.00  0.00     0.015 C 
BRANCH  22  32
HETATM   32  C16 UNL     1       6.666   6.011  20.019  1.00  0.00     0.136 C 
BRANCH  32  33
HETATM   33  N4  UNL     1       7.620   7.034  20.345  1.00  0.00    -0.339 N 
HETATM   34  C17 UNL     1       8.586   7.541  19.645  1.00  0.00     0.185 A 
HETATM   35  N5  UNL     1       9.262   8.538  20.394  1.00  0.00    -0.337 N 
HETATM   36  C18 UNL     1       8.726   8.655  21.553  1.00  0.00     0.134 A 
ATOM     37  H5  UNL     1      10.058   9.081  20.060  1.00  0.00     0.168 HD
HETATM   38  N6  UNL     1       8.757   9.296  22.738  1.00  0.00    -0.340 N 
HETATM   39  C21 UNL     1       7.699   7.751  21.591  1.00  0.00     0.088 A 
HETATM   40  C19 UNL     1       7.756   8.808  23.532  1.00  0.00     0.039 A 
ATOM     41  H6  UNL     1       9.419  10.027  22.999  1.00  0.00     0.167 HD
HETATM   42  C20 UNL     1       7.106   7.862  22.836  1.00  0.00     0.003 A 
HETATM   43  C23 UNL     1       6.972   8.639  24.568  1.00  0.00     0.008 A 
HETATM   44  C22 UNL     1       6.177   7.591  23.928  1.00  0.00     0.073 A 
ENDBRANCH  32  33
ENDBRANCH  22  32
ENDBRANCH  19  21
ENDBRANCH   3  17
TORSDOF 11
ENDMDL
MODEL 3
REMARK VINA RESULT: -7.611136726      2.562      7.576
REMARK  11 active torsions:
REMARK  status: ('A' for Active; 'I' for Inactive)
REMARK    1  A    between atoms: C3_3  and  N1_4 
REMARK    2  A    between atoms: C3_3  and  C13_17 
REMARK       I    between atoms: N1_4  and  C4_6 
REMARK       I    between atoms: C4_6  and  N2_8 
REMARK    3  A    between atoms: N2_8  and  C5_9 
REMARK    4  A    between atoms: N2_8  and  C8_12 
REMARK    5  A    between atoms: C5_9  and  C6_10 
REMARK    6  A    between atoms: C8_12  and  C9_13 
REMARK    7  A    between atoms: C9_13  and  C10_14 
REMARK    8  A    between atoms: C10_14  and  C11_15 
REMARK       I    between atoms: C13_17  and  N3_19 
REMARK    9  A    between atoms: N3_19  and  C14_21 
REMARK   10  A    between atoms: C15_22  and  C16_23 
REMARK   11  A    between atoms: C16_23  and  N4_24 
ROOT
HETATM    1  C1  UNL     1       2.935   7.754  16.427  1.00  0.00     0.015 C 
HETATM    2  C2  UNL     1       3.675   7.808  17.377  1.00  0.00    -0.082 C 
HETATM    3  C3  UNL     1       4.549   7.865  18.537  1.00  0.00     0.257 C 
ENDROOT
BRANCH   3   4
HETATM    4  N1  UNL     1       5.034   6.510  18.770  1.00  0.00    -0.319 N 
HETATM    5  C4  UNL     1       6.399   6.212  18.572  1.00  0.00     0.319 C 
HETATM    6  O1  UNL     1       7.186   7.143  18.193  1.00  0.00    -0.247 OA
HETATM    7  N2  UNL     1       6.880   4.903  18.790  1.00  0.00    -0.334 N 
ATOM      8  H1  UNL     1       4.390   5.780  19.074  1.00  0.00     0.166 HD
BRANCH   7   9
HETATM    9  C5  UNL     1       5.995   3.859  19.197  1.00  0.00     0.127 C 
BRANCH   9  10
HETATM   10  C6  UNL     1       6.112   3.462  20.637  1.00  0.00     0.015 C 
HETATM   11  C7  UNL     1       6.518   2.026  20.773  1.00  0.00     0.006 C 
ENDBRANCH   9  10
ENDBRANCH   7   9
BRANCH   7  12
HETATM   12  C8  UNL     1       8.296   4.615  18.581  1.00  0.00     0.127 C 
BRANCH  12  13
HETATM   13  C9  UNL     1       8.408   3.481  17.594  1.00  0.00     0.020 C 
BRANCH  13  14
HETATM   14  C10 UNL     1       9.559   2.585  17.951  1.00  0.00     0.001 C 
BRANCH  14  15
HETATM   15  C11 UNL     1       9.075   1.260  18.422  1.00  0.00    -0.004 C 
HETATM   16  C12 UNL     1       9.858   0.179  17.684  1.00  0.00     0.005 C 
ENDBRANCH  14  15
ENDBRANCH  13  14
ENDBRANCH  12  13
ENDBRANCH   7  12
ENDBRANCH   3   4
BRANCH   3  17
HETATM   17  C13 UNL     1       3.824   8.297  19.764  1.00  0.00     0.253 C 
HETATM   18  O2  UNL     1       2.997   9.243  19.745  1.00  0.00    -0.270 OA
HETATM   19  N3  UNL     1       4.034   7.651  21.023  1.00  0.00    -0.353 N 
ATOM     20  H3  UNL     1       4.700   6.880  21.070  1.00  0.00     0.163 HD
BRANCH  19  21
HETATM   21  C14 UNL     1       3.351   8.040  22.223  1.00  0.00     0.094 C 
HETATM   22  C15 UNL     1       4.188   7.751  23.449  1.00  0.00     0.027 C 
HETATM   23  C24 UNL     1       3.391   7.535  24.684  1.00  0.00     0.013 C 
HETATM   24  C25 UNL     1       1.929   7.584  24.648  1.00  0.00    -0.013 C 
HETATM   25  C26 UNL     1       1.275   8.018  23.366  1.00  0.00     0.011 C 
HETATM   26  C32 UNL     1       1.302   6.202  24.914  1.00  0.00     0.013 C 
HETATM   27  C27 UNL     1       2.052   7.275  22.297  1.00  0.00     0.010 C 
HETATM   28  C28 UNL     1       2.252   5.832  22.604  1.00  0.00     0.015 C 
HETATM   29  C29 UNL     1       1.523   5.278  23.757  1.00  0.00    -0.047 C 
HETATM   30  C30 UNL     1       0.175   4.726  23.337  1.00  0.00     0.015 C 
HETATM   31  C31 UNL     1       2.311   4.082  24.300  1.00  0.00     0.015 C 
BRANCH  22  32
HETATM   32  C16 UNL     1       5.070   8.966  23.614  1.00  0.00     0.136 C 
BRANCH  32  33
HETATM   33  N4  UNL     1       6.474   8.681  23.513  1.00  0.00    -0.339 N 
HETATM   34  C17 UNL     1       7.278   8.094  24.343  1.00  0.00     0.185 A 
HETATM   35  N5  UNL     1       8.587   8.039  23.800  1.00  0.00    -0.337 N 
HETATM   36  C18 UNL     1       8.604   8.586  22.641  1.00  0.00     0.134 A 
ATOM     37  H5  UNL     1       9.396   7.626  24.264  1.00  0.00     0.168 HD
HETATM   38  N6  UNL     1       9.357   8.913  21.571  1.00  0.00    -0.340 N 
HETATM   39  C21 UNL     1       7.325   9.006  22.398  1.00  0.00     0.088 A 
HETATM   40  C19 UNL     1       8.566   9.540  20.648  1.00  0.00     0.039 A 
ATOM     41  H6  UNL     1      10.354   8.724  21.468  1.00  0.00     0.167 HD
HETATM   42  C20 UNL     1       7.322   9.600  21.148  1.00  0.00     0.003 A 
HETATM   43  C23 UNL     1       8.196  10.149  19.549  1.00  0.00     0.008 A 
HETATM   44  C22 UNL     1       6.801  10.284  19.969  1.00  0.00     0.073 A 
ENDBRANCH  32  33
ENDBRANCH  22  32
ENDBRANCH  19  21
ENDBRANCH   3  17
TORSDOF 11
ENDMDL
MODEL 4
REMARK VINA RESULT: -7.608705483      1.104      2.578
REMARK  11 active torsions:
REMARK  status: ('A' for Active; 'I' for Inactive)
REMARK    1  A    between atoms: C3_3  and  N1_4 
REMARK    2  A    between atoms: C3_3  and  C13_17 
REMARK       I    between atoms: N1_4  and  C4_6 
REMARK       I    between atoms: C4_6  and  N2_8 
REMARK    3  A    between atoms: N2_8  and  C5_9 
REMARK    4  A    between atoms: N2_8  and  C8_12 
REMARK    5  A    between atoms: C5_9  and  C6_10 
REMARK    6  A    between atoms: C8_12  and  C9_13 
REMARK    7  A    between atoms: C9_13  and  C10_14 
REMARK    8  A    between atoms: C10_14  and  C11_15 
REMARK       I    between atoms: C13_17  and  N3_19 
REMARK    9  A    between atoms: N3_19  and  C14_21 
REMARK   10  A    between atoms: C15_22  and  C16_23 
REMARK   11  A    between atoms: C16_23  and  N4_24 
ROOT
HETATM    1  C1  UNL     1       1.998   1.821  19.751  1.00  0.00     0.015 C 
HETATM    2  C2  UNL     1       2.737   2.263  20.594  1.00  0.00    -0.082 C 
HETATM    3  C3  UNL     1       3.644   2.803  21.594  1.00  0.00     0.257 C 
ENDROOT
BRANCH   3   4
HETATM    4  N1  UNL     1       3.434   4.246  21.622  1.00  0.00    -0.319 N 
HETATM    5  C4  UNL     1       3.542   4.944  22.843  1.00  0.00     0.319 C 
HETATM    6  O1  UNL     1       3.825   4.294  23.905  1.00  0.00    -0.247 OA
HETATM    7  N2  UNL     1       3.338   6.341  22.884  1.00  0.00    -0.334 N 
ATOM      8  H1  UNL     1       3.210   4.748  20.763  1.00  0.00     0.166 HD
BRANCH   7   9
HETATM    9  C5  UNL     1       3.003   7.063  21.699  1.00  0.00     0.127 C 
BRANCH   9  10
HETATM   10  C6  UNL     1       4.176   7.481  20.866  1.00  0.00     0.015 C 
HETATM   11  C7  UNL     1       4.176   8.961  20.630  1.00  0.00     0.006 C 
ENDBRANCH   9  10
ENDBRANCH   7   9
BRANCH   7  12
HETATM   12  C8  UNL     1       3.454   7.046  24.157  1.00  0.00     0.127 C 
BRANCH  12  13
HETATM   13  C9  UNL     1       4.919   7.242  24.456  1.00  0.00     0.020 C 
BRANCH  13  14
HETATM   14  C10 UNL     1       5.319   8.669  24.212  1.00  0.00     0.001 C 
BRANCH  14  15
HETATM   15  C11 UNL     1       6.631   8.741  23.516  1.00  0.00    -0.004 C 
HETATM   16  C12 UNL     1       7.089   7.316  23.219  1.00  0.00     0.005 C 
ENDBRANCH  14  15
ENDBRANCH  13  14
ENDBRANCH  12  13
ENDBRANCH   7  12
ENDBRANCH   3   4
BRANCH   3  17
HETATM   17  C13 UNL     1       5.072   2.566  21.241  1.00  0.00     0.253 C 
HETATM   18  O2  UNL     1       5.840   1.916  21.993  1.00  0.00    -0.270 OA
HETATM   19  N3  UNL     1       5.635   3.068  20.026  1.00  0.00    -0.353 N 
ATOM     20  H3  UNL     1       5.035   3.600  19.395  1.00  0.00     0.163 HD
BRANCH  19  21
HETATM   21  C14 UNL     1       7.003   2.856  19.654  1.00  0.00     0.094 C 
HETATM   22  C15 UNL     1       7.532   4.005  18.826  1.00  0.00     0.027 C 
HETATM   23  C24 UNL     1       8.646   3.630  17.917  1.00  0.00     0.013 C 
HETATM   24  C25 UNL     1       9.127   2.250  17.855  1.00  0.00    -0.013 C 
HETATM   25  C26 UNL     1       8.571   1.270  18.851  1.00  0.00     0.011 C 
HETATM   26  C32 UNL     1       8.810   1.593  16.499  1.00  0.00     0.013 C 
HETATM   27  C27 UNL     1       7.086   1.573  18.862  1.00  0.00     0.010 C 
HETATM   28  C28 UNL     1       6.496   1.700  17.501  1.00  0.00     0.015 C 
HETATM   29  C29 UNL     1       7.344   1.324  16.358  1.00  0.00    -0.047 C 
HETATM   30  C30 UNL     1       7.169  -0.140  16.005  1.00  0.00     0.015 C 
HETATM   31  C31 UNL     1       6.874   2.107  15.128  1.00  0.00     0.015 C 
BRANCH  22  32
HETATM   32  C16 UNL     1       8.012   5.023  19.834  1.00  0.00     0.136 C 
BRANCH  32  33
HETATM   33  N4  UNL     1       7.827   6.385  19.416  1.00  0.00    -0.339 N 
HETATM   34  C17 UNL     1       8.447   7.467  19.768  1.00  0.00     0.185 A 
HETATM   35  N5  UNL     1       7.911   8.584  19.078  1.00  0.00    -0.337 N 
HETATM   36  C18 UNL     1       6.964   8.206  18.301  1.00  0.00     0.134 A 
ATOM     37  H5  UNL     1       8.232   9.546  19.185  1.00  0.00     0.168 HD
HETATM   38  N6  UNL     1       6.039   8.591  17.399  1.00  0.00    -0.340 N 
HETATM   39  C21 UNL     1       6.858   6.851  18.459  1.00  0.00     0.088 A 
HETATM   40  C19 UNL     1       5.342   7.490  16.982  1.00  0.00     0.039 A 
ATOM     41  H6  UNL     1       5.883   9.547  17.081  1.00  0.00     0.167 HD
HETATM   42  C20 UNL     1       5.839   6.423  17.627  1.00  0.00     0.003 A 
HETATM   43  C23 UNL     1       4.473   6.748  16.342  1.00  0.00     0.008 A 
HETATM   44  C22 UNL     1       4.914   5.503  16.972  1.00  0.00     0.073 A 
ENDBRANCH  32  33
ENDBRANCH  22  32
ENDBRANCH  19  21
ENDBRANCH   3  17
TORSDOF 11
ENDMDL
MODEL 5
REMARK VINA RESULT: -7.510374585      1.384      2.226
REMARK  11 active torsions:
REMARK  status: ('A' for Active; 'I' for Inactive)
REMARK    1  A    between atoms: C3_3  and  N1_4 
REMARK    2  A    between atoms: C3_3  and  C13_17 
REMARK       I    between atoms: N1_4  and  C4_6 
REMARK       I    between atoms: C4_6  and  N2_8 
REMARK    3  A    between atoms: N2_8  and  C5_9 
REMARK    4  A    between atoms: N2_8  and  C8_12 
REMARK    5  A    between atoms: C5_9  and  C6_10 
REMARK    6  A    between atoms: C8_12  and  C9_13 
REMARK    7  A    between atoms: C9_13  and  C10_14 
REMARK    8  A    between atoms: C10_14  and  C11_15 
REMARK       I    between atoms: C13_17  and  N3_19 
REMARK    9  A    between atoms: N3_19  and  C14_21 
REMARK   10  A    between atoms: C15_22  and  C16_23 
REMARK   11  A    between atoms: C16_23  and  N4_24 
ROOT
HETATM    1  C1  UNL     1       2.067   1.727  19.781  1.00  0.00     0.015 C 
HETATM    2  C2  UNL     1       2.794   2.102  20.665  1.00  0.00    -0.082 C 
HETATM    3  C3  UNL     1       3.687   2.566  21.715  1.00  0.00     0.257 C 
ENDROOT
BRANCH   3   4
HETATM    4  N1  UNL     1       3.426   3.988  21.897  1.00  0.00    -0.319 N 
HETATM    5  C4  UNL     1       3.087   4.479  23.175  1.00  0.00     0.319 C 
HETATM    6  O1  UNL     1       3.018   3.662  24.154  1.00  0.00    -0.247 OA
HETATM    7  N2  UNL     1       2.829   5.855  23.363  1.00  0.00    -0.334 N 
ATOM      8  H1  UNL     1       3.488   4.626  21.103  1.00  0.00     0.166 HD
BRANCH   7   9
HETATM    9  C5  UNL     1       2.889   6.765  22.265  1.00  0.00     0.127 C 
BRANCH   9  10
HETATM   10  C6  UNL     1       4.137   7.591  22.202  1.00  0.00     0.015 C 
HETATM   11  C7  UNL     1       3.825   9.025  21.898  1.00  0.00     0.006 C 
ENDBRANCH   9  10
ENDBRANCH   7   9
BRANCH   7  12
HETATM   12  C8  UNL     1       2.481   6.344  24.694  1.00  0.00     0.127 C 
BRANCH  12  13
HETATM   13  C9  UNL     1       1.327   7.305  24.559  1.00  0.00     0.020 C 
BRANCH  13  14
HETATM   14  C10 UNL     1       1.599   8.564  25.331  1.00  0.00     0.001 C 
BRANCH  14  15
HETATM   15  C11 UNL     1       3.048   8.697  25.637  1.00  0.00    -0.004 C 
HETATM   16  C12 UNL     1       3.421  10.172  25.537  1.00  0.00     0.005 C 
ENDBRANCH  14  15
ENDBRANCH  13  14
ENDBRANCH  12  13
ENDBRANCH   7  12
ENDBRANCH   3   4
BRANCH   3  17
HETATM   17  C13 UNL     1       5.120   2.419  21.337  1.00  0.00     0.253 C 
HETATM   18  O2  UNL     1       5.955   1.878  22.105  1.00  0.00    -0.270 OA
HETATM   19  N3  UNL     1       5.613   2.885  20.078  1.00  0.00    -0.353 N 
ATOM     20  H3  UNL     1       4.958   3.329  19.434  1.00  0.00     0.163 HD
BRANCH  19  21
HETATM   21  C14 UNL     1       6.984   2.758  19.681  1.00  0.00     0.094 C 
HETATM   22  C15 UNL     1       7.434   3.950  18.867  1.00  0.00     0.027 C 
HETATM   23  C24 UNL     1       8.552   3.654  17.933  1.00  0.00     0.013 C 
HETATM   24  C25 UNL     1       9.109   2.304  17.839  1.00  0.00    -0.013 C 
HETATM   25  C26 UNL     1       8.625   1.278  18.825  1.00  0.00     0.011 C 
HETATM   26  C32 UNL     1       8.807   1.654  16.475  1.00  0.00     0.013 C 
HETATM   27  C27 UNL     1       7.126   1.495  18.865  1.00  0.00     0.010 C 
HETATM   28  C28 UNL     1       6.508   1.612  17.516  1.00  0.00     0.015 C 
HETATM   29  C29 UNL     1       7.356   1.305  16.353  1.00  0.00    -0.047 C 
HETATM   30  C30 UNL     1       7.258  -0.159  15.976  1.00  0.00     0.015 C 
HETATM   31  C31 UNL     1       6.823   2.082  15.145  1.00  0.00     0.015 C 
BRANCH  22  32
HETATM   32  C16 UNL     1       7.873   4.974  19.885  1.00  0.00     0.136 C 
BRANCH  32  33
HETATM   33  N4  UNL     1       7.528   6.325  19.535  1.00  0.00    -0.339 N 
HETATM   34  C17 UNL     1       8.249   7.402  19.516  1.00  0.00     0.185 A 
HETATM   35  N5  UNL     1       7.466   8.506  19.094  1.00  0.00    -0.337 N 
HETATM   36  C18 UNL     1       6.266   8.126  18.851  1.00  0.00     0.134 A 
ATOM     37  H5  UNL     1       7.808   9.463  18.999  1.00  0.00     0.168 HD
HETATM   38  N6  UNL     1       5.035   8.502  18.452  1.00  0.00    -0.340 N 
HETATM   39  C21 UNL     1       6.233   6.782  19.103  1.00  0.00     0.088 A 
HETATM   40  C19 UNL     1       4.216   7.407  18.448  1.00  0.00     0.039 A 
ATOM     41  H6  UNL     1       4.759   9.450  18.195  1.00  0.00     0.167 HD
HETATM   42  C20 UNL     1       4.944   6.351  18.846  1.00  0.00     0.003 A 
HETATM   43  C23 UNL     1       3.146   6.665  18.309  1.00  0.00     0.008 A 
HETATM   44  C22 UNL     1       3.816   5.433  18.726  1.00  0.00     0.073 A 
ENDBRANCH  32  33
ENDBRANCH  22  32
ENDBRANCH  19  21
ENDBRANCH   3  17
TORSDOF 11
ENDMDL
