MODEL 1
REMARK VINA RESULT: -8.407200818      0.000      0.000
REMARK  8 active torsions:
REMARK  status: ('A' for Active; 'I' for Inactive)
REMARK    1  A    between atoms: N1_6  and  C6_7 
REMARK    2  A    between atoms: C6_7  and  C7_8 
REMARK    3  A    between atoms: C7_8  and  C8_9 
REMARK    4  A    between atoms: C8_9  and  C9_10 
REMARK    5  A    between atoms: C9_10  and  N4_16 
REMARK    6  A    between atoms: N2_11  and  N3_13 
REMARK    7  A    between atoms: N4_16  and  C10_18 
REMARK       I    between atoms: N5_21  and  C13_22 
REMARK       I    between atoms: C13_22  and  N6_24 
REMARK    8  A    between atoms: N6_24  and  C14_26 
ROOT
HETATM    1  C9  UNL     1       8.526   7.841  21.164  1.00  0.00     0.091 C 
HETATM    2  N2  UNL     1       9.538   8.634  21.112  1.00  0.00    -0.296 N 
ATOM      3  H2  UNL     1       9.947   8.847  20.202  1.00  0.00     0.187 HD
ENDROOT
BRANCH   1   4
HETATM    4  C8  UNL     1       7.970   7.252  19.931  1.00  0.00     0.079 C 
BRANCH   4   5
HETATM    5  C7  UNL     1       7.804   5.741  20.149  1.00  0.00     0.035 C 
BRANCH   5   6
HETATM    6  C6  UNL     1       6.898   5.208  19.095  1.00  0.00     0.238 C 
BRANCH   6   7
HETATM    7  N1  UNL     1       7.327   3.993  18.481  1.00  0.00    -0.067 N 
HETATM    8  C5  UNL     1       6.821   2.860  19.252  1.00  0.00     0.238 C 
HETATM    9  C4  UNL     1       7.769   1.713  19.293  1.00  0.00     0.037 C 
HETATM   10  C2  UNL     1       8.601   1.533  18.057  1.00  0.00    -0.041 C 
HETATM   11  C1  UNL     1       9.904   0.862  18.518  1.00  0.00     0.015 C 
HETATM   12  C3  UNL     1       7.927   0.583  17.128  1.00  0.00     0.015 C 
HETATM   13  C23 UNL     1       9.005   2.832  17.424  1.00  0.00     0.021 C 
HETATM   14  C22 UNL     1       8.098   3.309  16.344  1.00  0.00     0.035 C 
HETATM   15  C24 UNL     1       8.791   3.918  18.490  1.00  0.00     0.242 C 
HETATM   16  C21 UNL     1       6.895   3.787  17.130  1.00  0.00     0.238 C 
ENDBRANCH   6   7
ENDBRANCH   5   6
ENDBRANCH   4   5
ENDBRANCH   1   4
BRANCH   1  17
HETATM   17  N4  UNL     1       7.964   7.552  22.450  1.00  0.00    -0.372 N 
ATOM     18  H4  UNL     1       8.355   6.794  23.011  1.00  0.00     0.161 HD
BRANCH  17  19
HETATM   19  C10 UNL     1       6.859   8.310  22.963  1.00  0.00     0.102 C 
HETATM   20  C11 UNL     1       6.906   8.549  24.437  1.00  0.00     0.046 C 
HETATM   21  C12 UNL     1       5.656   7.877  24.973  1.00  0.00     0.129 C 
HETATM   22  N5  UNL     1       4.776   7.919  23.839  1.00  0.00    -0.332 N 
HETATM   23  C13 UNL     1       3.411   8.240  23.845  1.00  0.00     0.318 C 
HETATM   24  C20 UNL     1       5.565   7.566  22.685  1.00  0.00     0.152 C 
HETATM   25  O1  UNL     1       2.783   8.231  22.740  1.00  0.00    -0.247 OA
HETATM   26  N6  UNL     1       2.767   8.562  25.065  1.00  0.00    -0.338 N 
ATOM     27  H6  UNL     1       3.273   8.567  25.950  1.00  0.00     0.164 HD
BRANCH  26  28
HETATM   28  C14 UNL     1       1.335   8.889  24.995  1.00  0.00     0.086 C 
HETATM   29  C15 UNL     1       1.266  10.405  24.993  1.00  0.00     0.025 C 
HETATM   30  C16 UNL     1      -0.180  10.790  24.793  1.00  0.00     0.002 C 
HETATM   31  C17 UNL     1      -1.114   9.988  25.638  1.00  0.00     0.000 C 
HETATM   32  C18 UNL     1      -0.366   9.298  26.770  1.00  0.00     0.002 C 
HETATM   33  C19 UNL     1       0.657   8.315  26.207  1.00  0.00     0.025 C 
ENDBRANCH  26  28
ENDBRANCH  17  19
ENDBRANCH   1  17
BRANCH   2  34
HETATM   34  N3  UNL     1      10.097   9.212  22.249  1.00  0.00    -0.344 N 
ATOM     35  H32 UNL     1       9.833   8.827  23.156  1.00  0.00     0.176 HD
ATOM     36  H31 UNL     1      10.749   9.996  22.202  1.00  0.00     0.176 HD
ENDBRANCH   2  34
TORSDOF 8
ENDMDL
MODEL 2
REMARK VINA RESULT: -8.307579018      0.917      1.444
REMARK  8 active torsions:
REMARK  status: ('A' for Active; 'I' for Inactive)
REMARK    1  A    between atoms: N1_6  and  C6_7 
REMARK    2  A    between atoms: C6_7  and  C7_8 
REMARK    3  A    between atoms: C7_8  and  C8_9 
REMARK    4  A    between atoms: C8_9  and  C9_10 
REMARK    5  A    between atoms: C9_10  and  N4_16 
REMARK    6  A    between atoms: N2_11  and  N3_13 
REMARK    7  A    between atoms: N4_16  and  C10_18 
REMARK       I    between atoms: N5_21  and  C13_22 
REMARK       I    between atoms: C13_22  and  N6_24 
REMARK    8  A    between atoms: N6_24  and  C14_26 
ROOT
HETATM    1  C9  UNL     1       8.302   7.851  21.606  1.00  0.00     0.091 C 
HETATM    2  N2  UNL     1       9.156   8.810  21.528  1.00  0.00    -0.296 N 
ATOM      3  H2  UNL     1       9.230   9.332  20.655  1.00  0.00     0.187 HD
ENDROOT
BRANCH   1   4
HETATM    4  C8  UNL     1       7.446   7.514  20.452  1.00  0.00     0.079 C 
BRANCH   4   5
HETATM    5  C7  UNL     1       8.044   6.287  19.749  1.00  0.00     0.035 C 
BRANCH   5   6
HETATM    6  C6  UNL     1       6.997   5.232  19.666  1.00  0.00     0.238 C 
BRANCH   6   7
HETATM    7  N1  UNL     1       7.357   4.075  18.914  1.00  0.00    -0.067 N 
HETATM    8  C5  UNL     1       6.846   2.884  19.589  1.00  0.00     0.238 C 
HETATM    9  C4  UNL     1       7.755   1.712  19.470  1.00  0.00     0.037 C 
HETATM   10  C2  UNL     1       8.527   1.634  18.185  1.00  0.00    -0.041 C 
HETATM   11  C1  UNL     1       9.825   0.881  18.516  1.00  0.00     0.015 C 
HETATM   12  C3  UNL     1       7.782   0.804  17.197  1.00  0.00     0.015 C 
HETATM   13  C23 UNL     1       8.948   2.978  17.669  1.00  0.00     0.021 C 
HETATM   14  C22 UNL     1       8.012   3.590  16.685  1.00  0.00     0.035 C 
HETATM   15  C24 UNL     1       8.817   3.955  18.848  1.00  0.00     0.242 C 
HETATM   16  C21 UNL     1       6.862   4.021  17.570  1.00  0.00     0.238 C 
ENDBRANCH   6   7
ENDBRANCH   5   6
ENDBRANCH   4   5
ENDBRANCH   1   4
BRANCH   1  17
HETATM   17  N4  UNL     1       8.211   7.129  22.841  1.00  0.00    -0.372 N 
ATOM     18  H4  UNL     1       9.024   6.618  23.184  1.00  0.00     0.161 HD
BRANCH  17  19
HETATM   19  C10 UNL     1       6.994   7.112  23.601  1.00  0.00     0.102 C 
HETATM   20  C11 UNL     1       5.884   6.334  22.972  1.00  0.00     0.046 C 
HETATM   21  C12 UNL     1       4.785   7.354  22.745  1.00  0.00     0.129 C 
HETATM   22  N5  UNL     1       5.059   8.331  23.761  1.00  0.00    -0.332 N 
HETATM   23  C13 UNL     1       4.124   8.972  24.585  1.00  0.00     0.318 C 
HETATM   24  C20 UNL     1       6.487   8.532  23.773  1.00  0.00     0.152 C 
HETATM   25  O1  UNL     1       4.547   9.814  25.439  1.00  0.00    -0.247 OA
HETATM   26  N6  UNL     1       2.746   8.674  24.453  1.00  0.00    -0.338 N 
ATOM     27  H6  UNL     1       2.408   8.000  23.766  1.00  0.00     0.164 HD
BRANCH  26  28
HETATM   28  C14 UNL     1       1.823   9.383  25.353  1.00  0.00     0.086 C 
HETATM   29  C15 UNL     1       0.829   8.336  25.821  1.00  0.00     0.025 C 
HETATM   30  C16 UNL     1      -0.063   8.989  26.848  1.00  0.00     0.002 C 
HETATM   31  C17 UNL     1      -0.529  10.344  26.431  1.00  0.00     0.000 C 
HETATM   32  C18 UNL     1      -0.342  10.546  24.934  1.00  0.00     0.002 C 
HETATM   33  C19 UNL     1       1.139  10.470  24.571  1.00  0.00     0.025 C 
ENDBRANCH  26  28
ENDBRANCH  17  19
ENDBRANCH   1  17
BRANCH   2  34
HETATM   34  N3  UNL     1       9.984   9.164  22.591  1.00  0.00    -0.344 N 
ATOM     35  H32 UNL     1      10.104   8.487  23.344  1.00  0.00     0.176 HD
ATOM     36  H31 UNL     1      10.465  10.063  22.637  1.00  0.00     0.176 HD
ENDBRANCH   2  34
TORSDOF 8
ENDMDL
MODEL 3
REMARK VINA RESULT: -8.276251715      3.001      5.847
REMARK  8 active torsions:
REMARK  status: ('A' for Active; 'I' for Inactive)
REMARK    1  A    between atoms: N1_6  and  C6_7 
REMARK    2  A    between atoms: C6_7  and  C7_8 
REMARK    3  A    between atoms: C7_8  and  C8_9 
REMARK    4  A    between atoms: C8_9  and  C9_10 
REMARK    5  A    between atoms: C9_10  and  N4_16 
REMARK    6  A    between atoms: N2_11  and  N3_13 
REMARK    7  A    between atoms: N4_16  and  C10_18 
REMARK       I    between atoms: N5_21  and  C13_22 
REMARK       I    between atoms: C13_22  and  N6_24 
REMARK    8  A    between atoms: N6_24  and  C14_26 
ROOT
HETATM    1  C9  UNL     1       3.177   6.382  21.077  1.00  0.00     0.091 C 
HETATM    2  N2  UNL     1       2.913   7.240  20.155  1.00  0.00    -0.296 N 
ATOM      3  H2  UNL     1       2.898   6.927  19.184  1.00  0.00     0.187 HD
ENDROOT
BRANCH   1   4
HETATM    4  C8  UNL     1       3.454   4.974  20.734  1.00  0.00     0.079 C 
BRANCH   4   5
HETATM    5  C7  UNL     1       4.771   4.919  19.947  1.00  0.00     0.035 C 
BRANCH   5   6
HETATM    6  C6  UNL     1       5.229   3.504  19.890  1.00  0.00     0.238 C 
BRANCH   6   7
HETATM    7  N1  UNL     1       6.414   3.277  19.129  1.00  0.00    -0.067 N 
HETATM    8  C5  UNL     1       6.172   2.202  18.170  1.00  0.00     0.238 C 
HETATM    9  C4  UNL     1       7.364   1.337  17.951  1.00  0.00     0.037 C 
HETATM   10  C2  UNL     1       8.686   2.040  18.049  1.00  0.00    -0.041 C 
HETATM   11  C1  UNL     1       9.698   0.978  18.508  1.00  0.00     0.015 C 
HETATM   12  C3  UNL     1       9.117   2.496  16.697  1.00  0.00     0.015 C 
HETATM   13  C23 UNL     1       8.707   3.113  19.097  1.00  0.00     0.021 C 
HETATM   14  C22 UNL     1       8.390   4.480  18.598  1.00  0.00     0.035 C 
HETATM   15  C24 UNL     1       7.502   2.847  20.013  1.00  0.00     0.242 C 
HETATM   16  C21 UNL     1       6.896   4.394  18.370  1.00  0.00     0.238 C 
ENDBRANCH   6   7
ENDBRANCH   5   6
ENDBRANCH   4   5
ENDBRANCH   1   4
BRANCH   1  17
HETATM   17  N4  UNL     1       3.192   6.838  22.436  1.00  0.00    -0.372 N 
ATOM     18  H4  UNL     1       2.410   7.389  22.789  1.00  0.00     0.161 HD
BRANCH  17  19
HETATM   19  C10 UNL     1       4.290   6.531  23.308  1.00  0.00     0.102 C 
HETATM   20  C11 UNL     1       4.112   7.006  24.713  1.00  0.00     0.046 C 
HETATM   21  C12 UNL     1       5.253   7.981  24.934  1.00  0.00     0.129 C 
HETATM   22  N5  UNL     1       6.243   7.508  24.008  1.00  0.00    -0.332 N 
HETATM   23  C13 UNL     1       7.619   7.377  24.241  1.00  0.00     0.318 C 
HETATM   24  C20 UNL     1       5.551   7.193  22.782  1.00  0.00     0.152 C 
HETATM   25  O1  UNL     1       8.352   6.936  23.301  1.00  0.00    -0.247 OA
HETATM   26  N6  UNL     1       8.158   7.734  25.501  1.00  0.00    -0.338 N 
ATOM     27  H6  UNL     1       7.568   8.089  26.253  1.00  0.00     0.164 HD
BRANCH  26  28
HETATM   28  C14 UNL     1       9.609   7.568  25.675  1.00  0.00     0.086 C 
HETATM   29  C15 UNL     1       9.814   7.319  27.158  1.00  0.00     0.025 C 
HETATM   30  C16 UNL     1      11.278   7.016  27.366  1.00  0.00     0.002 C 
HETATM   31  C17 UNL     1      12.173   7.951  26.622  1.00  0.00     0.000 C 
HETATM   32  C18 UNL     1      11.419   9.202  26.195  1.00  0.00     0.002 C 
HETATM   33  C19 UNL     1      10.288   8.837  25.237  1.00  0.00     0.025 C 
ENDBRANCH  26  28
ENDBRANCH  17  19
ENDBRANCH   1  17
BRANCH   2  34
HETATM   34  N3  UNL     1       2.645   8.579  20.431  1.00  0.00    -0.344 N 
ATOM     35  H32 UNL     1       3.440   9.202  20.573  1.00  0.00     0.176 HD
ATOM     36  H31 UNL     1       1.695   8.947  20.494  1.00  0.00     0.176 HD
ENDBRANCH   2  34
TORSDOF 8
ENDMDL
MODEL 4
REMARK VINA RESULT: -8.224036021      2.970      6.025
REMARK  8 active torsions:
REMARK  status: ('A' for Active; 'I' for Inactive)
REMARK    1  A    between atoms: N1_6  and  C6_7 
REMARK    2  A    between atoms: C6_7  and  C7_8 
REMARK    3  A    between atoms: C7_8  and  C8_9 
REMARK    4  A    between atoms: C8_9  and  C9_10 
REMARK    5  A    between atoms: C9_10  and  N4_16 
REMARK    6  A    between atoms: N2_11  and  N3_13 
REMARK    7  A    between atoms: N4_16  and  C10_18 
REMARK       I    between atoms: N5_21  and  C13_22 
REMARK       I    between atoms: C13_22  and  N6_24 
REMARK    8  A    between atoms: N6_24  and  C14_26 
ROOT
HETATM    1  C9  UNL     1       3.189   6.923  21.192  1.00  0.00     0.091 C 
HETATM    2  N2  UNL     1       3.152   7.679  20.152  1.00  0.00    -0.296 N 
ATOM      3  H2  UNL     1       3.089   7.245  19.232  1.00  0.00     0.187 HD
ENDROOT
BRANCH   1   4
HETATM    4  C8  UNL     1       3.142   5.455  21.054  1.00  0.00     0.079 C 
BRANCH   4   5
HETATM    5  C7  UNL     1       4.258   5.024  20.092  1.00  0.00     0.035 C 
BRANCH   5   6
HETATM    6  C6  UNL     1       5.384   4.470  20.892  1.00  0.00     0.238 C 
BRANCH   6   7
HETATM    7  N1  UNL     1       6.432   3.867  20.134  1.00  0.00    -0.067 N 
HETATM    8  C5  UNL     1       7.414   4.887  19.775  1.00  0.00     0.238 C 
HETATM    9  C4  UNL     1       8.010   4.674  18.428  1.00  0.00     0.037 C 
HETATM   10  C2  UNL     1       8.162   3.237  18.020  1.00  0.00    -0.041 C 
HETATM   11  C1  UNL     1       8.083   3.221  16.486  1.00  0.00     0.015 C 
HETATM   12  C3  UNL     1       9.520   2.748  18.391  1.00  0.00     0.015 C 
HETATM   13  C23 UNL     1       7.040   2.366  18.503  1.00  0.00     0.021 C 
HETATM   14  C22 UNL     1       7.294   1.682  19.800  1.00  0.00     0.035 C 
HETATM   15  C24 UNL     1       5.892   3.313  18.888  1.00  0.00     0.242 C 
HETATM   16  C21 UNL     1       7.158   2.820  20.790  1.00  0.00     0.238 C 
ENDBRANCH   6   7
ENDBRANCH   5   6
ENDBRANCH   4   5
ENDBRANCH   1   4
BRANCH   1  17
HETATM   17  N4  UNL     1       3.276   7.551  22.478  1.00  0.00    -0.372 N 
ATOM     18  H4  UNL     1       2.597   8.267  22.734  1.00  0.00     0.161 HD
BRANCH  17  19
HETATM   19  C10 UNL     1       4.304   7.188  23.411  1.00  0.00     0.102 C 
HETATM   20  C11 UNL     1       4.200   7.866  24.739  1.00  0.00     0.046 C 
HETATM   21  C12 UNL     1       5.483   8.663  24.862  1.00  0.00     0.129 C 
HETATM   22  N5  UNL     1       6.387   7.919  24.031  1.00  0.00    -0.332 N 
HETATM   23  C13 UNL     1       7.722   7.599  24.316  1.00  0.00     0.318 C 
HETATM   24  C20 UNL     1       5.659   7.562  22.838  1.00  0.00     0.152 C 
HETATM   25  O1  UNL     1       8.378   6.925  23.460  1.00  0.00    -0.247 OA
HETATM   26  N6  UNL     1       8.306   8.026  25.533  1.00  0.00    -0.338 N 
ATOM     27  H6  UNL     1       7.778   8.568  26.217  1.00  0.00     0.164 HD
BRANCH  26  28
HETATM   28  C14 UNL     1       9.709   7.652  25.765  1.00  0.00     0.086 C 
HETATM   29  C15 UNL     1       9.803   7.330  27.246  1.00  0.00     0.025 C 
HETATM   30  C16 UNL     1      11.198   6.817  27.507  1.00  0.00     0.002 C 
HETATM   31  C17 UNL     1      12.251   7.639  26.841  1.00  0.00     0.000 C 
HETATM   32  C18 UNL     1      11.701   8.997  26.428  1.00  0.00     0.002 C 
HETATM   33  C19 UNL     1      10.579   8.825  25.407  1.00  0.00     0.025 C 
ENDBRANCH  26  28
ENDBRANCH  17  19
ENDBRANCH   1  17
BRANCH   2  34
HETATM   34  N3  UNL     1       3.193   9.069  20.234  1.00  0.00    -0.344 N 
ATOM     35  H32 UNL     1       4.088   9.504  20.458  1.00  0.00     0.176 HD
ATOM     36  H31 UNL     1       2.371   9.653  20.079  1.00  0.00     0.176 HD
ENDBRANCH   2  34
TORSDOF 8
ENDMDL
MODEL 5
REMARK VINA RESULT: -8.107368871      4.524      5.946
REMARK  8 active torsions:
REMARK  status: ('A' for Active; 'I' for Inactive)
REMARK    1  A    between atoms: N1_6  and  C6_7 
REMARK    2  A    between atoms: C6_7  and  C7_8 
REMARK    3  A    between atoms: C7_8  and  C8_9 
REMARK    4  A    between atoms: C8_9  and  C9_10 
REMARK    5  A    between atoms: C9_10  and  N4_16 
REMARK    6  A    between atoms: N2_11  and  N3_13 
REMARK    7  A    between atoms: N4_16  and  C10_18 
REMARK       I    between atoms: N5_21  and  C13_22 
REMARK       I    between atoms: C13_22  and  N6_24 
REMARK    8  A    between atoms: N6_24  and  C14_26 
ROOT
HETATM    1  C9  UNL     1       5.277   8.560  17.015  1.00  0.00     0.091 C 
HETATM    2  N2  UNL     1       4.082   9.029  17.103  1.00  0.00    -0.296 N 
ATOM      3  H2  UNL     1       3.311   8.484  16.718  1.00  0.00     0.187 HD
ENDROOT
BRANCH   1   4
HETATM    4  C8  UNL     1       5.525   7.258  16.368  1.00  0.00     0.079 C 
BRANCH   4   5
HETATM    5  C7  UNL     1       5.419   6.160  17.435  1.00  0.00     0.035 C 
BRANCH   5   6
HETATM    6  C6  UNL     1       5.718   4.849  16.797  1.00  0.00     0.238 C 
BRANCH   6   7
HETATM    7  N1  UNL     1       6.540   3.970  17.565  1.00  0.00    -0.067 N 
HETATM    8  C5  UNL     1       6.026   2.608  17.450  1.00  0.00     0.238 C 
HETATM    9  C4  UNL     1       6.173   1.823  18.706  1.00  0.00     0.037 C 
HETATM   10  C2  UNL     1       7.386   2.154  19.525  1.00  0.00    -0.041 C 
HETATM   11  C1  UNL     1       7.014   1.838  20.982  1.00  0.00     0.015 C 
HETATM   12  C3  UNL     1       8.509   1.247  19.156  1.00  0.00     0.015 C 
HETATM   13  C23 UNL     1       7.737   3.613  19.494  1.00  0.00     0.021 C 
HETATM   14  C22 UNL     1       8.738   3.992  18.459  1.00  0.00     0.035 C 
HETATM   15  C24 UNL     1       6.488   4.348  18.981  1.00  0.00     0.242 C 
HETATM   16  C21 UNL     1       7.921   3.914  17.186  1.00  0.00     0.238 C 
ENDBRANCH   6   7
ENDBRANCH   5   6
ENDBRANCH   4   5
ENDBRANCH   1   4
BRANCH   1  17
HETATM   17  N4  UNL     1       6.348   9.340  17.561  1.00  0.00    -0.372 N 
ATOM     18  H4  UNL     1       6.964   9.856  16.933  1.00  0.00     0.161 HD
BRANCH  17  19
HETATM   19  C10 UNL     1       6.569   9.406  18.977  1.00  0.00     0.102 C 
HETATM   20  C11 UNL     1       7.140  10.702  19.453  1.00  0.00     0.046 C 
HETATM   21  C12 UNL     1       8.473  10.328  20.071  1.00  0.00     0.129 C 
HETATM   22  N5  UNL     1       8.255   8.965  20.468  1.00  0.00    -0.332 N 
HETATM   23  C13 UNL     1       8.648   8.366  21.673  1.00  0.00     0.318 C 
HETATM   24  C20 UNL     1       7.552   8.323  19.384  1.00  0.00     0.152 C 
HETATM   25  O1  UNL     1       8.368   7.140  21.859  1.00  0.00    -0.247 OA
HETATM   26  N6  UNL     1       9.341   9.127  22.646  1.00  0.00    -0.338 N 
ATOM     27  H6  UNL     1       9.567  10.110  22.494  1.00  0.00     0.164 HD
BRANCH  26  28
HETATM   28  C14 UNL     1       9.721   8.434  23.886  1.00  0.00     0.086 C 
HETATM   29  C15 UNL     1       8.635   8.775  24.890  1.00  0.00     0.025 C 
HETATM   30  C16 UNL     1       8.914   7.982  26.143  1.00  0.00     0.002 C 
HETATM   31  C17 UNL     1      10.352   8.015  26.540  1.00  0.00     0.000 C 
HETATM   32  C18 UNL     1      11.081   9.156  25.846  1.00  0.00     0.002 C 
HETATM   33  C19 UNL     1      11.058   8.956  24.332  1.00  0.00     0.025 C 
ENDBRANCH  26  28
ENDBRANCH  17  19
ENDBRANCH   1  17
BRANCH   2  34
HETATM   34  N3  UNL     1       3.800  10.254  17.705  1.00  0.00    -0.344 N 
ATOM     35  H32 UNL     1       4.480  10.623  18.370  1.00  0.00     0.176 HD
ATOM     36  H31 UNL     1       2.950  10.782  17.503  1.00  0.00     0.176 HD
ENDBRANCH   2  34
TORSDOF 8
ENDMDL
