MODEL 1
REMARK VINA RESULT: -6.697147581      0.000      0.000
REMARK  2 active torsions:
REMARK  status: ('A' for Active; 'I' for Inactive)
REMARK    1  A    between atoms: C3_3  and  C4_4 
REMARK    2  A    between atoms: C7_10  and  C8_11 
ROOT
HETATM    1  C4  UNL     1      10.383  57.349  62.691  1.00  0.00     0.213 C 
HETATM    2  N1  UNL     1      11.367  56.263  62.866  1.00  0.00    -0.067 N 
ATOM      3  H11 UNL     1      12.329  56.584  62.971  1.00  0.00     0.277 HD
ATOM      4  H12 UNL     1      11.526  55.705  62.028  1.00  0.00     0.277 HD
HETATM    5  C5  UNL     1      10.867  55.509  63.995  1.00  0.00     0.233 C 
HETATM    6  C6  UNL     1      10.420  56.549  64.970  1.00  0.00     0.034 C 
HETATM    7  C7  UNL     1      10.170  57.763  64.105  1.00  0.00     0.025 C 
ENDROOT
BRANCH   7   8
HETATM    8  C8  UNL     1       8.917  58.483  64.422  1.00  0.00    -0.008 C 
HETATM    9  C9  UNL     1       8.573  58.128  65.878  1.00  0.00     0.005 C 
HETATM   10  C10 UNL     1       7.100  57.900  65.925  1.00  0.00     0.000 C 
HETATM   11  C11 UNL     1       6.584  58.453  64.639  1.00  0.00     0.000 C 
HETATM   12  C12 UNL     1       7.708  58.091  63.656  1.00  0.00     0.005 C 
ENDBRANCH   7   8
BRANCH   1  13
HETATM   13  C3  UNL     1       9.237  56.741  62.006  1.00  0.00     0.002 C 
HETATM   14  C2  UNL     1       9.262  56.604  60.701  1.00  0.00    -0.033 C 
HETATM   15  C1  UNL     1      10.401  57.035  59.846  1.00  0.00     0.036 C 
ENDBRANCH   1  13
TORSDOF 2
ENDMDL
MODEL 2
REMARK VINA RESULT: -6.665037323      1.421      4.246
REMARK  2 active torsions:
REMARK  status: ('A' for Active; 'I' for Inactive)
REMARK    1  A    between atoms: C3_3  and  C4_4 
REMARK    2  A    between atoms: C7_10  and  C8_11 
ROOT
HETATM    1  C4  UNL     1      10.144  57.575  64.380  1.00  0.00     0.213 C 
HETATM    2  N1  UNL     1       9.367  58.275  65.421  1.00  0.00    -0.067 N 
ATOM      3  H11 UNL     1       9.555  59.276  65.481  1.00  0.00     0.277 HD
ATOM      4  H12 UNL     1       9.649  58.052  66.374  1.00  0.00     0.277 HD
HETATM    5  C5  UNL     1       7.991  57.949  65.117  1.00  0.00     0.233 C 
HETATM    6  C6  UNL     1       7.901  58.061  63.630  1.00  0.00     0.034 C 
HETATM    7  C7  UNL     1       9.329  57.877  63.172  1.00  0.00     0.025 C 
ENDROOT
BRANCH   7   8
HETATM    8  C8  UNL     1       9.479  56.977  62.007  1.00  0.00    -0.008 C 
HETATM    9  C9  UNL     1      10.947  57.092  61.561  1.00  0.00     0.005 C 
HETATM   10  C10 UNL     1      10.936  57.135  60.070  1.00  0.00     0.000 C 
HETATM   11  C11 UNL     1       9.563  56.699  59.682  1.00  0.00     0.000 C 
HETATM   12  C12 UNL     1       8.701  57.319  60.792  1.00  0.00     0.005 C 
ENDBRANCH   7   8
BRANCH   1  13
HETATM   13  C3  UNL     1      10.198  56.171  64.801  1.00  0.00     0.002 C 
HETATM   14  C2  UNL     1      11.357  55.559  64.868  1.00  0.00    -0.033 C 
HETATM   15  C1  UNL     1      12.654  56.208  64.535  1.00  0.00     0.036 C 
ENDBRANCH   1  13
TORSDOF 2
ENDMDL
MODEL 3
REMARK VINA RESULT: -6.166376576      1.464      1.689
REMARK  2 active torsions:
REMARK  status: ('A' for Active; 'I' for Inactive)
REMARK    1  A    between atoms: C3_3  and  C4_4 
REMARK    2  A    between atoms: C7_10  and  C8_11 
ROOT
HETATM    1  C4  UNL     1      11.845  57.077  63.157  1.00  0.00     0.213 C 
HETATM    2  N1  UNL     1      12.481  55.817  63.586  1.00  0.00    -0.067 N 
ATOM      3  H11 UNL     1      13.194  55.932  64.306  1.00  0.00     0.277 HD
ATOM      4  H12 UNL     1      13.095  55.400  62.887  1.00  0.00     0.277 HD
HETATM    5  C5  UNL     1      11.372  54.975  63.980  1.00  0.00     0.233 C 
HETATM    6  C6  UNL     1      10.465  55.886  64.741  1.00  0.00     0.034 C 
HETATM    7  C7  UNL     1      10.834  57.261  64.234  1.00  0.00     0.025 C 
ENDROOT
BRANCH   7   8
HETATM    8  C8  UNL     1       9.673  58.128  63.937  1.00  0.00    -0.008 C 
HETATM    9  C9  UNL     1       8.932  58.327  65.270  1.00  0.00     0.005 C 
HETATM   10  C10 UNL     1       7.475  58.228  64.966  1.00  0.00     0.000 C 
HETATM   11  C11 UNL     1       7.383  58.331  63.481  1.00  0.00     0.000 C 
HETATM   12  C12 UNL     1       8.641  57.576  63.025  1.00  0.00     0.005 C 
ENDBRANCH   7   8
BRANCH   1  13
HETATM   13  C3  UNL     1      11.327  56.822  61.808  1.00  0.00     0.002 C 
HETATM   14  C2  UNL     1      12.167  56.640  60.817  1.00  0.00    -0.033 C 
HETATM   15  C1  UNL     1      13.647  56.677  60.969  1.00  0.00     0.036 C 
ENDBRANCH   1  13
TORSDOF 2
ENDMDL
MODEL 4
REMARK VINA RESULT: -6.142701161      1.689      4.495
REMARK  2 active torsions:
REMARK  status: ('A' for Active; 'I' for Inactive)
REMARK    1  A    between atoms: C3_3  and  C4_4 
REMARK    2  A    between atoms: C7_10  and  C8_11 
ROOT
HETATM    1  C4  UNL     1       8.782  58.747  63.873  1.00  0.00     0.213 C 
HETATM    2  N1  UNL     1       8.164  59.359  62.681  1.00  0.00    -0.067 N 
ATOM      3  H11 UNL     1       8.619  60.217  62.368  1.00  0.00     0.277 HD
ATOM      4  H12 UNL     1       7.248  59.775  62.852  1.00  0.00     0.277 HD
HETATM    5  C5  UNL     1       8.159  58.298  61.697  1.00  0.00     0.233 C 
HETATM    6  C6  UNL     1       9.496  57.648  61.844  1.00  0.00     0.034 C 
HETATM    7  C7  UNL     1       9.914  58.008  63.251  1.00  0.00     0.025 C 
ENDROOT
BRANCH   7   8
HETATM    8  C8  UNL     1      10.493  56.881  64.016  1.00  0.00    -0.008 C 
HETATM    9  C9  UNL     1      12.016  57.095  64.012  1.00  0.00     0.005 C 
HETATM   10  C10 UNL     1      12.633  55.756  63.790  1.00  0.00     0.000 C 
HETATM   11  C11 UNL     1      11.529  54.780  64.021  1.00  0.00     0.000 C 
HETATM   12  C12 UNL     1      10.314  55.523  63.447  1.00  0.00     0.005 C 
ENDBRANCH   7   8
BRANCH   1  13
HETATM   13  C3  UNL     1       7.730  57.934  64.493  1.00  0.00     0.002 C 
HETATM   14  C2  UNL     1       7.740  57.744  65.791  1.00  0.00    -0.033 C 
HETATM   15  C1  UNL     1       8.774  58.308  66.701  1.00  0.00     0.036 C 
ENDBRANCH   1  13
TORSDOF 2
ENDMDL
MODEL 5
REMARK VINA RESULT: -6.100534321      1.159      2.702
REMARK  2 active torsions:
REMARK  status: ('A' for Active; 'I' for Inactive)
REMARK    1  A    between atoms: C3_3  and  C4_4 
REMARK    2  A    between atoms: C7_10  and  C8_11 
ROOT
HETATM    1  C4  UNL     1      10.105  56.672  62.948  1.00  0.00     0.213 C 
HETATM    2  N1  UNL     1      10.549  56.276  61.597  1.00  0.00    -0.067 N 
ATOM      3  H11 UNL     1      10.165  55.388  61.274  1.00  0.00     0.277 HD
ATOM      4  H12 UNL     1      11.529  56.000  61.543  1.00  0.00     0.277 HD
HETATM    5  C5  UNL     1      10.206  57.408  60.764  1.00  0.00     0.233 C 
HETATM    6  C6  UNL     1       8.848  57.818  61.234  1.00  0.00     0.034 C 
HETATM    7  C7  UNL     1       8.778  57.272  62.641  1.00  0.00     0.025 C 
ENDROOT
BRANCH   7   8
HETATM    8  C8  UNL     1       8.214  58.217  63.629  1.00  0.00    -0.008 C 
HETATM    9  C9  UNL     1       8.569  57.653  65.016  1.00  0.00     0.005 C 
HETATM   10  C10 UNL     1       7.360  57.832  65.870  1.00  0.00     0.000 C 
HETATM   11  C11 UNL     1       6.491  58.779  65.114  1.00  0.00     0.000 C 
HETATM   12  C12 UNL     1       6.737  58.353  63.659  1.00  0.00     0.005 C 
ENDBRANCH   7   8
BRANCH   1  13
HETATM   13  C3  UNL     1      11.136  57.583  63.454  1.00  0.00     0.002 C 
HETATM   14  C2  UNL     1      12.209  57.092  64.028  1.00  0.00    -0.033 C 
HETATM   15  C1  UNL     1      12.457  55.636  64.207  1.00  0.00     0.036 C 
ENDBRANCH   1  13
TORSDOF 2
ENDMDL
