MODEL 1
REMARK VINA RESULT: -6.967401791      0.000      0.000
REMARK  8 active torsions:
REMARK  status: ('A' for Active; 'I' for Inactive)
REMARK    1  A    between atoms: O1_2  and  C2_3 
REMARK    2  A    between atoms: C2_3  and  C3_5 
REMARK    3  A    between atoms: C4_6  and  O3_7 
REMARK    4  A    between atoms: C4_6  and  C10_21 
REMARK    5  A    between atoms: O3_7  and  C5_8 
REMARK    6  A    between atoms: C7_15  and  C8_16 
REMARK    7  A    between atoms: C8_16  and  O5_18 
REMARK    8  A    between atoms: C10_21  and  O7_22 
ROOT
HETATM    1  C5  UNL     1      41.914  60.549 171.670  1.00  0.00     0.378 C 
HETATM    2  N1  UNL     1      41.324  59.958 172.855  1.00  0.00    -0.329 N 
ATOM      3  H1  UNL     1      40.447  59.443 172.918  1.00  0.00     0.165 HD
HETATM    4  C6  UNL     1      42.230  60.251 173.908  1.00  0.00     0.114 C 
HETATM    5  N2  UNL     1      41.956  60.263 175.156  1.00  0.00    -0.386 N 
ATOM      6  H21 UNL     1      42.607  60.473 175.913  1.00  0.00     0.157 HD
ATOM      7  H22 UNL     1      41.070  60.075 175.624  1.00  0.00     0.157 HD
HETATM    8  C7  UNL     1      43.520  60.525 173.227  1.00  0.00     0.292 C 
HETATM    9  O6  UNL     1      43.127  61.078 172.043  1.00  0.00    -0.321 OA
ENDROOT
BRANCH   1  10
HETATM   10  O3  UNL     1      41.080  61.588 171.252  1.00  0.00    -0.303 OA
BRANCH  10  11
HETATM   11  C4  UNL     1      40.952  61.983 169.905  1.00  0.00     0.096 C 
HETATM   12  C3  UNL     1      41.876  62.716 169.378  1.00  0.00     0.118 C 
BRANCH  12  13
HETATM   13  C2  UNL     1      41.987  63.246 168.046  1.00  0.00     0.284 C 
HETATM   14  O2  UNL     1      41.153  63.049 167.114  1.00  0.00    -0.260 OA
BRANCH  13  15
HETATM   15  O1  UNL     1      43.097  64.056 167.713  1.00  0.00    -0.323 OA
HETATM   16  C1  UNL     1      44.023  64.332 168.739  1.00  0.00     0.213 C 
ENDBRANCH  13  15
ENDBRANCH  12  13
BRANCH  11  17
HETATM   17  C10 UNL     1      39.742  61.499 169.239  1.00  0.00     0.247 C 
HETATM   18  S1  UNL     1      38.523  60.869 170.448  1.00  0.00    -0.056 SA
BRANCH  17  19
HETATM   19  O7  UNL     1      40.054  60.353 168.451  1.00  0.00    -0.378 OA
ATOM     20  H7  UNL     1      39.270  59.833 168.318  1.00  0.00     0.211 HD
ENDBRANCH  17  19
ENDBRANCH  11  17
ENDBRANCH  10  11
ENDBRANCH   1  10
BRANCH   8  21
HETATM   21  C8  UNL     1      44.206  59.219 172.986  1.00  0.00     0.295 C 
HETATM   22  O4  UNL     1      45.148  59.138 172.152  1.00  0.00    -0.262 OA
BRANCH  21  23
HETATM   23  O5  UNL     1      43.849  58.063 173.655  1.00  0.00    -0.324 OA
HETATM   24  C9  UNL     1      43.215  56.969 173.014  1.00  0.00     0.213 C 
ENDBRANCH  21  23
ENDBRANCH   8  21
TORSDOF 8
ENDMDL
MODEL 2
REMARK VINA RESULT: -6.539726976      2.050      2.733
REMARK  8 active torsions:
REMARK  status: ('A' for Active; 'I' for Inactive)
REMARK    1  A    between atoms: O1_2  and  C2_3 
REMARK    2  A    between atoms: C2_3  and  C3_5 
REMARK    3  A    between atoms: C4_6  and  O3_7 
REMARK    4  A    between atoms: C4_6  and  C10_21 
REMARK    5  A    between atoms: O3_7  and  C5_8 
REMARK    6  A    between atoms: C7_15  and  C8_16 
REMARK    7  A    between atoms: C8_16  and  O5_18 
REMARK    8  A    between atoms: C10_21  and  O7_22 
ROOT
HETATM    1  C5  UNL     1      42.681  59.865 173.702  1.00  0.00     0.378 C 
HETATM    2  N1  UNL     1      44.070  59.706 173.319  1.00  0.00    -0.329 N 
ATOM      3  H1  UNL     1      44.872  60.232 173.665  1.00  0.00     0.165 HD
HETATM    4  C6  UNL     1      44.075  58.661 172.357  1.00  0.00     0.114 C 
HETATM    5  N2  UNL     1      44.985  58.439 171.489  1.00  0.00    -0.386 N 
ATOM      6  H21 UNL     1      44.988  57.689 170.798  1.00  0.00     0.157 HD
ATOM      7  H22 UNL     1      45.852  58.949 171.319  1.00  0.00     0.157 HD
HETATM    8  C7  UNL     1      42.812  57.920 172.604  1.00  0.00     0.292 C 
HETATM    9  O6  UNL     1      41.964  58.899 173.036  1.00  0.00    -0.321 OA
ENDROOT
BRANCH   1  10
HETATM   10  O3  UNL     1      42.258  61.121 173.262  1.00  0.00    -0.303 OA
BRANCH  10  11
HETATM   11  C4  UNL     1      41.966  61.410 171.914  1.00  0.00     0.096 C 
HETATM   12  C3  UNL     1      42.920  61.805 171.138  1.00  0.00     0.118 C 
BRANCH  12  13
HETATM   13  C2  UNL     1      42.890  62.158 169.745  1.00  0.00     0.284 C 
HETATM   14  O2  UNL     1      42.360  61.463 168.830  1.00  0.00    -0.260 OA
BRANCH  13  15
HETATM   15  O1  UNL     1      43.489  63.369 169.325  1.00  0.00    -0.323 OA
HETATM   16  C1  UNL     1      42.735  64.197 168.470  1.00  0.00     0.213 C 
ENDBRANCH  13  15
ENDBRANCH  12  13
BRANCH  11  17
HETATM   17  C10 UNL     1      40.563  61.222 171.540  1.00  0.00     0.247 C 
HETATM   18  S1  UNL     1      39.484  61.148 173.015  1.00  0.00    -0.056 SA
BRANCH  17  19
HETATM   19  O7  UNL     1      40.396  59.939 170.939  1.00  0.00    -0.378 OA
ATOM     20  H7  UNL     1      41.050  59.340 171.277  1.00  0.00     0.211 HD
ENDBRANCH  17  19
ENDBRANCH  11  17
ENDBRANCH  10  11
ENDBRANCH   1  10
BRANCH   8  21
HETATM   21  C8  UNL     1      43.060  56.929 173.697  1.00  0.00     0.295 C 
HETATM   22  O4  UNL     1      44.235  56.564 173.971  1.00  0.00    -0.262 OA
BRANCH  21  23
HETATM   23  O5  UNL     1      42.034  56.382 174.444  1.00  0.00    -0.324 OA
HETATM   24  C9  UNL     1      41.921  56.564 175.845  1.00  0.00     0.213 C 
ENDBRANCH  21  23
ENDBRANCH   8  21
TORSDOF 8
ENDMDL
MODEL 3
REMARK VINA RESULT: -6.525965187      2.054      3.181
REMARK  8 active torsions:
REMARK  status: ('A' for Active; 'I' for Inactive)
REMARK    1  A    between atoms: O1_2  and  C2_3 
REMARK    2  A    between atoms: C2_3  and  C3_5 
REMARK    3  A    between atoms: C4_6  and  O3_7 
REMARK    4  A    between atoms: C4_6  and  C10_21 
REMARK    5  A    between atoms: O3_7  and  C5_8 
REMARK    6  A    between atoms: C7_15  and  C8_16 
REMARK    7  A    between atoms: C8_16  and  O5_18 
REMARK    8  A    between atoms: C10_21  and  O7_22 
ROOT
HETATM    1  C5  UNL     1      41.904  60.507 171.756  1.00  0.00     0.378 C 
HETATM    2  N1  UNL     1      41.337  59.934 172.960  1.00  0.00    -0.329 N 
ATOM      3  H1  UNL     1      40.463  59.416 173.046  1.00  0.00     0.165 HD
HETATM    4  C6  UNL     1      42.258  60.247 173.994  1.00  0.00     0.114 C 
HETATM    5  N2  UNL     1      42.006  60.279 175.245  1.00  0.00    -0.386 N 
ATOM      6  H21 UNL     1      42.667  60.504 175.988  1.00  0.00     0.157 HD
ATOM      7  H22 UNL     1      41.128  60.095 175.731  1.00  0.00     0.157 HD
HETATM    8  C7  UNL     1      43.536  60.516 173.287  1.00  0.00     0.292 C 
HETATM    9  O6  UNL     1      43.121  61.048 172.100  1.00  0.00    -0.321 OA
ENDROOT
BRANCH   1  10
HETATM   10  O3  UNL     1      41.059  61.536 171.335  1.00  0.00    -0.303 OA
BRANCH  10  11
HETATM   11  C4  UNL     1      40.138  61.397 170.278  1.00  0.00     0.096 C 
HETATM   12  C3  UNL     1      38.879  61.550 170.521  1.00  0.00     0.118 C 
BRANCH  12  13
HETATM   13  C2  UNL     1      37.749  61.463 169.635  1.00  0.00     0.284 C 
HETATM   14  O2  UNL     1      37.350  62.393 168.875  1.00  0.00    -0.260 OA
BRANCH  13  15
HETATM   15  O1  UNL     1      37.002  60.264 169.581  1.00  0.00    -0.323 OA
HETATM   16  C1  UNL     1      37.153  59.362 170.653  1.00  0.00     0.213 C 
ENDBRANCH  13  15
ENDBRANCH  12  13
BRANCH  11  17
HETATM   17  C10 UNL     1      40.740  61.082 168.981  1.00  0.00     0.247 C 
HETATM   18  S1  UNL     1      41.203  62.602 168.075  1.00  0.00    -0.056 SA
BRANCH  17  19
HETATM   19  O7  UNL     1      39.766  60.473 168.136  1.00  0.00    -0.378 OA
ATOM     20  H7  UNL     1      39.620  61.018 167.372  1.00  0.00     0.211 HD
ENDBRANCH  17  19
ENDBRANCH  11  17
ENDBRANCH  10  11
ENDBRANCH   1  10
BRANCH   8  21
HETATM   21  C8  UNL     1      44.224  59.208 173.056  1.00  0.00     0.295 C 
HETATM   22  O4  UNL     1      45.172  59.125 172.229  1.00  0.00    -0.262 OA
BRANCH  21  23
HETATM   23  O5  UNL     1      43.862  58.055 173.727  1.00  0.00    -0.324 OA
HETATM   24  C9  UNL     1      43.252  56.950 173.080  1.00  0.00     0.213 C 
ENDBRANCH  21  23
ENDBRANCH   8  21
TORSDOF 8
ENDMDL
MODEL 4
REMARK VINA RESULT: -6.481158050      2.027      3.043
REMARK  8 active torsions:
REMARK  status: ('A' for Active; 'I' for Inactive)
REMARK    1  A    between atoms: O1_2  and  C2_3 
REMARK    2  A    between atoms: C2_3  and  C3_5 
REMARK    3  A    between atoms: C4_6  and  O3_7 
REMARK    4  A    between atoms: C4_6  and  C10_21 
REMARK    5  A    between atoms: O3_7  and  C5_8 
REMARK    6  A    between atoms: C7_15  and  C8_16 
REMARK    7  A    between atoms: C8_16  and  O5_18 
REMARK    8  A    between atoms: C10_21  and  O7_22 
ROOT
HETATM    1  C5  UNL     1      42.221  59.736 173.351  1.00  0.00     0.378 C 
HETATM    2  N1  UNL     1      43.644  59.748 173.075  1.00  0.00    -0.329 N 
ATOM      3  H1  UNL     1      44.333  60.424 173.404  1.00  0.00     0.165 HD
HETATM    4  C6  UNL     1      43.874  58.616 172.249  1.00  0.00     0.114 C 
HETATM    5  N2  UNL     1      44.872  58.439 171.472  1.00  0.00    -0.386 N 
ATOM      6  H21 UNL     1      45.037  57.626 170.879  1.00  0.00     0.157 HD
ATOM      7  H22 UNL     1      45.668  59.052 171.295  1.00  0.00     0.157 HD
HETATM    8  C7  UNL     1      42.715  57.724 172.506  1.00  0.00     0.292 C 
HETATM    9  O6  UNL     1      41.705  58.605 172.764  1.00  0.00    -0.321 OA
ENDROOT
BRANCH   1  10
HETATM   10  O3  UNL     1      41.659  60.858 172.736  1.00  0.00    -0.303 OA
BRANCH  10  11
HETATM   11  C4  UNL     1      40.787  60.779 171.632  1.00  0.00     0.096 C 
HETATM   12  C3  UNL     1      41.276  60.874 170.441  1.00  0.00     0.118 C 
BRANCH  12  13
HETATM   13  C2  UNL     1      40.616  60.827 169.164  1.00  0.00     0.284 C 
HETATM   14  O2  UNL     1      39.786  59.939 168.809  1.00  0.00    -0.260 OA
BRANCH  13  15
HETATM   15  O1  UNL     1      40.887  61.831 168.206  1.00  0.00    -0.323 OA
HETATM   16  C1  UNL     1      41.931  62.731 168.495  1.00  0.00     0.213 C 
ENDBRANCH  13  15
ENDBRANCH  12  13
BRANCH  11  17
HETATM   17  C10 UNL     1      39.378  60.592 171.980  1.00  0.00     0.247 C 
HETATM   18  S1  UNL     1      38.532  62.195 172.222  1.00  0.00    -0.056 SA
BRANCH  17  19
HETATM   19  O7  UNL     1      39.278  59.965 173.258  1.00  0.00    -0.378 OA
ATOM     20  H7  UNL     1      38.465  59.478 173.312  1.00  0.00     0.211 HD
ENDBRANCH  17  19
ENDBRANCH  11  17
ENDBRANCH  10  11
ENDBRANCH   1  10
BRANCH   8  21
HETATM   21  C8  UNL     1      43.015  56.910 173.724  1.00  0.00     0.295 C 
HETATM   22  O4  UNL     1      44.208  56.683 174.060  1.00  0.00    -0.262 OA
BRANCH  21  23
HETATM   23  O5  UNL     1      42.019  56.381 174.522  1.00  0.00    -0.324 OA
HETATM   24  C9  UNL     1      41.665  56.934 175.779  1.00  0.00     0.213 C 
ENDBRANCH  21  23
ENDBRANCH   8  21
TORSDOF 8
ENDMDL
MODEL 5
REMARK VINA RESULT: -6.359032536      2.636      6.182
REMARK  8 active torsions:
REMARK  status: ('A' for Active; 'I' for Inactive)
REMARK    1  A    between atoms: O1_2  and  C2_3 
REMARK    2  A    between atoms: C2_3  and  C3_5 
REMARK    3  A    between atoms: C4_6  and  O3_7 
REMARK    4  A    between atoms: C4_6  and  C10_21 
REMARK    5  A    between atoms: O3_7  and  C5_8 
REMARK    6  A    between atoms: C7_15  and  C8_16 
REMARK    7  A    between atoms: C8_16  and  O5_18 
REMARK    8  A    between atoms: C10_21  and  O7_22 
ROOT
HETATM    1  C5  UNL     1      42.278  62.183 171.414  1.00  0.00     0.378 C 
HETATM    2  N1  UNL     1      40.931  61.731 171.129  1.00  0.00    -0.329 N 
ATOM      3  H1  UNL     1      40.095  61.878 171.694  1.00  0.00     0.165 HD
HETATM    4  C6  UNL     1      41.022  61.040 169.892  1.00  0.00     0.114 C 
HETATM    5  N2  UNL     1      40.196  60.174 169.449  1.00  0.00    -0.386 N 
ATOM      6  H21 UNL     1      40.262  59.677 168.561  1.00  0.00     0.157 HD
ATOM      7  H22 UNL     1      39.341  59.819 169.878  1.00  0.00     0.157 HD
HETATM    8  C7  UNL     1      42.266  61.557 169.266  1.00  0.00     0.292 C 
HETATM    9  O6  UNL     1      43.061  61.820 170.344  1.00  0.00    -0.321 OA
ENDROOT
BRANCH   1  10
HETATM   10  O3  UNL     1      42.724  61.502 172.549  1.00  0.00    -0.303 OA
BRANCH  10  11
HETATM   11  C4  UNL     1      41.940  60.558 173.242  1.00  0.00     0.096 C 
HETATM   12  C3  UNL     1      40.982  60.977 174.000  1.00  0.00     0.118 C 
BRANCH  12  13
HETATM   13  C2  UNL     1      40.049  60.235 174.804  1.00  0.00     0.284 C 
HETATM   14  O2  UNL     1      38.878  59.915 174.447  1.00  0.00    -0.260 OA
BRANCH  13  15
HETATM   15  O1  UNL     1      40.432  59.813 176.098  1.00  0.00    -0.323 OA
HETATM   16  C1  UNL     1      40.402  58.429 176.359  1.00  0.00     0.213 C 
ENDBRANCH  13  15
ENDBRANCH  12  13
BRANCH  11  17
HETATM   17  C10 UNL     1      42.320  59.163 173.013  1.00  0.00     0.247 C 
HETATM   18  S1  UNL     1      44.058  59.028 172.460  1.00  0.00    -0.056 SA
BRANCH  17  19
HETATM   19  O7  UNL     1      41.577  58.639 171.914  1.00  0.00    -0.378 OA
ATOM     20  H7  UNL     1      42.015  57.868 171.572  1.00  0.00     0.211 HD
ENDBRANCH  17  19
ENDBRANCH  11  17
ENDBRANCH  10  11
ENDBRANCH   1  10
BRANCH   8  21
HETATM   21  C8  UNL     1      41.933  62.824 168.545  1.00  0.00     0.295 C 
HETATM   22  O4  UNL     1      41.074  62.825 167.624  1.00  0.00    -0.262 OA
BRANCH  21  23
HETATM   23  O5  UNL     1      42.539  64.028 168.851  1.00  0.00    -0.324 OA
HETATM   24  C9  UNL     1      43.841  64.368 168.405  1.00  0.00     0.213 C 
ENDBRANCH  21  23
ENDBRANCH   8  21
TORSDOF 8
ENDMDL
