MODEL 1
REMARK VINA RESULT: -4.871094726      0.000      0.000
REMARK  5 active torsions:
REMARK  status: ('A' for Active; 'I' for Inactive)
REMARK    1  A    between atoms: N1_1  and  N2_4 
REMARK    2  A    between atoms: C1_6  and  C2_7 
REMARK    3  A    between atoms: C2_7  and  N3_8 
REMARK    4  A    between atoms: C2_7  and  C3_12 
REMARK    5  A    between atoms: N4_13  and  C4_15 
ROOT
HETATM    1  C2  UNL     1      22.724  -2.005   5.670  1.00  0.00     0.261 C 
ENDROOT
BRANCH   1   2
HETATM    2  C1  UNL     1      22.552  -1.099   4.512  1.00  0.00     0.117 C 
HETATM    3  N2  UNL     1      21.571  -0.285   4.440  1.00  0.00    -0.320 N 
ATOM      4  H2  UNL     1      20.886  -0.254   5.195  1.00  0.00     0.185 HD
BRANCH   3   5
HETATM    5  N1  UNL     1      21.424   0.561   3.344  1.00  0.00    -0.346 N 
ATOM      6  H12 UNL     1      22.169   0.591   2.647  1.00  0.00     0.176 HD
ATOM      7  H11 UNL     1      20.591   1.138   3.237  1.00  0.00     0.176 HD
ENDBRANCH   3   5
ENDBRANCH   1   2
BRANCH   1   8
HETATM    8  N3  UNL     1      23.954  -1.631   6.330  1.00  0.00    -0.066 N 
ATOM      9  H33 UNL     1      24.753  -2.189   6.029  1.00  0.00     0.275 HD
ATOM     10  H32 UNL     1      24.306  -0.722   6.032  1.00  0.00     0.275 HD
ATOM     11  H31 UNL     1      23.787  -1.684   7.335  1.00  0.00     0.275 HD
ENDBRANCH   1   8
BRANCH   1  12
HETATM   12  C3  UNL     1      21.557  -1.954   6.604  1.00  0.00     0.094 C 
HETATM   13  N4  UNL     1      21.697  -1.973   7.867  1.00  0.00    -0.392 N 
ATOM     14  H4  UNL     1      22.627  -2.024   8.281  1.00  0.00     0.159 HD
BRANCH  13  15
HETATM   15  C4  UNL     1      20.545  -1.921   8.697  1.00  0.00     0.132 C 
HETATM   16  C5  UNL     1      20.993  -1.763  10.158  1.00  0.00     0.259 C 
HETATM   17  N5  UNL     1      21.261  -3.211  10.110  1.00  0.00    -0.071 N 
HETATM   18  C6  UNL     1      20.079  -3.267   9.233  1.00  0.00     0.259 C 
ATOM     19  H52 UNL     1      22.166  -3.588   9.828  1.00  0.00     0.277 HD
ATOM     20  H51 UNL     1      21.340  -3.778  10.953  1.00  0.00     0.277 HD
ENDBRANCH  13  15
ENDBRANCH   1  12
TORSDOF 5
ENDMDL
MODEL 2
REMARK VINA RESULT: -4.240062196      1.699      2.213
REMARK  5 active torsions:
REMARK  status: ('A' for Active; 'I' for Inactive)
REMARK    1  A    between atoms: N1_1  and  N2_4 
REMARK    2  A    between atoms: C1_6  and  C2_7 
REMARK    3  A    between atoms: C2_7  and  N3_8 
REMARK    4  A    between atoms: C2_7  and  C3_12 
REMARK    5  A    between atoms: N4_13  and  C4_15 
ROOT
HETATM    1  C2  UNL     1      22.600  -0.916   4.931  1.00  0.00     0.261 C 
ENDROOT
BRANCH   1   2
HETATM    2  C1  UNL     1      22.847  -1.821   3.787  1.00  0.00     0.117 C 
HETATM    3  N2  UNL     1      23.089  -1.369   2.618  1.00  0.00    -0.320 N 
ATOM      4  H2  UNL     1      23.113  -0.362   2.462  1.00  0.00     0.185 HD
BRANCH   3   5
HETATM    5  N1  UNL     1      23.320  -2.235   1.552  1.00  0.00    -0.346 N 
ATOM      6  H12 UNL     1      22.596  -2.339   0.841  1.00  0.00     0.176 HD
ATOM      7  H11 UNL     1      24.194  -2.755   1.481  1.00  0.00     0.176 HD
ENDBRANCH   3   5
ENDBRANCH   1   2
BRANCH   1   8
HETATM    8  N3  UNL     1      21.307  -0.304   4.724  1.00  0.00    -0.066 N 
ATOM      9  H33 UNL     1      21.242   0.202   3.841  1.00  0.00     0.275 HD
ATOM     10  H32 UNL     1      20.569  -0.984   4.543  1.00  0.00     0.275 HD
ATOM     11  H31 UNL     1      21.116   0.284   5.535  1.00  0.00     0.275 HD
ENDBRANCH   1   8
BRANCH   1  12
HETATM   12  C3  UNL     1      22.670  -1.631   6.242  1.00  0.00     0.094 C 
HETATM   13  N4  UNL     1      21.650  -1.792   6.984  1.00  0.00    -0.392 N 
ATOM     14  H4  UNL     1      20.742  -1.429   6.695  1.00  0.00     0.159 HD
BRANCH  13  15
HETATM   15  C4  UNL     1      21.787  -2.482   8.218  1.00  0.00     0.132 C 
HETATM   16  C5  UNL     1      20.464  -3.197   8.536  1.00  0.00     0.259 C 
HETATM   17  N5  UNL     1      19.994  -1.874   8.984  1.00  0.00    -0.071 N 
HETATM   18  C6  UNL     1      21.379  -1.684   9.448  1.00  0.00     0.259 C 
ATOM     19  H52 UNL     1      19.536  -1.216   8.354  1.00  0.00     0.277 HD
ATOM     20  H51 UNL     1      19.192  -1.764   9.605  1.00  0.00     0.277 HD
ENDBRANCH  13  15
ENDBRANCH   1  12
TORSDOF 5
ENDMDL
MODEL 3
REMARK VINA RESULT: -4.169589296      1.958      2.797
REMARK  5 active torsions:
REMARK  status: ('A' for Active; 'I' for Inactive)
REMARK    1  A    between atoms: N1_1  and  N2_4 
REMARK    2  A    between atoms: C1_6  and  C2_7 
REMARK    3  A    between atoms: C2_7  and  N3_8 
REMARK    4  A    between atoms: C2_7  and  C3_12 
REMARK    5  A    between atoms: N4_13  and  C4_15 
ROOT
HETATM    1  C2  UNL     1      22.386  -0.281   4.040  1.00  0.00     0.261 C 
ENDROOT
BRANCH   1   2
HETATM    2  C1  UNL     1      22.517  -0.882   2.694  1.00  0.00     0.117 C 
HETATM    3  N2  UNL     1      23.197  -1.945   2.500  1.00  0.00    -0.320 N 
ATOM      4  H2  UNL     1      23.664  -2.394   3.288  1.00  0.00     0.185 HD
BRANCH   3   5
HETATM    5  N1  UNL     1      23.310  -2.498   1.227  1.00  0.00    -0.346 N 
ATOM      6  H12 UNL     1      23.007  -1.944   0.426  1.00  0.00     0.176 HD
ATOM      7  H11 UNL     1      23.688  -3.436   1.096  1.00  0.00     0.176 HD
ENDBRANCH   3   5
ENDBRANCH   1   2
BRANCH   1   8
HETATM    8  N3  UNL     1      21.053   0.269   4.138  1.00  0.00    -0.066 N 
ATOM      9  H33 UNL     1      21.032   1.284   4.030  1.00  0.00     0.275 HD
ATOM     10  H32 UNL     1      20.466   0.038   3.337  1.00  0.00     0.275 HD
ATOM     11  H31 UNL     1      20.659  -0.045   5.024  1.00  0.00     0.275 HD
ENDBRANCH   1   8
BRANCH   1  12
HETATM   12  C3  UNL     1      22.657  -1.270   5.128  1.00  0.00     0.094 C 
HETATM   13  N4  UNL     1      21.900  -1.389   6.142  1.00  0.00    -0.392 N 
ATOM     14  H4  UNL     1      21.074  -0.799   6.240  1.00  0.00     0.159 HD
BRANCH  13  15
HETATM   15  C4  UNL     1      22.216  -2.350   7.140  1.00  0.00     0.132 C 
HETATM   16  C5  UNL     1      20.991  -3.250   7.367  1.00  0.00     0.259 C 
HETATM   17  N5  UNL     1      20.471  -2.136   8.180  1.00  0.00    -0.071 N 
HETATM   18  C6  UNL     1      21.878  -1.932   8.563  1.00  0.00     0.259 C 
ATOM     19  H52 UNL     1      19.901  -1.390   7.781  1.00  0.00     0.277 HD
ATOM     20  H51 UNL     1      19.732  -2.266   8.870  1.00  0.00     0.277 HD
ENDBRANCH  13  15
ENDBRANCH   1  12
TORSDOF 5
ENDMDL
MODEL 4
REMARK VINA RESULT: -3.959248027      2.048      6.092
REMARK  5 active torsions:
REMARK  status: ('A' for Active; 'I' for Inactive)
REMARK    1  A    between atoms: N1_1  and  N2_4 
REMARK    2  A    between atoms: C1_6  and  C2_7 
REMARK    3  A    between atoms: C2_7  and  N3_8 
REMARK    4  A    between atoms: C2_7  and  C3_12 
REMARK    5  A    between atoms: N4_13  and  C4_15 
ROOT
HETATM    1  C2  UNL     1      22.823  -1.296   5.605  1.00  0.00     0.261 C 
ENDROOT
BRANCH   1   2
HETATM    2  C1  UNL     1      21.747  -2.017   6.319  1.00  0.00     0.117 C 
HETATM    3  N2  UNL     1      21.899  -2.427   7.519  1.00  0.00    -0.320 N 
ATOM      4  H2  UNL     1      22.781  -2.255   8.001  1.00  0.00     0.185 HD
BRANCH   3   5
HETATM    5  N1  UNL     1      20.876  -3.104   8.177  1.00  0.00    -0.346 N 
ATOM      6  H12 UNL     1      20.076  -3.428   7.633  1.00  0.00     0.176 HD
ATOM      7  H11 UNL     1      20.923  -3.273   9.182  1.00  0.00     0.176 HD
ENDBRANCH   3   5
ENDBRANCH   1   2
BRANCH   1   8
HETATM    8  N3  UNL     1      24.081  -1.725   6.173  1.00  0.00    -0.066 N 
ATOM      9  H33 UNL     1      24.041  -1.842   7.185  1.00  0.00     0.275 HD
ATOM     10  H32 UNL     1      24.315  -2.689   5.937  1.00  0.00     0.275 HD
ATOM     11  H31 UNL     1      24.792  -1.058   5.876  1.00  0.00     0.275 HD
ENDBRANCH   1   8
BRANCH   1  12
HETATM   12  C3  UNL     1      22.775  -1.528   4.129  1.00  0.00     0.094 C 
HETATM   13  N4  UNL     1      22.677  -0.574   3.294  1.00  0.00    -0.392 N 
ATOM     14  H4  UNL     1      22.626   0.391   3.619  1.00  0.00     0.159 HD
BRANCH  13  15
HETATM   15  C4  UNL     1      22.637  -0.865   1.904  1.00  0.00     0.132 C 
HETATM   16  C5  UNL     1      23.662   0.023   1.182  1.00  0.00     0.259 C 
HETATM   17  N5  UNL     1      22.645   1.084   1.293  1.00  0.00    -0.071 N 
HETATM   18  C6  UNL     1      21.675  -0.007   1.095  1.00  0.00     0.259 C 
ATOM     19  H52 UNL     1      22.600   1.714   2.094  1.00  0.00     0.277 HD
ATOM     20  H51 UNL     1      22.658   1.914   0.701  1.00  0.00     0.277 HD
ENDBRANCH  13  15
ENDBRANCH   1  12
TORSDOF 5
ENDMDL
MODEL 5
REMARK VINA RESULT: -3.787589886      1.632      2.013
REMARK  5 active torsions:
REMARK  status: ('A' for Active; 'I' for Inactive)
REMARK    1  A    between atoms: N1_1  and  N2_4 
REMARK    2  A    between atoms: C1_6  and  C2_7 
REMARK    3  A    between atoms: C2_7  and  N3_8 
REMARK    4  A    between atoms: C2_7  and  C3_12 
REMARK    5  A    between atoms: N4_13  and  C4_15 
ROOT
HETATM    1  C2  UNL     1      20.906  -0.311   5.703  1.00  0.00     0.261 C 
ENDROOT
BRANCH   1   2
HETATM    2  C1  UNL     1      21.675  -0.469   4.449  1.00  0.00     0.117 C 
HETATM    3  N2  UNL     1      21.525   0.335   3.468  1.00  0.00    -0.320 N 
ATOM      4  H2  UNL     1      20.861   1.105   3.545  1.00  0.00     0.185 HD
BRANCH   3   5
HETATM    5  N1  UNL     1      22.256   0.173   2.294  1.00  0.00    -0.346 N 
ATOM      6  H12 UNL     1      22.120  -0.677   1.747  1.00  0.00     0.176 HD
ATOM      7  H11 UNL     1      22.915   0.888   1.986  1.00  0.00     0.176 HD
ENDBRANCH   3   5
ENDBRANCH   1   2
BRANCH   1   8
HETATM    8  N3  UNL     1      19.543  -0.001   5.337  1.00  0.00    -0.066 N 
ATOM      9  H33 UNL     1      19.431   0.951   4.988  1.00  0.00     0.275 HD
ATOM     10  H32 UNL     1      19.236  -0.488   4.495  1.00  0.00     0.275 HD
ATOM     11  H31 UNL     1      18.958  -0.199   6.148  1.00  0.00     0.275 HD
ENDBRANCH   1   8
BRANCH   1  12
HETATM   12  C3  UNL     1      20.983  -1.527   6.569  1.00  0.00     0.094 C 
HETATM   13  N4  UNL     1      20.382  -1.605   7.686  1.00  0.00    -0.392 N 
ATOM     14  H4  UNL     1      19.824  -0.822   8.026  1.00  0.00     0.159 HD
BRANCH  13  15
HETATM   15  C4  UNL     1      20.497  -2.792   8.459  1.00  0.00     0.132 C 
HETATM   16  C5  UNL     1      19.631  -2.648   9.720  1.00  0.00     0.259 C 
HETATM   17  N5  UNL     1      20.744  -1.839  10.249  1.00  0.00    -0.071 N 
HETATM   18  C6  UNL     1      21.604  -2.773   9.503  1.00  0.00     0.259 C 
ATOM     19  H52 UNL     1      20.794  -0.829  10.117  1.00  0.00     0.277 HD
ATOM     20  H51 UNL     1      20.864  -1.667  11.247  1.00  0.00     0.277 HD
ENDBRANCH  13  15
ENDBRANCH   1  12
TORSDOF 5
ENDMDL
