MODEL 1
REMARK VINA RESULT: -7.565692488      0.000      0.000
REMARK  2 active torsions:
REMARK  status: ('A' for Active; 'I' for Inactive)
REMARK    1  A    between atoms: C2_2  and  C3_3 
REMARK    2  A    between atoms: C5_5  and  O1_6 
ROOT
HETATM    1  C3  UNL     1      23.709   2.825  20.251  1.00  0.00     0.061 C 
HETATM    2  C4  UNL     1      24.432   2.622  21.592  1.00  0.00     0.096 C 
HETATM    3  C5  UNL     1      24.386   1.157  21.991  1.00  0.00     0.360 C 
HETATM    4  N1  UNL     1      23.037   0.657  21.887  1.00  0.00     0.130 N 
HETATM    5  C6  UNL     1      22.947  -0.604  22.552  1.00  0.00     0.315 C 
HETATM    6  C7  UNL     1      22.538   0.633  20.528  1.00  0.00     0.418 C 
HETATM    7  N2  UNL     1      23.414   1.511  19.735  1.00  0.00    -0.178 N 
HETATM    8  C8  UNL     1      23.921   1.022  18.503  1.00  0.00     0.716 A 
HETATM    9  N3  UNL     1      23.540   0.107  17.601  1.00  0.00    -0.115 N 
ATOM     10  H3  UNL     1      22.704  -0.476  17.648  1.00  0.00     0.207 HD
HETATM   11  N4  UNL     1      24.445   0.100  16.643  1.00  0.00    -0.213 N 
ATOM     12  H4  UNL     1      24.413  -0.500  15.819  1.00  0.00     0.210 HD
HETATM   13  N5  UNL     1      25.397   0.975  16.895  1.00  0.00    -0.211 N 
ATOM     14  H5  UNL     1      26.216   1.174  16.322  1.00  0.00     0.210 HD
HETATM   15  N6  UNL     1      25.072   1.544  18.045  1.00  0.00    -0.102 N 
HETATM   16  C9  UNL     1      25.693   2.569  18.856  1.00  0.00     0.134 C 
HETATM   17  C10 UNL     1      26.705   3.386  18.125  1.00  0.00     0.028 C 
HETATM   18  C11 UNL     1      26.127   4.036  16.927  1.00  0.00     0.002 C 
HETATM   19  C12 UNL     1      24.685   4.349  16.956  1.00  0.00     0.001 C 
HETATM   20  C13 UNL     1      24.017   4.352  18.274  1.00  0.00     0.009 C 
HETATM   21  C14 UNL     1      24.642   3.565  19.357  1.00  0.00     0.040 C 
ENDROOT
BRANCH   1  22
HETATM   22  C2  UNL     1      22.418   3.544  20.543  1.00  0.00     0.028 C 
HETATM   23  C1  UNL     1      22.508   4.418  21.761  1.00  0.00     0.007 C 
ENDBRANCH   1  22
BRANCH   3  24
HETATM   24  O1  UNL     1      24.752   1.076  23.333  1.00  0.00    -0.368 OA
ATOM     25  H1  UNL     1      25.687   1.235  23.384  1.00  0.00     0.212 HD
ENDBRANCH   3  24
TORSDOF 2
ENDMDL
MODEL 2
REMARK VINA RESULT: -7.072476250      1.198      1.234
REMARK  2 active torsions:
REMARK  status: ('A' for Active; 'I' for Inactive)
REMARK    1  A    between atoms: C2_2  and  C3_3 
REMARK    2  A    between atoms: C5_5  and  O1_6 
ROOT
HETATM    1  C3  UNL     1      23.388   3.800  20.309  1.00  0.00     0.061 C 
HETATM    2  C4  UNL     1      23.868   3.764  21.768  1.00  0.00     0.096 C 
HETATM    3  C5  UNL     1      23.450   2.458  22.421  1.00  0.00     0.360 C 
HETATM    4  N1  UNL     1      22.050   2.210  22.182  1.00  0.00     0.130 N 
HETATM    5  C6  UNL     1      21.600   1.166  23.048  1.00  0.00     0.315 C 
HETATM    6  C7  UNL     1      21.739   1.981  20.787  1.00  0.00     0.418 C 
HETATM    7  N2  UNL     1      22.881   2.484  20.006  1.00  0.00    -0.178 N 
HETATM    8  C8  UNL     1      23.425   1.649  18.995  1.00  0.00     0.716 A 
HETATM    9  N3  UNL     1      22.973   0.646  18.230  1.00  0.00    -0.115 N 
ATOM     10  H3  UNL     1      22.031   0.255  18.240  1.00  0.00     0.207 HD
HETATM   11  N4  UNL     1      23.971   0.259  17.460  1.00  0.00    -0.213 N 
ATOM     12  H4  UNL     1      23.916  -0.490  16.772  1.00  0.00     0.210 HD
HETATM   13  N5  UNL     1      25.050   0.975  17.704  1.00  0.00    -0.211 N 
ATOM     14  H5  UNL     1      25.961   0.886  17.253  1.00  0.00     0.210 HD
HETATM   15  N6  UNL     1      24.711   1.833  18.652  1.00  0.00    -0.102 N 
HETATM   16  C9  UNL     1      25.431   2.876  19.350  1.00  0.00     0.134 C 
HETATM   17  C10 UNL     1      26.684   3.308  18.664  1.00  0.00     0.028 C 
HETATM   18  C11 UNL     1      26.423   3.775  17.284  1.00  0.00     0.002 C 
HETATM   19  C12 UNL     1      25.093   4.351  17.004  1.00  0.00     0.001 C 
HETATM   20  C13 UNL     1      24.276   4.770  18.163  1.00  0.00     0.009 C 
HETATM   21  C14 UNL     1      24.568   4.137  19.466  1.00  0.00     0.040 C 
ENDROOT
BRANCH   1  22
HETATM   22  C2  UNL     1      22.258   4.794  20.233  1.00  0.00     0.028 C 
HETATM   23  C1  UNL     1      22.414   5.918  21.216  1.00  0.00     0.007 C 
ENDBRANCH   1  22
BRANCH   3  24
HETATM   24  O1  UNL     1      23.613   2.607  23.798  1.00  0.00    -0.368 OA
ATOM     25  H1  UNL     1      24.500   2.910  23.950  1.00  0.00     0.212 HD
ENDBRANCH   3  24
TORSDOF 2
ENDMDL
MODEL 3
REMARK VINA RESULT: -6.564870190      2.251      5.278
REMARK  2 active torsions:
REMARK  status: ('A' for Active; 'I' for Inactive)
REMARK    1  A    between atoms: C2_2  and  C3_3 
REMARK    2  A    between atoms: C5_5  and  O1_6 
ROOT
HETATM    1  C3  UNL     1      24.208   1.522  19.158  1.00  0.00     0.061 C 
HETATM    2  C4  UNL     1      25.728   1.507  18.935  1.00  0.00     0.096 C 
HETATM    3  C5  UNL     1      26.199   2.875  18.470  1.00  0.00     0.360 C 
HETATM    4  N1  UNL     1      25.377   3.339  17.380  1.00  0.00     0.130 N 
HETATM    5  C6  UNL     1      26.009   4.456  16.753  1.00  0.00     0.315 C 
HETATM    6  C7  UNL     1      24.004   3.589  17.764  1.00  0.00     0.418 C 
HETATM    7  N2  UNL     1      23.785   2.897  19.045  1.00  0.00    -0.178 N 
HETATM    8  C8  UNL     1      23.169   3.615  20.102  1.00  0.00     0.716 A 
HETATM    9  N3  UNL     1      22.339   4.663  20.197  1.00  0.00    -0.115 N 
ATOM     10  H3  UNL     1      21.951   5.199  19.420  1.00  0.00     0.207 HD
HETATM   11  N4  UNL     1      22.116   4.872  21.479  1.00  0.00    -0.213 N 
ATOM     12  H4  UNL     1      21.517   5.609  21.851  1.00  0.00     0.210 HD
HETATM   13  N5  UNL     1      22.774   3.999  22.214  1.00  0.00    -0.211 N 
ATOM     14  H5  UNL     1      22.780   3.934  23.232  1.00  0.00     0.210 HD
HETATM   15  N6  UNL     1      23.424   3.223  21.362  1.00  0.00    -0.102 N 
HETATM   16  C9  UNL     1      24.310   2.091  21.528  1.00  0.00     0.134 C 
HETATM   17  C10 UNL     1      24.229   1.453  22.874  1.00  0.00     0.028 C 
HETATM   18  C11 UNL     1      22.853   1.009  23.191  1.00  0.00     0.002 C 
HETATM   19  C12 UNL     1      21.980   0.647  22.057  1.00  0.00     0.001 C 
HETATM   20  C13 UNL     1      22.631   0.385  20.756  1.00  0.00     0.009 C 
HETATM   21  C14 UNL     1      23.960   0.986  20.525  1.00  0.00     0.040 C 
ENDROOT
BRANCH   1  22
HETATM   22  C2  UNL     1      23.584   0.719  18.047  1.00  0.00     0.028 C 
HETATM   23  C1  UNL     1      24.486  -0.373  17.549  1.00  0.00     0.007 C 
ENDBRANCH   1  22
BRANCH   3  24
HETATM   24  O1  UNL     1      27.494   2.727  17.975  1.00  0.00    -0.368 OA
ATOM     25  H1  UNL     1      27.759   1.828  18.131  1.00  0.00     0.212 HD
ENDBRANCH   3  24
TORSDOF 2
ENDMDL
MODEL 4
REMARK VINA RESULT: -6.563270644      3.325      4.905
REMARK  2 active torsions:
REMARK  status: ('A' for Active; 'I' for Inactive)
REMARK    1  A    between atoms: C2_2  and  C3_3 
REMARK    2  A    between atoms: C5_5  and  O1_6 
ROOT
HETATM    1  C3  UNL     1      24.896   4.297  17.989  1.00  0.00     0.061 C 
HETATM    2  C4  UNL     1      24.208   3.059  17.393  1.00  0.00     0.096 C 
HETATM    3  C5  UNL     1      23.254   2.454  18.408  1.00  0.00     0.360 C 
HETATM    4  N1  UNL     1      23.917   2.292  19.678  1.00  0.00     0.130 N 
HETATM    5  C6  UNL     1      23.129   1.449  20.519  1.00  0.00     0.315 C 
HETATM    6  C7  UNL     1      24.285   3.548  20.296  1.00  0.00     0.418 C 
HETATM    7  N2  UNL     1      24.237   4.574  19.242  1.00  0.00    -0.178 N 
HETATM    8  C8  UNL     1      23.546   5.785  19.512  1.00  0.00     0.716 A 
HETATM    9  N3  UNL     1      23.224   6.484  20.608  1.00  0.00    -0.115 N 
ATOM     10  H3  UNL     1      23.450   6.236  21.572  1.00  0.00     0.207 HD
HETATM   11  N4  UNL     1      22.560   7.552  20.212  1.00  0.00    -0.213 N 
ATOM     12  H4  UNL     1      22.189   8.269  20.834  1.00  0.00     0.210 HD
HETATM   13  N5  UNL     1      22.441   7.565  18.900  1.00  0.00    -0.211 N 
ATOM     14  H5  UNL     1      21.975   8.272  18.332  1.00  0.00     0.210 HD
HETATM   15  N6  UNL     1      23.051   6.472  18.469  1.00  0.00    -0.102 N 
HETATM   16  C9  UNL     1      23.271   5.912  17.152  1.00  0.00     0.134 C 
HETATM   17  C10 UNL     1      23.079   6.889  16.041  1.00  0.00     0.028 C 
HETATM   18  C11 UNL     1      23.958   8.071  16.189  1.00  0.00     0.002 C 
HETATM   19  C12 UNL     1      25.235   7.880  16.904  1.00  0.00     0.001 C 
HETATM   20  C13 UNL     1      25.717   6.493  17.075  1.00  0.00     0.009 C 
HETATM   21  C14 UNL     1      24.713   5.411  17.018  1.00  0.00     0.040 C 
ENDROOT
BRANCH   1  22
HETATM   22  C2  UNL     1      26.331   3.927  18.256  1.00  0.00     0.028 C 
HETATM   23  C1  UNL     1      26.768   2.717  17.482  1.00  0.00     0.007 C 
ENDBRANCH   1  22
BRANCH   3  24
HETATM   24  O1  UNL     1      22.913   1.180  17.956  1.00  0.00    -0.368 OA
ATOM     25  H1  UNL     1      23.192   0.558  18.617  1.00  0.00     0.212 HD
ENDBRANCH   3  24
TORSDOF 2
ENDMDL
MODEL 5
REMARK VINA RESULT: -6.342612407      2.034      2.698
REMARK  2 active torsions:
REMARK  status: ('A' for Active; 'I' for Inactive)
REMARK    1  A    between atoms: C2_2  and  C3_3 
REMARK    2  A    between atoms: C5_5  and  O1_6 
ROOT
HETATM    1  C3  UNL     1      22.474   2.242  22.459  1.00  0.00     0.061 C 
HETATM    2  C4  UNL     1      23.434   1.859  23.595  1.00  0.00     0.096 C 
HETATM    3  C5  UNL     1      23.981   0.460  23.365  1.00  0.00     0.360 C 
HETATM    4  N1  UNL     1      22.903  -0.453  23.077  1.00  0.00     0.130 N 
HETATM    5  C6  UNL     1      23.381  -1.796  23.173  1.00  0.00     0.315 C 
HETATM    6  C7  UNL     1      22.227  -0.166  21.829  1.00  0.00     0.418 C 
HETATM    7  N2  UNL     1      22.585   1.211  21.455  1.00  0.00    -0.178 N 
HETATM    8  C8  UNL     1      23.022   1.457  20.127  1.00  0.00     0.716 A 
HETATM    9  N3  UNL     1      22.848   0.872  18.934  1.00  0.00    -0.115 N 
ATOM     10  H3  UNL     1      22.295   0.035  18.746  1.00  0.00     0.207 HD
HETATM   11  N4  UNL     1      23.522   1.578  18.049  1.00  0.00    -0.213 N 
ATOM     12  H4  UNL     1      23.570   1.366  17.053  1.00  0.00     0.210 HD
HETATM   13  N5  UNL     1      24.126   2.596  18.628  1.00  0.00    -0.211 N 
ATOM     14  H5  UNL     1      24.713   3.298  18.179  1.00  0.00     0.210 HD
HETATM   15  N6  UNL     1      23.816   2.519  19.912  1.00  0.00    -0.102 N 
HETATM   16  C9  UNL     1      24.156   3.326  21.065  1.00  0.00     0.134 C 
HETATM   17  C10 UNL     1      24.672   4.683  20.721  1.00  0.00     0.028 C 
HETATM   18  C11 UNL     1      23.709   5.446  19.895  1.00  0.00     0.002 C 
HETATM   19  C12 UNL     1      22.277   5.129  20.060  1.00  0.00     0.001 C 
HETATM   20  C13 UNL     1      21.882   4.380  21.271  1.00  0.00     0.009 C 
HETATM   21  C14 UNL     1      22.918   3.563  21.936  1.00  0.00     0.040 C 
ENDROOT
BRANCH   1  22
HETATM   22  C2  UNL     1      21.079   2.229  23.028  1.00  0.00     0.028 C 
HETATM   23  C1  UNL     1      21.065   2.376  24.522  1.00  0.00     0.007 C 
ENDBRANCH   1  22
BRANCH   3  24
HETATM   24  O1  UNL     1      24.571   0.039  24.556  1.00  0.00    -0.368 OA
ATOM     25  H1  UNL     1      25.230  -0.609  24.334  1.00  0.00     0.212 HD
ENDBRANCH   3  24
TORSDOF 2
ENDMDL
