MODEL 1
REMARK VINA RESULT: -7.899232971      0.000      0.000
REMARK  1 active torsions:
REMARK  status: ('A' for Active; 'I' for Inactive)
REMARK    1  A    between atoms: C6_7  and  C7_8 
ROOT
HETATM    1  C7  UNL     1      25.207   3.967  17.636  1.00  0.00     0.145 C 
HETATM    2  N1  UNL     1      24.286   4.624  18.260  1.00  0.00    -0.287 N 
ATOM      3  H1  UNL     1      23.898   4.253  19.128  1.00  0.00     0.188 HD
HETATM    4  N2  UNL     1      23.818   5.843  17.755  1.00  0.00    -0.298 N 
ATOM      5  H2  UNL     1      23.092   6.346  18.265  1.00  0.00     0.183 HD
HETATM    6  C8  UNL     1      24.340   6.406  16.525  1.00  0.00     0.174 C 
HETATM    7  C9  UNL     1      25.231   7.585  16.842  1.00  0.00     0.065 C 
HETATM    8  C10 UNL     1      24.440   8.829  16.537  1.00  0.00     0.005 C 
HETATM    9  C11 UNL     1      23.565   8.405  15.391  1.00  0.00     0.005 C 
HETATM   10  C12 UNL     1      23.150   7.008  15.785  1.00  0.00     0.065 C 
HETATM   11  O2  UNL     1      24.995   5.470  15.744  1.00  0.00    -0.245 OA
HETATM   12  N3  UNL     1      25.684   4.566  16.434  1.00  0.00    -0.248 N 
ATOM     13  H3  UNL     1      26.601   4.288  16.086  1.00  0.00     0.196 HD
ENDROOT
BRANCH   1  14
HETATM   14  C6  UNL     1      25.731   2.671  18.139  1.00  0.00     0.195 C 
HETATM   15  O1  UNL     1      24.766   1.700  17.950  1.00  0.00    -0.370 OA
HETATM   16  C5  UNL     1      25.427   0.495  18.124  1.00  0.00     0.154 C 
HETATM   17  C4  UNL     1      24.868  -0.603  17.253  1.00  0.00     0.071 C 
HETATM   18  C14 UNL     1      26.832   0.656  17.656  1.00  0.00     0.154 C 
HETATM   19  C2  UNL     1      26.075  -1.117  16.530  1.00  0.00     0.057 C 
HETATM   20  C1  UNL     1      26.494  -2.422  17.148  1.00  0.00     0.045 C 
HETATM   21  C3  UNL     1      25.703  -1.333  15.073  1.00  0.00     0.045 C 
HETATM   22  O3  UNL     1      27.045  -0.143  16.569  1.00  0.00    -0.373 OA
HETATM   23  C13 UNL     1      26.877   2.149  17.309  1.00  0.00     0.074 C 
ENDBRANCH   1  14
TORSDOF 1
ENDMDL
MODEL 2
REMARK VINA RESULT: -7.883994079      2.896      3.746
REMARK  1 active torsions:
REMARK  status: ('A' for Active; 'I' for Inactive)
REMARK    1  A    between atoms: C6_7  and  C7_8 
ROOT
HETATM    1  C7  UNL     1      24.346   4.386  18.519  1.00  0.00     0.145 C 
HETATM    2  N1  UNL     1      23.864   5.380  19.189  1.00  0.00    -0.287 N 
ATOM      3  H1  UNL     1      23.680   5.277  20.188  1.00  0.00     0.188 HD
HETATM    4  N2  UNL     1      23.593   6.598  18.556  1.00  0.00    -0.298 N 
ATOM      5  H2  UNL     1      23.214   7.371  19.104  1.00  0.00     0.183 HD
HETATM    6  C8  UNL     1      23.838   6.788  17.139  1.00  0.00     0.174 C 
HETATM    7  C9  UNL     1      25.055   7.663  16.945  1.00  0.00     0.065 C 
HETATM    8  C10 UNL     1      24.557   9.034  16.574  1.00  0.00     0.005 C 
HETATM    9  C11 UNL     1      23.293   8.745  15.814  1.00  0.00     0.005 C 
HETATM   10  C12 UNL     1      22.675   7.618  16.605  1.00  0.00     0.065 C 
HETATM   11  O2  UNL     1      23.957   5.593  16.452  1.00  0.00    -0.245 OA
HETATM   12  N3  UNL     1      24.568   4.628  17.133  1.00  0.00    -0.248 N 
ATOM     13  H3  UNL     1      25.230   4.031  16.638  1.00  0.00     0.196 HD
ENDROOT
BRANCH   1  14
HETATM   14  C6  UNL     1      24.648   3.077  19.156  1.00  0.00     0.195 C 
HETATM   15  O1  UNL     1      24.396   3.176  20.511  1.00  0.00    -0.370 OA
HETATM   16  C5  UNL     1      24.374   1.869  20.971  1.00  0.00     0.154 C 
HETATM   17  C4  UNL     1      23.406   1.672  22.111  1.00  0.00     0.071 C 
HETATM   18  C14 UNL     1      23.845   0.997  19.885  1.00  0.00     0.154 C 
HETATM   19  C2  UNL     1      22.551   0.536  21.645  1.00  0.00     0.057 C 
HETATM   20  C1  UNL     1      22.971  -0.717  22.364  1.00  0.00     0.045 C 
HETATM   21  C3  UNL     1      21.104   0.858  21.975  1.00  0.00     0.045 C 
HETATM   22  O3  UNL     1      22.655   0.454  20.275  1.00  0.00    -0.373 OA
HETATM   23  C13 UNL     1      23.689   1.994  18.730  1.00  0.00     0.074 C 
ENDBRANCH   1  14
TORSDOF 1
ENDMDL
MODEL 3
REMARK VINA RESULT: -7.878984435      2.727      3.807
REMARK  1 active torsions:
REMARK  status: ('A' for Active; 'I' for Inactive)
REMARK    1  A    between atoms: C6_7  and  C7_8 
ROOT
HETATM    1  C7  UNL     1      24.771   4.309  18.122  1.00  0.00     0.145 C 
HETATM    2  N1  UNL     1      25.500   4.681  17.121  1.00  0.00    -0.287 N 
ATOM      3  H1  UNL     1      26.223   4.057  16.762  1.00  0.00     0.188 HD
HETATM    4  N2  UNL     1      25.304   5.933  16.527  1.00  0.00    -0.298 N 
ATOM      5  H2  UNL     1      25.889   6.205  15.737  1.00  0.00     0.183 HD
HETATM    6  C8  UNL     1      24.288   6.850  17.007  1.00  0.00     0.174 C 
HETATM    7  C9  UNL     1      23.136   6.891  16.030  1.00  0.00     0.065 C 
HETATM    8  C10 UNL     1      23.268   8.171  15.247  1.00  0.00     0.005 C 
HETATM    9  C11 UNL     1      23.888   9.115  16.237  1.00  0.00     0.005 C 
HETATM   10  C12 UNL     1      24.900   8.246  16.943  1.00  0.00     0.065 C 
HETATM   11  O2  UNL     1      23.858   6.550  18.287  1.00  0.00    -0.245 OA
HETATM   12  N3  UNL     1      23.790   5.248  18.551  1.00  0.00    -0.248 N 
ATOM     13  H3  UNL     1      22.993   4.905  19.088  1.00  0.00     0.196 HD
ENDROOT
BRANCH   1  14
HETATM   14  C6  UNL     1      24.948   2.988  18.780  1.00  0.00     0.195 C 
HETATM   15  O1  UNL     1      24.754   3.141  20.139  1.00  0.00    -0.370 OA
HETATM   16  C5  UNL     1      24.605   1.855  20.630  1.00  0.00     0.154 C 
HETATM   17  C4  UNL     1      23.660   1.789  21.805  1.00  0.00     0.071 C 
HETATM   18  C14 UNL     1      23.947   1.025  19.583  1.00  0.00     0.154 C 
HETATM   19  C2  UNL     1      22.670   0.744  21.392  1.00  0.00     0.057 C 
HETATM   20  C1  UNL     1      22.974  -0.532  22.128  1.00  0.00     0.045 C 
HETATM   21  C3  UNL     1      21.279   1.231  21.760  1.00  0.00     0.045 C 
HETATM   22  O3  UNL     1      22.718   0.624  20.023  1.00  0.00    -0.373 OA
HETATM   23  C13 UNL     1      23.863   2.008  18.409  1.00  0.00     0.074 C 
ENDBRANCH   1  14
TORSDOF 1
ENDMDL
MODEL 4
REMARK VINA RESULT: -7.829045238      1.001      1.536
REMARK  1 active torsions:
REMARK  status: ('A' for Active; 'I' for Inactive)
REMARK    1  A    between atoms: C6_7  and  C7_8 
ROOT
HETATM    1  C7  UNL     1      25.103   4.471  17.827  1.00  0.00     0.145 C 
HETATM    2  N1  UNL     1      25.785   5.032  16.883  1.00  0.00    -0.287 N 
ATOM      3  H1  UNL     1      26.610   4.565  16.507  1.00  0.00     0.188 HD
HETATM    4  N2  UNL     1      25.399   6.278  16.374  1.00  0.00    -0.298 N 
ATOM      5  H2  UNL     1      25.950   6.702  15.628  1.00  0.00     0.183 HD
HETATM    6  C8  UNL     1      24.235   6.977  16.882  1.00  0.00     0.174 C 
HETATM    7  C9  UNL     1      23.115   6.906  15.869  1.00  0.00     0.065 C 
HETATM    8  C10 UNL     1      23.053   8.247  15.186  1.00  0.00     0.005 C 
HETATM    9  C11 UNL     1      23.484   9.200  16.264  1.00  0.00     0.005 C 
HETATM   10  C12 UNL     1      24.609   8.455  16.942  1.00  0.00     0.065 C 
HETATM   11  O2  UNL     1      23.829   6.513  18.121  1.00  0.00    -0.245 OA
HETATM   12  N3  UNL     1      23.970   5.201  18.287  1.00  0.00    -0.248 N 
ATOM     13  H3  UNL     1      23.229   4.692  18.768  1.00  0.00     0.196 HD
ENDROOT
BRANCH   1  14
HETATM   14  C6  UNL     1      25.480   3.149  18.393  1.00  0.00     0.195 C 
HETATM   15  O1  UNL     1      24.427   2.273  18.212  1.00  0.00    -0.370 OA
HETATM   16  C5  UNL     1      24.959   1.016  18.450  1.00  0.00     0.154 C 
HETATM   17  C4  UNL     1      24.314  -0.055  17.604  1.00  0.00     0.071 C 
HETATM   18  C14 UNL     1      26.384   1.017  18.018  1.00  0.00     0.154 C 
HETATM   19  C2  UNL     1      25.481  -0.714  16.936  1.00  0.00     0.057 C 
HETATM   20  C1  UNL     1      25.750  -2.030  17.615  1.00  0.00     0.045 C 
HETATM   21  C3  UNL     1      25.128  -0.950  15.478  1.00  0.00     0.045 C 
HETATM   22  O3  UNL     1      26.544   0.159  16.968  1.00  0.00    -0.373 OA
HETATM   23  C13 UNL     1      26.589   2.483  17.618  1.00  0.00     0.074 C 
ENDBRANCH   1  14
TORSDOF 1
ENDMDL
MODEL 5
REMARK VINA RESULT: -7.586684671      1.752      7.353
REMARK  1 active torsions:
REMARK  status: ('A' for Active; 'I' for Inactive)
REMARK    1  A    between atoms: C6_7  and  C7_8 
ROOT
HETATM    1  C7  UNL     1      25.212   3.736  16.908  1.00  0.00     0.145 C 
HETATM    2  N1  UNL     1      24.168   2.984  16.781  1.00  0.00    -0.287 N 
ATOM      3  H1  UNL     1      23.335   3.348  16.317  1.00  0.00     0.188 HD
HETATM    4  N2  UNL     1      24.173   1.675  17.275  1.00  0.00    -0.298 N 
ATOM      5  H2  UNL     1      23.340   1.098  17.163  1.00  0.00     0.183 HD
HETATM    6  C8  UNL     1      25.335   1.120  17.942  1.00  0.00     0.174 C 
HETATM    7  C9  UNL     1      26.017   0.123  17.033  1.00  0.00     0.065 C 
HETATM    8  C10 UNL     1      25.647  -1.250  17.529  1.00  0.00     0.005 C 
HETATM    9  C11 UNL     1      25.504  -1.051  19.011  1.00  0.00     0.005 C 
HETATM   10  C12 UNL     1      24.808   0.285  19.106  1.00  0.00     0.065 C 
HETATM   11  O2  UNL     1      26.215   2.092  18.381  1.00  0.00    -0.245 OA
HETATM   12  N3  UNL     1      26.323   3.140  17.570  1.00  0.00    -0.248 N 
ATOM     13  H3  UNL     1      27.249   3.537  17.413  1.00  0.00     0.196 HD
ENDROOT
BRANCH   1  14
HETATM   14  C6  UNL     1      25.246   5.131  16.397  1.00  0.00     0.195 C 
HETATM   15  O1  UNL     1      24.024   5.422  15.819  1.00  0.00    -0.370 OA
HETATM   16  C5  UNL     1      24.012   6.799  15.673  1.00  0.00     0.154 C 
HETATM   17  C4  UNL     1      22.630   7.385  15.826  1.00  0.00     0.071 C 
HETATM   18  C14 UNL     1      24.791   7.398  16.792  1.00  0.00     0.154 C 
HETATM   19  C2  UNL     1      22.815   8.435  16.877  1.00  0.00     0.057 C 
HETATM   20  C1  UNL     1      22.837   9.786  16.217  1.00  0.00     0.045 C 
HETATM   21  C3  UNL     1      21.648   8.354  17.845  1.00  0.00     0.045 C 
HETATM   22  O3  UNL     1      23.959   8.138  17.582  1.00  0.00    -0.373 OA
HETATM   23  C13 UNL     1      25.327   6.151  17.505  1.00  0.00     0.074 C 
ENDBRANCH   1  14
TORSDOF 1
ENDMDL
