MODEL 1
REMARK VINA RESULT: -8.017812580      0.000      0.000
REMARK  1 active torsions:
REMARK  status: ('A' for Active; 'I' for Inactive)
REMARK    1  A    between atoms: C8_16  and  C9_17 
ROOT
HETATM    1  C1  UNL     1      24.591   3.498  20.952  1.00  0.00     0.160 C 
HETATM    2  N1  UNL     1      25.190   3.490  19.635  1.00  0.00    -0.312 N 
HETATM    3  C2  UNL     1      25.857   2.403  19.209  1.00  0.00     0.180 A 
HETATM    4  S1  UNL     1      26.030   1.060  20.121  1.00  0.00    -0.040 SA
HETATM    5  N2  UNL     1      26.408   2.423  17.973  1.00  0.00    -0.322 N 
ATOM      6  H2  UNL     1      26.913   1.596  17.654  1.00  0.00     0.169 HD
HETATM    7  C3  UNL     1      26.324   3.460  17.157  1.00  0.00     0.134 A 
HETATM    8  S2  UNL     1      26.992   3.485  15.656  1.00  0.00    -0.058 SA
HETATM    9  C4  UNL     1      25.645   4.596  17.562  1.00  0.00     0.120 A 
HETATM   10  C5  UNL     1      25.084   4.579  18.819  1.00  0.00     0.142 A 
HETATM   11  N3  UNL     1      24.499   5.780  18.956  1.00  0.00    -0.312 N 
ATOM     12  H3  UNL     1      23.990   6.085  19.786  1.00  0.00     0.170 HD
HETATM   13  C6  UNL     1      24.674   6.527  17.849  1.00  0.00     0.184 A 
HETATM   14  N4  UNL     1      25.384   5.785  16.993  1.00  0.00    -0.311 N 
HETATM   15  C7  UNL     1      25.602   6.553  15.776  1.00  0.00     0.158 C 
HETATM   16  C8  UNL     1      24.429   7.508  15.815  1.00  0.00     0.107 C 
HETATM   17  N5  UNL     1      24.388   7.808  17.241  1.00  0.00    -0.355 N 
ATOM     18  H5  UNL     1      24.203   8.701  17.698  1.00  0.00     0.163 HD
ENDROOT
BRANCH  16  19
HETATM   19  C9  UNL     1      24.659   8.732  14.986  1.00  0.00     0.010 A 
HETATM   20  C10 UNL     1      23.634   9.772  14.869  1.00  0.00     0.007 A 
HETATM   21  C11 UNL     1      23.805   8.805  13.732  1.00  0.00     0.007 A 
ENDBRANCH  16  19
TORSDOF 1
ENDMDL
MODEL 2
REMARK VINA RESULT: -7.276756245      1.920      2.162
REMARK  1 active torsions:
REMARK  status: ('A' for Active; 'I' for Inactive)
REMARK    1  A    between atoms: C8_16  and  C9_17 
ROOT
HETATM    1  C1  UNL     1      22.647   3.231  21.008  1.00  0.00     0.160 C 
HETATM    2  N1  UNL     1      23.349   2.753  19.836  1.00  0.00    -0.312 N 
HETATM    3  C2  UNL     1      23.431   1.433  19.595  1.00  0.00     0.180 A 
HETATM    4  S1  UNL     1      22.764   0.313  20.580  1.00  0.00    -0.040 SA
HETATM    5  N2  UNL     1      24.093   1.015  18.492  1.00  0.00    -0.322 N 
ATOM      6  H2  UNL     1      24.153   0.012  18.314  1.00  0.00     0.169 HD
HETATM    7  C3  UNL     1      24.667   1.840  17.632  1.00  0.00     0.134 A 
HETATM    8  S2  UNL     1      25.471   1.333  16.293  1.00  0.00    -0.058 SA
HETATM    9  C4  UNL     1      24.602   3.206  17.849  1.00  0.00     0.120 A 
HETATM   10  C5  UNL     1      23.930   3.633  18.970  1.00  0.00     0.142 A 
HETATM   11  N3  UNL     1      24.018   4.973  18.939  1.00  0.00    -0.312 N 
ATOM     12  H3  UNL     1      23.616   5.597  19.639  1.00  0.00     0.170 HD
HETATM   13  C6  UNL     1      24.708   5.383  17.858  1.00  0.00     0.184 A 
HETATM   14  N4  UNL     1      25.065   4.281  17.190  1.00  0.00    -0.311 N 
HETATM   15  C7  UNL     1      25.819   4.673  16.008  1.00  0.00     0.158 C 
HETATM   16  C8  UNL     1      25.298   6.074  15.775  1.00  0.00     0.107 C 
HETATM   17  N5  UNL     1      25.202   6.545  17.152  1.00  0.00    -0.355 N 
ATOM     18  H5  UNL     1      25.428   7.467  17.525  1.00  0.00     0.163 HD
ENDROOT
BRANCH  16  19
HETATM   19  C9  UNL     1      26.234   6.905  14.957  1.00  0.00     0.010 A 
HETATM   20  C10 UNL     1      26.149   8.367  14.958  1.00  0.00     0.007 A 
HETATM   21  C11 UNL     1      25.577   7.618  13.789  1.00  0.00     0.007 A 
ENDBRANCH  16  19
TORSDOF 1
ENDMDL
MODEL 3
REMARK VINA RESULT: -7.147047123      1.825      2.717
REMARK  1 active torsions:
REMARK  status: ('A' for Active; 'I' for Inactive)
REMARK    1  A    between atoms: C8_16  and  C9_17 
ROOT
HETATM    1  C1  UNL     1      26.147   0.808  16.299  1.00  0.00     0.160 C 
HETATM    2  N1  UNL     1      25.855   2.002  17.062  1.00  0.00    -0.312 N 
HETATM    3  C2  UNL     1      25.695   1.923  18.395  1.00  0.00     0.180 A 
HETATM    4  S1  UNL     1      25.816   0.517  19.217  1.00  0.00    -0.040 SA
HETATM    5  N2  UNL     1      25.422   3.055  19.084  1.00  0.00    -0.322 N 
ATOM      6  H2  UNL     1      25.302   2.990  20.095  1.00  0.00     0.169 HD
HETATM    7  C3  UNL     1      25.305   4.242  18.514  1.00  0.00     0.134 A 
HETATM    8  S2  UNL     1      24.974   5.617  19.349  1.00  0.00    -0.058 SA
HETATM    9  C4  UNL     1      25.462   4.361  17.143  1.00  0.00     0.120 A 
HETATM   10  C5  UNL     1      25.740   3.210  16.440  1.00  0.00     0.142 A 
HETATM   11  N3  UNL     1      25.842   3.602  15.160  1.00  0.00    -0.312 N 
ATOM     12  H3  UNL     1      26.044   2.978  14.378  1.00  0.00     0.170 HD
HETATM   13  C6  UNL     1      25.641   4.928  15.046  1.00  0.00     0.184 A 
HETATM   14  N4  UNL     1      25.408   5.388  16.280  1.00  0.00    -0.311 N 
HETATM   15  C7  UNL     1      25.182   6.824  16.209  1.00  0.00     0.158 C 
HETATM   16  C8  UNL     1      25.928   7.180  14.942  1.00  0.00     0.107 C 
HETATM   17  N5  UNL     1      25.585   6.031  14.112  1.00  0.00    -0.355 N 
ATOM     18  H5  UNL     1      25.362   6.010  13.116  1.00  0.00     0.163 HD
ENDROOT
BRANCH  16  19
HETATM   19  C9  UNL     1      25.460   8.469  14.344  1.00  0.00     0.010 A 
HETATM   20  C10 UNL     1      24.132   9.007  14.645  1.00  0.00     0.007 A 
HETATM   21  C11 UNL     1      24.342   8.316  13.329  1.00  0.00     0.007 A 
ENDBRANCH  16  19
TORSDOF 1
ENDMDL
MODEL 4
REMARK VINA RESULT: -6.923773908      1.263      1.490
REMARK  1 active torsions:
REMARK  status: ('A' for Active; 'I' for Inactive)
REMARK    1  A    between atoms: C8_16  and  C9_17 
ROOT
HETATM    1  C1  UNL     1      23.757   5.492  21.361  1.00  0.00     0.160 C 
HETATM    2  N1  UNL     1      24.437   4.969  20.197  1.00  0.00    -0.312 N 
HETATM    3  C2  UNL     1      24.984   3.741  20.236  1.00  0.00     0.180 A 
HETATM    4  S1  UNL     1      24.920   2.788  21.561  1.00  0.00    -0.040 SA
HETATM    5  N2  UNL     1      25.615   3.276  19.133  1.00  0.00    -0.322 N 
ATOM      6  H2  UNL     1      26.029   2.344  19.168  1.00  0.00     0.169 HD
HETATM    7  C3  UNL     1      25.722   3.968  18.011  1.00  0.00     0.134 A 
HETATM    8  S2  UNL     1      26.487   3.405  16.671  1.00  0.00    -0.058 SA
HETATM    9  C4  UNL     1      25.170   5.236  17.935  1.00  0.00     0.120 A 
HETATM   10  C5  UNL     1      24.529   5.711  19.056  1.00  0.00     0.142 A 
HETATM   11  N3  UNL     1      24.096   6.936  18.716  1.00  0.00    -0.312 N 
ATOM     12  H3  UNL     1      23.577   7.559  19.334  1.00  0.00     0.170 HD
HETATM   13  C6  UNL     1      24.441   7.231  17.448  1.00  0.00     0.184 A 
HETATM   14  N4  UNL     1      25.105   6.172  16.974  1.00  0.00    -0.311 N 
HETATM   15  C7  UNL     1      25.502   6.445  15.601  1.00  0.00     0.158 C 
HETATM   16  C8  UNL     1      24.463   7.464  15.188  1.00  0.00     0.107 C 
HETATM   17  N5  UNL     1      24.365   8.243  16.417  1.00  0.00    -0.355 N 
ATOM     18  H5  UNL     1      24.268   9.253  16.523  1.00  0.00     0.163 HD
ENDROOT
BRANCH  16  19
HETATM   19  C9  UNL     1      24.905   8.295  14.025  1.00  0.00     0.010 A 
HETATM   20  C10 UNL     1      23.992   8.601  12.922  1.00  0.00     0.007 A 
HETATM   21  C11 UNL     1      25.023   7.528  12.721  1.00  0.00     0.007 A 
ENDBRANCH  16  19
TORSDOF 1
ENDMDL
MODEL 5
REMARK VINA RESULT: -6.810154816      2.827      6.460
REMARK  1 active torsions:
REMARK  status: ('A' for Active; 'I' for Inactive)
REMARK    1  A    between atoms: C8_16  and  C9_17 
ROOT
HETATM    1  C1  UNL     1      24.180   8.449  13.291  1.00  0.00     0.160 C 
HETATM    2  N1  UNL     1      24.229   8.057  14.683  1.00  0.00    -0.312 N 
HETATM    3  C2  UNL     1      23.816   8.912  15.635  1.00  0.00     0.180 A 
HETATM    4  S1  UNL     1      23.251  10.406  15.295  1.00  0.00    -0.040 SA
HETATM    5  N2  UNL     1      23.873   8.519  16.929  1.00  0.00    -0.322 N 
ATOM      6  H2  UNL     1      23.559   9.172  17.648  1.00  0.00     0.169 HD
HETATM    7  C3  UNL     1      24.313   7.332  17.309  1.00  0.00     0.134 A 
HETATM    8  S2  UNL     1      24.383   6.854  18.879  1.00  0.00    -0.058 SA
HETATM    9  C4  UNL     1      24.746   6.426  16.355  1.00  0.00     0.120 A 
HETATM   10  C5  UNL     1      24.689   6.823  15.039  1.00  0.00     0.142 A 
HETATM   11  N3  UNL     1      25.158   5.777  14.340  1.00  0.00    -0.312 N 
ATOM     12  H3  UNL     1      25.246   5.752  13.324  1.00  0.00     0.170 HD
HETATM   13  C6  UNL     1      25.497   4.765  15.160  1.00  0.00     0.184 A 
HETATM   14  N4  UNL     1      25.237   5.177  16.405  1.00  0.00    -0.311 N 
HETATM   15  C7  UNL     1      25.590   4.113  17.334  1.00  0.00     0.158 C 
HETATM   16  C8  UNL     1      25.466   2.893  16.448  1.00  0.00     0.107 C 
HETATM   17  N5  UNL     1      26.025   3.419  15.207  1.00  0.00    -0.355 N 
ATOM     18  H5  UNL     1      26.637   2.952  14.538  1.00  0.00     0.163 HD
ENDROOT
BRANCH  16  19
HETATM   19  C9  UNL     1      26.244   1.725  16.968  1.00  0.00     0.010 A 
HETATM   20  C10 UNL     1      26.133   0.403  16.347  1.00  0.00     0.007 A 
HETATM   21  C11 UNL     1      25.394   0.656  17.631  1.00  0.00     0.007 A 
ENDBRANCH  16  19
TORSDOF 1
ENDMDL
