MODEL 1
REMARK VINA RESULT: -6.403111211      0.000      0.000
REMARK  0 active torsions:
REMARK  status: ('A' for Active; 'I' for Inactive)
ROOT
HETATM    1  C1  UNL     1      24.778  -1.114  16.999  1.00  0.00     0.113 A 
HETATM    2  S1  UNL     1      25.508  -0.679  15.558  1.00  0.00    -0.128 SA
HETATM    3  C2  UNL     1      27.059  -0.165  16.185  1.00  0.00    -0.002 A 
HETATM    4  C3  UNL     1      26.945  -0.356  17.523  1.00  0.00     0.019 A 
HETATM    5  C4  UNL     1      25.770  -0.849  17.984  1.00  0.00    -0.068 A 
HETATM    6  C5  UNL     1      25.345  -1.169  19.417  1.00  0.00     0.062 C 
HETATM    7  C6  UNL     1      23.951  -0.611  19.700  1.00  0.00     0.236 C 
HETATM    8  N1  UNL     1      23.722   0.635  19.006  1.00  0.00    -0.075 N 
ATOM      9  H11 UNL     1      22.723   0.821  18.930  1.00  0.00     0.277 HD
ATOM     10  H12 UNL     1      23.958   0.539  18.017  1.00  0.00     0.277 HD
HETATM   11  C7  UNL     1      24.397   1.760  19.572  1.00  0.00     0.233 C 
HETATM   12  C8  UNL     1      23.748   3.026  19.054  1.00  0.00     0.055 C 
HETATM   13  C9  UNL     1      24.804   4.103  18.792  1.00  0.00     0.234 C 
HETATM   14  N2  UNL     1      24.487   4.781  17.550  1.00  0.00    -0.073 N 
ATOM     15  H21 UNL     1      24.269   5.764  17.719  1.00  0.00     0.277 HD
ATOM     16  H22 UNL     1      23.586   4.470  17.186  1.00  0.00     0.277 HD
HETATM   17  C10 UNL     1      25.513   4.649  16.554  1.00  0.00     0.253 C 
HETATM   18  C11 UNL     1      25.247   3.462  15.646  1.00  0.00     0.168 C 
HETATM   19  N3  UNL     1      26.317   2.500  15.776  1.00  0.00    -0.321 N 
ATOM     20  H3  UNL     1      26.145   1.630  16.280  1.00  0.00     0.181 HD
HETATM   21  N4  UNL     1      27.479   2.714  15.272  1.00  0.00    -0.251 N 
ATOM     22  H4  UNL     1      27.675   3.576  14.764  1.00  0.00     0.207 HD
HETATM   23  N5  UNL     1      28.470   1.741  15.434  1.00  0.00    -0.318 N 
ATOM     24  H5  UNL     1      29.424   2.029  15.647  1.00  0.00     0.182 HD
HETATM   25  C12 UNL     1      28.168   0.356  15.306  1.00  0.00     0.186 C 
ENDROOT
TORSDOF 0
ENDMDL
MODEL 2
REMARK VINA RESULT: -6.349769068      2.953      5.327
REMARK  0 active torsions:
REMARK  status: ('A' for Active; 'I' for Inactive)
ROOT
HETATM    1  C1  UNL     1      25.669   4.218  19.476  1.00  0.00     0.113 A 
HETATM    2  S1  UNL     1      26.254   2.846  18.719  1.00  0.00    -0.128 SA
HETATM    3  C2  UNL     1      24.967   2.607  17.557  1.00  0.00    -0.002 A 
HETATM    4  C3  UNL     1      24.112   3.630  17.810  1.00  0.00     0.019 A 
HETATM    5  C4  UNL     1      24.444   4.489  18.804  1.00  0.00    -0.068 A 
HETATM    6  C5  UNL     1      23.696   5.720  19.315  1.00  0.00     0.062 C 
HETATM    7  C6  UNL     1      23.638   5.715  20.842  1.00  0.00     0.236 C 
HETATM    8  N1  UNL     1      23.526   4.374  21.369  1.00  0.00    -0.075 N 
ATOM      9  H11 UNL     1      23.815   4.352  22.347  1.00  0.00     0.277 HD
ATOM     10  H12 UNL     1      24.242   3.772  20.962  1.00  0.00     0.277 HD
HETATM   11  C7  UNL     1      22.233   3.786  21.218  1.00  0.00     0.233 C 
HETATM   12  C8  UNL     1      22.120   2.612  22.169  1.00  0.00     0.055 C 
HETATM   13  C9  UNL     1      21.346   1.464  21.517  1.00  0.00     0.234 C 
HETATM   14  N2  UNL     1      21.998   0.211  21.845  1.00  0.00    -0.073 N 
ATOM     15  H21 UNL     1      21.386  -0.380  22.408  1.00  0.00     0.277 HD
ATOM     16  H22 UNL     1      22.753   0.359  22.515  1.00  0.00     0.277 HD
HETATM   17  C10 UNL     1      22.473  -0.500  20.691  1.00  0.00     0.253 C 
HETATM   18  C11 UNL     1      23.919  -0.152  20.388  1.00  0.00     0.168 C 
HETATM   19  N3  UNL     1      24.007   0.474  19.089  1.00  0.00    -0.321 N 
ATOM     20  H3  UNL     1      24.183   1.477  19.032  1.00  0.00     0.181 HD
HETATM   21  N4  UNL     1      23.870  -0.202  18.005  1.00  0.00    -0.251 N 
ATOM     22  H4  UNL     1      23.694  -1.206  18.037  1.00  0.00     0.207 HD
HETATM   23  N5  UNL     1      23.967   0.466  16.782  1.00  0.00    -0.318 N 
ATOM     24  H5  UNL     1      23.321   0.230  16.029  1.00  0.00     0.182 HD
HETATM   25  C12 UNL     1      24.954   1.470  16.568  1.00  0.00     0.186 C 
ENDROOT
TORSDOF 0
ENDMDL
MODEL 3
REMARK VINA RESULT: -6.118931153      1.912      4.308
REMARK  0 active torsions:
REMARK  status: ('A' for Active; 'I' for Inactive)
ROOT
HETATM    1  C1  UNL     1      25.563   2.092  19.394  1.00  0.00     0.113 A 
HETATM    2  S1  UNL     1      26.169   3.496  18.716  1.00  0.00    -0.128 SA
HETATM    3  C2  UNL     1      25.225   3.515  17.242  1.00  0.00    -0.002 A 
HETATM    4  C3  UNL     1      24.456   2.401  17.339  1.00  0.00     0.019 A 
HETATM    5  C4  UNL     1      24.605   1.635  18.446  1.00  0.00    -0.068 A 
HETATM    6  C5  UNL     1      23.891   0.341  18.837  1.00  0.00     0.062 C 
HETATM    7  C6  UNL     1      24.897  -0.698  19.331  1.00  0.00     0.236 C 
HETATM    8  N1  UNL     1      26.154  -0.602  18.627  1.00  0.00    -0.075 N 
ATOM      9  H11 UNL     1      26.897  -1.048  19.164  1.00  0.00     0.277 HD
ATOM     10  H12 UNL     1      26.491   0.361  18.630  1.00  0.00     0.277 HD
HETATM   11  C7  UNL     1      26.126  -1.116  17.294  1.00  0.00     0.233 C 
HETATM   12  C8  UNL     1      27.549  -1.364  16.840  1.00  0.00     0.055 C 
HETATM   13  C9  UNL     1      27.714  -0.998  15.363  1.00  0.00     0.234 C 
HETATM   14  N2  UNL     1      28.978  -0.310  15.186  1.00  0.00    -0.073 N 
ATOM     15  H21 UNL     1      29.606  -0.851  14.591  1.00  0.00     0.277 HD
ATOM     16  H22 UNL     1      29.519  -0.317  16.051  1.00  0.00     0.277 HD
HETATM   17  C10 UNL     1      28.830   1.029  14.688  1.00  0.00     0.253 C 
HETATM   18  C11 UNL     1      28.763   2.034  15.824  1.00  0.00     0.168 C 
HETATM   19  N3  UNL     1      27.484   2.704  15.808  1.00  0.00    -0.321 N 
ATOM     20  H3  UNL     1      26.791   2.471  16.520  1.00  0.00     0.181 HD
HETATM   21  N4  UNL     1      27.197   3.586  14.919  1.00  0.00    -0.251 N 
ATOM     22  H4  UNL     1      27.873   3.836  14.197  1.00  0.00     0.207 HD
HETATM   23  N5  UNL     1      25.941   4.197  14.960  1.00  0.00    -0.318 N 
ATOM     24  H5  UNL     1      25.435   4.361  14.090  1.00  0.00     0.182 HD
HETATM   25  C12 UNL     1      25.356   4.592  16.196  1.00  0.00     0.186 C 
ENDROOT
TORSDOF 0
ENDMDL
MODEL 4
REMARK VINA RESULT: -5.981257934      3.086      5.744
REMARK  0 active torsions:
REMARK  status: ('A' for Active; 'I' for Inactive)
ROOT
HETATM    1  C1  UNL     1      25.779   0.907  19.654  1.00  0.00     0.113 A 
HETATM    2  S1  UNL     1      25.000   0.045  20.857  1.00  0.00    -0.128 SA
HETATM    3  C2  UNL     1      23.389   0.021  20.173  1.00  0.00    -0.002 A 
HETATM    4  C3  UNL     1      23.525   0.702  19.007  1.00  0.00     0.019 A 
HETATM    5  C4  UNL     1      24.756   1.179  18.704  1.00  0.00    -0.068 A 
HETATM    6  C5  UNL     1      25.217   1.972  17.480  1.00  0.00     0.062 C 
HETATM    7  C6  UNL     1      26.072   3.164  17.906  1.00  0.00     0.236 C 
HETATM    8  N1  UNL     1      25.624   3.723  19.160  1.00  0.00    -0.075 N 
ATOM      9  H11 UNL     1      26.366   4.276  19.588  1.00  0.00     0.277 HD
ATOM     10  H12 UNL     1      25.525   2.989  19.862  1.00  0.00     0.277 HD
HETATM   11  C7  UNL     1      24.422   4.490  19.069  1.00  0.00     0.233 C 
HETATM   12  C8  UNL     1      24.307   5.361  20.303  1.00  0.00     0.055 C 
HETATM   13  C9  UNL     1      22.851   5.448  20.766  1.00  0.00     0.234 C 
HETATM   14  N2  UNL     1      22.810   5.354  22.212  1.00  0.00    -0.073 N 
ATOM     15  H21 UNL     1      22.453   6.218  22.622  1.00  0.00     0.277 HD
ATOM     16  H22 UNL     1      23.752   5.360  22.603  1.00  0.00     0.277 HD
HETATM   17  C10 UNL     1      22.067   4.220  22.686  1.00  0.00     0.253 C 
HETATM   18  C11 UNL     1      22.975   3.026  22.916  1.00  0.00     0.168 C 
HETATM   19  N3  UNL     1      22.591   1.945  22.038  1.00  0.00    -0.321 N 
ATOM     20  H3  UNL     1      23.182   1.721  21.238  1.00  0.00     0.181 HD
HETATM   21  N4  UNL     1      21.523   1.260  22.242  1.00  0.00    -0.251 N 
ATOM     22  H4  UNL     1      20.917   1.466  23.036  1.00  0.00     0.207 HD
HETATM   23  N5  UNL     1      21.210   0.228  21.354  1.00  0.00    -0.318 N 
ATOM     24  H5  UNL     1      20.242   0.096  21.061  1.00  0.00     0.182 HD
HETATM   25  C12 UNL     1      22.218  -0.643  20.852  1.00  0.00     0.186 C 
ENDROOT
TORSDOF 0
ENDMDL
MODEL 5
REMARK VINA RESULT: -5.921072900      3.208      5.801
REMARK  0 active torsions:
REMARK  status: ('A' for Active; 'I' for Inactive)
ROOT
HETATM    1  C1  UNL     1      25.872   1.487  19.169  1.00  0.00     0.113 A 
HETATM    2  S1  UNL     1      25.685   0.291  20.323  1.00  0.00    -0.128 SA
HETATM    3  C2  UNL     1      24.027  -0.156  19.983  1.00  0.00    -0.002 A 
HETATM    4  C3  UNL     1      23.676   0.664  18.960  1.00  0.00     0.019 A 
HETATM    5  C4  UNL     1      24.612   1.534  18.510  1.00  0.00    -0.068 A 
HETATM    6  C5  UNL     1      24.519   2.567  17.387  1.00  0.00     0.062 C 
HETATM    7  C6  UNL     1      25.088   3.909  17.846  1.00  0.00     0.236 C 
HETATM    8  N1  UNL     1      24.825   4.151  19.246  1.00  0.00    -0.075 N 
ATOM      9  H11 UNL     1      25.467   4.854  19.611  1.00  0.00     0.277 HD
ATOM     10  H12 UNL     1      25.110   3.347  19.805  1.00  0.00     0.277 HD
HETATM   11  C7  UNL     1      23.473   4.509  19.540  1.00  0.00     0.233 C 
HETATM   12  C8  UNL     1      23.429   5.150  20.912  1.00  0.00     0.055 C 
HETATM   13  C9  UNL     1      22.167   4.724  21.665  1.00  0.00     0.234 C 
HETATM   14  N2  UNL     1      22.511   4.455  23.047  1.00  0.00    -0.073 N 
ATOM     15  H21 UNL     1      22.041   5.110  23.673  1.00  0.00     0.277 HD
ATOM     16  H22 UNL     1      23.481   4.709  23.236  1.00  0.00     0.277 HD
HETATM   17  C10 UNL     1      22.254   3.098  23.442  1.00  0.00     0.253 C 
HETATM   18  C11 UNL     1      23.485   2.229  23.261  1.00  0.00     0.168 C 
HETATM   19  N3  UNL     1      23.211   1.193  22.293  1.00  0.00    -0.321 N 
ATOM     20  H3  UNL     1      23.625   1.258  21.363  1.00  0.00     0.181 HD
HETATM   21  N4  UNL     1      22.460   0.189  22.576  1.00  0.00    -0.251 N 
ATOM     22  H4  UNL     1      22.036   0.101  23.499  1.00  0.00     0.207 HD
HETATM   23  N5  UNL     1      22.236  -0.779  21.594  1.00  0.00    -0.318 N 
ATOM     24  H5  UNL     1      21.302  -1.172  21.481  1.00  0.00     0.182 HD
HETATM   25  C12 UNL     1      23.291  -1.227  20.748  1.00  0.00     0.186 C 
ENDROOT
TORSDOF 0
ENDMDL
