MODEL 1
REMARK VINA RESULT: -5.787021905      0.000      0.000
REMARK  11 active torsions:
REMARK  status: ('A' for Active; 'I' for Inactive)
REMARK    1  A    between atoms: C2_2  and  C3_3 
REMARK    2  A    between atoms: C3_3  and  C4_4 
REMARK    3  A    between atoms: N1_6  and  C6_7 
REMARK    4  A    between atoms: C7_8  and  C8_9 
REMARK    5  A    between atoms: C8_9  and  O1_11 
REMARK    6  A    between atoms: C8_9  and  O2_13 
REMARK    7  A    between atoms: C10_16  and  C11_17 
REMARK    8  A    between atoms: C15_22  and  S1_23 
REMARK    9  A    between atoms: C17_28  and  C18_29 
REMARK   10  A    between atoms: C18_29  and  C19_30 
REMARK   11  A    between atoms: C21_32  and  C22_33 
ROOT
HETATM    1  C4  UNL     1      -3.091   7.548  -9.498  1.00  0.00    -0.013 A 
HETATM    2  C5  UNL     1      -3.314   8.946  -9.533  1.00  0.00     0.139 A 
HETATM    3  N1  UNL     1      -2.358   9.873  -9.566  1.00  0.00    -0.217 N 
HETATM    4  N2  UNL     1      -1.110   9.518  -9.568  1.00  0.00    -0.257 N 
HETATM    5  C10 UNL     1      -0.166  10.344  -9.628  1.00  0.00     0.129 C 
HETATM    6  C17 UNL     1      -0.790   8.154  -9.532  1.00  0.00     0.042 A 
HETATM    7  C21 UNL     1      -1.767   7.167  -9.502  1.00  0.00    -0.022 A 
ENDROOT
BRANCH   3   8
HETATM    8  C6  UNL     1      -2.811  11.228  -9.604  1.00  0.00     0.039 C 
HETATM    9  C7  UNL     1      -3.213  12.352  -9.574  1.00  0.00    -0.014 C 
BRANCH   9  10
HETATM   10  C8  UNL     1      -3.719  13.729  -9.506  1.00  0.00     0.225 C 
HETATM   11  C9  UNL     1      -3.220  14.385  -8.238  1.00  0.00     0.094 C 
BRANCH  10  12
HETATM   12  O1  UNL     1      -5.090  13.815  -9.670  1.00  0.00    -0.356 OA
ATOM     13  H1  UNL     1      -5.371  13.653 -10.563  1.00  0.00     0.214 HD
ENDBRANCH  10  12
BRANCH  10  14
HETATM   14  O2  UNL     1      -3.159  14.458 -10.584  1.00  0.00    -0.356 OA
ATOM     15  H2  UNL     1      -3.540  15.329 -10.581  1.00  0.00     0.214 HD
ENDBRANCH  10  14
ENDBRANCH   9  10
ENDBRANCH   3   8
BRANCH   5  16
HETATM   16  C11 UNL     1      -0.037  11.770  -9.702  1.00  0.00    -0.017 A 
HETATM   17  C12 UNL     1       0.248  12.544  -8.571  1.00  0.00     0.015 A 
HETATM   18  C13 UNL     1       0.486  13.893  -8.659  1.00  0.00     0.029 A 
HETATM   19  C14 UNL     1       0.443  14.506  -9.911  1.00  0.00     0.070 A 
HETATM   20  N3  UNL     1       0.689  15.890 -10.032  1.00  0.00    -0.101 NA
HETATM   21  C15 UNL     1       0.163  13.770 -11.050  1.00  0.00     0.105 A 
HETATM   22  C16 UNL     1      -0.072  12.420 -10.934  1.00  0.00     0.041 A 
BRANCH  21  23
HETATM   23  S1  UNL     1       0.107  14.484 -12.641  1.00  0.00     0.139 S 
HETATM   24  O3  UNL     1       1.362  15.215 -12.937  1.00  0.00    -0.591 OA
HETATM   25  O4  UNL     1      -1.020  15.478 -12.658  1.00  0.00    -0.591 OA
HETATM   26  O5  UNL     1      -0.152  13.247 -13.748  1.00  0.00    -0.591 OA
ENDBRANCH  21  23
ENDBRANCH   5  16
BRANCH   6  27
HETATM   27  C18 UNL     1       0.622   7.800  -9.466  1.00  0.00     0.059 C 
BRANCH  27  28
HETATM   28  C19 UNL     1       1.149   7.310  -8.153  1.00  0.00     0.002 C 
HETATM   29  C20 UNL     1       1.176   8.476  -7.132  1.00  0.00     0.005 C 
ENDBRANCH  27  28
ENDBRANCH   6  27
BRANCH   7  30
HETATM   30  C22 UNL     1      -1.372   5.753  -9.512  1.00  0.00     0.037 C 
HETATM   31  C23 UNL     1      -1.266   5.137 -10.893  1.00  0.00     0.010 C 
ENDBRANCH   7  30
BRANCH   1  32
HETATM   32  C3  UNL     1      -4.127   6.776  -9.436  1.00  0.00    -0.014 C 
BRANCH  32  33
HETATM   33  C2  UNL     1      -4.986   6.080  -8.534  1.00  0.00     0.023 C 
HETATM   34  C1  UNL     1      -4.916   4.549  -8.701  1.00  0.00     0.009 C 
ENDBRANCH  32  33
ENDBRANCH   1  32
TORSDOF 11
ENDMDL
MODEL 2
REMARK VINA RESULT: -5.301004846      4.985      9.428
REMARK  11 active torsions:
REMARK  status: ('A' for Active; 'I' for Inactive)
REMARK    1  A    between atoms: C2_2  and  C3_3 
REMARK    2  A    between atoms: C3_3  and  C4_4 
REMARK    3  A    between atoms: N1_6  and  C6_7 
REMARK    4  A    between atoms: C7_8  and  C8_9 
REMARK    5  A    between atoms: C8_9  and  O1_11 
REMARK    6  A    between atoms: C8_9  and  O2_13 
REMARK    7  A    between atoms: C10_16  and  C11_17 
REMARK    8  A    between atoms: C15_22  and  S1_23 
REMARK    9  A    between atoms: C17_28  and  C18_29 
REMARK   10  A    between atoms: C18_29  and  C19_30 
REMARK   11  A    between atoms: C21_32  and  C22_33 
ROOT
HETATM    1  C4  UNL     1       0.938  18.743  -5.639  1.00  0.00    -0.013 A 
HETATM    2  C5  UNL     1       0.988  18.117  -6.909  1.00  0.00     0.139 A 
HETATM    3  N1  UNL     1       0.051  17.310  -7.402  1.00  0.00    -0.217 N 
HETATM    4  N2  UNL     1      -1.010  17.043  -6.703  1.00  0.00    -0.257 N 
HETATM    5  C10 UNL     1      -1.940  16.314  -7.126  1.00  0.00     0.129 C 
HETATM    6  C17 UNL     1      -1.147  17.615  -5.431  1.00  0.00     0.042 A 
HETATM    7  C21 UNL     1      -0.188  18.465  -4.896  1.00  0.00    -0.022 A 
ENDROOT
BRANCH   3   8
HETATM    8  C6  UNL     1       0.305  16.792  -8.710  1.00  0.00     0.039 C 
HETATM    9  C7  UNL     1       0.564  16.406  -9.810  1.00  0.00    -0.014 C 
BRANCH   9  10
HETATM   10  C8  UNL     1       0.908  15.955 -11.164  1.00  0.00     0.225 C 
HETATM   11  C9  UNL     1      -0.075  16.541 -12.153  1.00  0.00     0.094 C 
BRANCH  10  12
HETATM   12  O1  UNL     1       1.041  14.582 -11.265  1.00  0.00    -0.356 OA
ATOM     13  H1  UNL     1       1.800  14.315 -11.770  1.00  0.00     0.214 HD
ENDBRANCH  10  12
BRANCH  10  14
HETATM   14  O2  UNL     1       2.178  16.486 -11.497  1.00  0.00    -0.356 OA
ATOM     15  H2  UNL     1       2.376  16.241 -12.394  1.00  0.00     0.214 HD
ENDBRANCH  10  14
ENDBRANCH   9  10
ENDBRANCH   3   8
BRANCH   5  16
HETATM   16  C11 UNL     1      -2.218  15.576  -8.323  1.00  0.00    -0.017 A 
HETATM   17  C12 UNL     1      -2.922  16.142  -9.392  1.00  0.00     0.015 A 
HETATM   18  C13 UNL     1      -3.089  15.478 -10.581  1.00  0.00     0.029 A 
HETATM   19  C14 UNL     1      -2.540  14.203 -10.726  1.00  0.00     0.070 A 
HETATM   20  N3  UNL     1      -2.691  13.500 -11.940  1.00  0.00    -0.101 NA
HETATM   21  C15 UNL     1      -1.839  13.613  -9.689  1.00  0.00     0.105 A 
HETATM   22  C16 UNL     1      -1.686  14.300  -8.507  1.00  0.00     0.041 A 
BRANCH  21  23
HETATM   23  S1  UNL     1      -1.123  12.027  -9.819  1.00  0.00     0.139 S 
HETATM   24  O3  UNL     1      -0.246  11.746  -8.659  1.00  0.00    -0.591 OA
HETATM   25  O4  UNL     1      -0.270  12.011 -11.057  1.00  0.00    -0.591 OA
HETATM   26  O5  UNL     1      -2.372  10.909  -9.923  1.00  0.00    -0.591 OA
ENDBRANCH  21  23
ENDBRANCH   5  16
BRANCH   6  27
HETATM   27  C18 UNL     1      -2.320  17.237  -4.652  1.00  0.00     0.059 C 
BRANCH  27  28
HETATM   28  C19 UNL     1      -3.482  18.181  -4.653  1.00  0.00     0.002 C 
HETATM   29  C20 UNL     1      -4.103  18.249  -3.236  1.00  0.00     0.005 C 
ENDBRANCH  27  28
ENDBRANCH   6  27
BRANCH   7  30
HETATM   30  C22 UNL     1      -0.409  19.071  -3.576  1.00  0.00     0.037 C 
HETATM   31  C23 UNL     1       0.381  18.434  -2.451  1.00  0.00     0.010 C 
ENDBRANCH   7  30
BRANCH   1  32
HETATM   32  C3  UNL     1       1.945  19.477  -5.291  1.00  0.00    -0.014 C 
BRANCH  32  33
HETATM   33  C2  UNL     1       2.680  20.651  -5.634  1.00  0.00     0.023 C 
HETATM   34  C1  UNL     1       3.266  21.371  -4.403  1.00  0.00     0.009 C 
ENDBRANCH  32  33
ENDBRANCH   1  32
TORSDOF 11
ENDMDL
MODEL 3
REMARK VINA RESULT: -5.212817641      1.633      2.130
REMARK  11 active torsions:
REMARK  status: ('A' for Active; 'I' for Inactive)
REMARK    1  A    between atoms: C2_2  and  C3_3 
REMARK    2  A    between atoms: C3_3  and  C4_4 
REMARK    3  A    between atoms: N1_6  and  C6_7 
REMARK    4  A    between atoms: C7_8  and  C8_9 
REMARK    5  A    between atoms: C8_9  and  O1_11 
REMARK    6  A    between atoms: C8_9  and  O2_13 
REMARK    7  A    between atoms: C10_16  and  C11_17 
REMARK    8  A    between atoms: C15_22  and  S1_23 
REMARK    9  A    between atoms: C17_28  and  C18_29 
REMARK   10  A    between atoms: C18_29  and  C19_30 
REMARK   11  A    between atoms: C21_32  and  C22_33 
ROOT
HETATM    1  C4  UNL     1      -3.440   9.545  -9.617  1.00  0.00    -0.013 A 
HETATM    2  C5  UNL     1      -3.484  10.946  -9.820  1.00  0.00     0.139 A 
HETATM    3  N1  UNL     1      -2.422  11.749  -9.841  1.00  0.00    -0.217 N 
HETATM    4  N2  UNL     1      -1.234  11.260  -9.665  1.00  0.00    -0.257 N 
HETATM    5  C10 UNL     1      -0.194  11.963  -9.703  1.00  0.00     0.129 C 
HETATM    6  C17 UNL     1      -1.091   9.882  -9.453  1.00  0.00     0.042 A 
HETATM    7  C21 UNL     1      -2.179   9.021  -9.432  1.00  0.00    -0.022 A 
ENDROOT
BRANCH   3   8
HETATM    8  C6  UNL     1      -2.699  13.134 -10.069  1.00  0.00     0.039 C 
HETATM    9  C7  UNL     1      -2.968  14.289 -10.205  1.00  0.00    -0.014 C 
BRANCH   9  10
HETATM   10  C8  UNL     1      -3.318  15.708 -10.345  1.00  0.00     0.225 C 
HETATM   11  C9  UNL     1      -2.777  16.477  -9.160  1.00  0.00     0.094 C 
BRANCH  10  12
HETATM   12  O1  UNL     1      -4.665  15.919 -10.572  1.00  0.00    -0.356 OA
ATOM     13  H1  UNL     1      -4.992  16.717 -10.174  1.00  0.00     0.214 HD
ENDBRANCH  10  12
BRANCH  10  14
HETATM   14  O2  UNL     1      -2.654  16.215 -11.490  1.00  0.00    -0.356 OA
ATOM     15  H2  UNL     1      -2.618  17.162 -11.416  1.00  0.00     0.214 HD
ENDBRANCH  10  14
ENDBRANCH   9  10
ENDBRANCH   3   8
BRANCH   5  16
HETATM   16  C11 UNL     1       0.116  13.348  -9.908  1.00  0.00    -0.017 A 
HETATM   17  C12 UNL     1       0.415  14.202  -8.841  1.00  0.00     0.015 A 
HETATM   18  C13 UNL     1       0.825  15.496  -9.043  1.00  0.00     0.029 A 
HETATM   19  C14 UNL     1       0.947  15.970 -10.350  1.00  0.00     0.070 A 
HETATM   20  N3  UNL     1       1.372  17.294 -10.588  1.00  0.00    -0.101 NA
HETATM   21  C15 UNL     1       0.659  15.151 -11.428  1.00  0.00     0.105 A 
HETATM   22  C16 UNL     1       0.250  13.859 -11.198  1.00  0.00     0.041 A 
BRANCH  21  23
HETATM   23  S1  UNL     1       0.805  15.688 -13.082  1.00  0.00     0.139 S 
HETATM   24  O3  UNL     1       0.626  14.557 -14.023  1.00  0.00    -0.591 OA
HETATM   25  O4  UNL     1       2.197  16.225 -13.268  1.00  0.00    -0.591 OA
HETATM   26  O5  UNL     1      -0.349  16.881 -13.338  1.00  0.00    -0.591 OA
ENDBRANCH  21  23
ENDBRANCH   5  16
BRANCH   6  27
HETATM   27  C18 UNL     1       0.254   9.383  -9.191  1.00  0.00     0.059 C 
BRANCH  27  28
HETATM   28  C19 UNL     1       0.737   9.413  -7.774  1.00  0.00     0.002 C 
HETATM   29  C20 UNL     1       1.131   7.984  -7.325  1.00  0.00     0.005 C 
ENDBRANCH  27  28
ENDBRANCH   6  27
BRANCH   7  30
HETATM   30  C22 UNL     1      -1.963   7.579  -9.251  1.00  0.00     0.037 C 
HETATM   31  C23 UNL     1      -1.671   6.821 -10.530  1.00  0.00     0.010 C 
ENDBRANCH   7  30
BRANCH   1  32
HETATM   32  C3  UNL     1      -4.565   8.906  -9.593  1.00  0.00    -0.014 C 
BRANCH  32  33
HETATM   33  C2  UNL     1      -5.650   8.466 -10.409  1.00  0.00     0.023 C 
HETATM   34  C1  UNL     1      -5.202   7.526 -11.546  1.00  0.00     0.009 C 
ENDBRANCH  32  33
ENDBRANCH   1  32
TORSDOF 11
ENDMDL
MODEL 4
REMARK VINA RESULT: -5.097737946      8.681     11.619
REMARK  11 active torsions:
REMARK  status: ('A' for Active; 'I' for Inactive)
REMARK    1  A    between atoms: C2_2  and  C3_3 
REMARK    2  A    between atoms: C3_3  and  C4_4 
REMARK    3  A    between atoms: N1_6  and  C6_7 
REMARK    4  A    between atoms: C7_8  and  C8_9 
REMARK    5  A    between atoms: C8_9  and  O1_11 
REMARK    6  A    between atoms: C8_9  and  O2_13 
REMARK    7  A    between atoms: C10_16  and  C11_17 
REMARK    8  A    between atoms: C15_22  and  S1_23 
REMARK    9  A    between atoms: C17_28  and  C18_29 
REMARK   10  A    between atoms: C18_29  and  C19_30 
REMARK   11  A    between atoms: C21_32  and  C22_33 
ROOT
HETATM    1  C4  UNL     1      -1.037  17.193  -6.591  1.00  0.00    -0.013 A 
HETATM    2  C5  UNL     1      -1.389  17.625  -5.289  1.00  0.00     0.139 A 
HETATM    3  N1  UNL     1      -0.660  18.441  -4.530  1.00  0.00    -0.217 N 
HETATM    4  N2  UNL     1       0.469  18.904  -4.972  1.00  0.00    -0.257 N 
HETATM    5  C10 UNL     1       1.184  19.698  -4.315  1.00  0.00     0.129 C 
HETATM    6  C17 UNL     1       0.903  18.529  -6.250  1.00  0.00     0.042 A 
HETATM    7  C21 UNL     1       0.161  17.685  -7.065  1.00  0.00    -0.022 A 
ENDROOT
BRANCH   3   8
HETATM    8  C6  UNL     1      -1.212  18.751  -3.248  1.00  0.00     0.039 C 
HETATM    9  C7  UNL     1      -1.715  18.959  -2.185  1.00  0.00    -0.014 C 
BRANCH   9  10
HETATM   10  C8  UNL     1      -2.354  19.189  -0.883  1.00  0.00     0.225 C 
HETATM   11  C9  UNL     1      -2.430  20.676  -0.617  1.00  0.00     0.094 C 
BRANCH  10  12
HETATM   12  O1  UNL     1      -1.771  18.473   0.145  1.00  0.00    -0.356 OA
ATOM     13  H1  UNL     1      -2.190  17.634   0.302  1.00  0.00     0.214 HD
ENDBRANCH  10  12
BRANCH  10  14
HETATM   14  O2  UNL     1      -3.691  18.725  -0.962  1.00  0.00    -0.356 OA
ATOM     15  H2  UNL     1      -4.120  18.920  -0.136  1.00  0.00     0.214 HD
ENDBRANCH  10  14
ENDBRANCH   9  10
ENDBRANCH   3   8
BRANCH   5  16
HETATM   16  C11 UNL     1       1.119  20.338  -3.033  1.00  0.00    -0.017 A 
HETATM   17  C12 UNL     1       1.698  19.767  -1.894  1.00  0.00     0.015 A 
HETATM   18  C13 UNL     1       1.737  20.430  -0.692  1.00  0.00     0.029 A 
HETATM   19  C14 UNL     1       1.185  21.709  -0.608  1.00  0.00     0.070 A 
HETATM   20  N3  UNL     1       1.217  22.416   0.612  1.00  0.00    -0.101 NA
HETATM   21  C15 UNL     1       0.604  22.302  -1.715  1.00  0.00     0.105 A 
HETATM   22  C16 UNL     1       0.577  21.616  -2.907  1.00  0.00     0.041 A 
BRANCH  21  23
HETATM   23  S1  UNL     1      -0.092  23.902  -1.669  1.00  0.00     0.139 S 
HETATM   24  O3  UNL     1      -1.083  24.016  -0.573  1.00  0.00    -0.591 OA
HETATM   25  O4  UNL     1      -0.814  24.125  -2.968  1.00  0.00    -0.591 OA
HETATM   26  O5  UNL     1       1.164  25.000  -1.471  1.00  0.00    -0.591 OA
ENDBRANCH  21  23
ENDBRANCH   5  16
BRANCH   6  27
HETATM   27  C18 UNL     1       2.208  19.015  -6.682  1.00  0.00     0.059 C 
BRANCH  27  28
HETATM   28  C19 UNL     1       2.265  20.376  -7.303  1.00  0.00     0.002 C 
HETATM   29  C20 UNL     1       2.933  20.286  -8.699  1.00  0.00     0.005 C 
ENDBRANCH  27  28
ENDBRANCH   6  27
BRANCH   7  30
HETATM   30  C22 UNL     1       0.645  17.364  -8.414  1.00  0.00     0.037 C 
HETATM   31  C23 UNL     1       0.018  18.187  -9.521  1.00  0.00     0.010 C 
ENDBRANCH   7  30
BRANCH   1  32
HETATM   32  C3  UNL     1      -1.838  16.373  -7.190  1.00  0.00    -0.014 C 
BRANCH  32  33
HETATM   33  C2  UNL     1      -2.215  15.000  -7.279  1.00  0.00     0.023 C 
HETATM   34  C1  UNL     1      -1.265  14.175  -8.170  1.00  0.00     0.009 C 
ENDBRANCH  32  33
ENDBRANCH   1  32
TORSDOF 11
ENDMDL
MODEL 5
REMARK VINA RESULT: -5.072439938      9.805     12.680
REMARK  11 active torsions:
REMARK  status: ('A' for Active; 'I' for Inactive)
REMARK    1  A    between atoms: C2_2  and  C3_3 
REMARK    2  A    between atoms: C3_3  and  C4_4 
REMARK    3  A    between atoms: N1_6  and  C6_7 
REMARK    4  A    between atoms: C7_8  and  C8_9 
REMARK    5  A    between atoms: C8_9  and  O1_11 
REMARK    6  A    between atoms: C8_9  and  O2_13 
REMARK    7  A    between atoms: C10_16  and  C11_17 
REMARK    8  A    between atoms: C15_22  and  S1_23 
REMARK    9  A    between atoms: C17_28  and  C18_29 
REMARK   10  A    between atoms: C18_29  and  C19_30 
REMARK   11  A    between atoms: C21_32  and  C22_33 
ROOT
HETATM    1  C4  UNL     1       1.836  20.178  -2.338  1.00  0.00    -0.013 A 
HETATM    2  C5  UNL     1       2.520  21.029  -3.240  1.00  0.00     0.139 A 
HETATM    3  N1  UNL     1       2.397  20.995  -4.566  1.00  0.00    -0.217 N 
HETATM    4  N2  UNL     1       1.603  20.134  -5.123  1.00  0.00    -0.257 N 
HETATM    5  C10 UNL     1       1.424  20.075  -6.364  1.00  0.00     0.129 C 
HETATM    6  C17 UNL     1       0.884  19.247  -4.310  1.00  0.00     0.042 A 
HETATM    7  C21 UNL     1       0.989  19.264  -2.926  1.00  0.00    -0.022 A 
ENDROOT
BRANCH   3   8
HETATM    8  C6  UNL     1       3.180  21.952  -5.284  1.00  0.00     0.039 C 
HETATM    9  C7  UNL     1       3.805  22.799  -5.848  1.00  0.00    -0.014 C 
BRANCH   9  10
HETATM   10  C8  UNL     1       4.558  23.865  -6.522  1.00  0.00     0.225 C 
HETATM   11  C9  UNL     1       5.506  23.250  -7.528  1.00  0.00     0.094 C 
BRANCH  10  12
HETATM   12  O1  UNL     1       5.174  24.737  -5.644  1.00  0.00    -0.356 OA
ATOM     13  H1  UNL     1       5.176  24.425  -4.746  1.00  0.00     0.214 HD
ENDBRANCH  10  12
BRANCH  10  14
HETATM   14  O2  UNL     1       3.641  24.652  -7.262  1.00  0.00    -0.356 OA
ATOM     15  H2  UNL     1       3.737  24.431  -8.181  1.00  0.00     0.214 HD
ENDBRANCH  10  14
ENDBRANCH   9  10
ENDBRANCH   3   8
BRANCH   5  16
HETATM   16  C11 UNL     1       1.910  20.773  -7.519  1.00  0.00    -0.017 A 
HETATM   17  C12 UNL     1       2.947  20.262  -8.307  1.00  0.00     0.015 A 
HETATM   18  C13 UNL     1       3.335  20.870  -9.475  1.00  0.00     0.029 A 
HETATM   19  C14 UNL     1       2.674  22.028  -9.885  1.00  0.00     0.070 A 
HETATM   20  N3  UNL     1       3.047  22.670 -11.085  1.00  0.00    -0.101 NA
HETATM   21  C15 UNL     1       1.644  22.560  -9.129  1.00  0.00     0.105 A 
HETATM   22  C16 UNL     1       1.275  21.932  -7.963  1.00  0.00     0.041 A 
BRANCH  21  23
HETATM   23  S1  UNL     1       0.776  23.999  -9.601  1.00  0.00     0.139 S 
HETATM   24  O3  UNL     1       1.676  25.176  -9.621  1.00  0.00    -0.591 OA
HETATM   25  O4  UNL     1      -0.288  24.250  -8.571  1.00  0.00    -0.591 OA
HETATM   26  O5  UNL     1       0.107  23.719 -11.116  1.00  0.00    -0.591 OA
ENDBRANCH  21  23
ENDBRANCH   5  16
BRANCH   6  27
HETATM   27  C18 UNL     1       0.055  18.251  -4.978  1.00  0.00     0.059 C 
BRANCH  27  28
HETATM   28  C19 UNL     1      -1.381  18.599  -5.218  1.00  0.00     0.002 C 
HETATM   29  C20 UNL     1      -2.283  17.403  -4.821  1.00  0.00     0.005 C 
ENDBRANCH  27  28
ENDBRANCH   6  27
BRANCH   7  30
HETATM   30  C22 UNL     1       0.176  18.340  -2.124  1.00  0.00     0.037 C 
HETATM   31  C23 UNL     1      -1.076  18.954  -1.532  1.00  0.00     0.010 C 
ENDBRANCH   7  30
BRANCH   1  32
HETATM   32  C3  UNL     1       2.087  20.315  -1.077  1.00  0.00    -0.014 C 
BRANCH  32  33
HETATM   33  C2  UNL     1       1.711  21.038   0.095  1.00  0.00     0.023 C 
HETATM   34  C1  UNL     1       0.583  22.055  -0.165  1.00  0.00     0.009 C 
ENDBRANCH  32  33
ENDBRANCH   1  32
TORSDOF 11
ENDMDL
