MODEL 1
REMARK VINA RESULT: -7.246835541      0.000      0.000
REMARK  7 active torsions:
REMARK  status: ('A' for Active; 'I' for Inactive)
REMARK    1  A    between atoms: N1_1  and  C1_4 
REMARK    2  A    between atoms: C2_7  and  N3_8 
REMARK    3  A    between atoms: N5_15  and  C5_16 
REMARK    4  A    between atoms: C5_16  and  C6_17 
REMARK    5  A    between atoms: C6_17  and  C7_18 
REMARK    6  A    between atoms: C7_18  and  O1_19 
REMARK    7  A    between atoms: O1_19  and  N6_20 
ROOT
HETATM    1  C1  UNL     1      31.406   2.834  34.888  1.00  0.00     0.679 A 
HETATM    2  N2  UNL     1      30.775   2.034  33.960  1.00  0.00    -0.175 N 
ATOM      3  H2  UNL     1      31.038   2.101  32.978  1.00  0.00     0.186 HD
HETATM    4  C2  UNL     1      29.826   1.172  34.331  1.00  0.00     0.145 A 
HETATM    5  C3  UNL     1      29.421   1.047  35.648  1.00  0.00     0.123 A 
HETATM    6  N4  UNL     1      28.595   0.200  36.354  1.00  0.00    -0.346 N 
ATOM      7  H4  UNL     1      27.995  -0.515  35.943  1.00  0.00     0.167 HD
HETATM    8  C4  UNL     1      28.701   0.461  37.675  1.00  0.00     0.185 A 
HETATM    9  N5  UNL     1      29.617   1.473  37.789  1.00  0.00    -0.327 N 
HETATM   10  C8  UNL     1      30.049   1.844  36.622  1.00  0.00     0.155 A 
HETATM   11  N7  UNL     1      31.004   2.701  36.218  1.00  0.00    -0.174 N 
ATOM     12  H7  UNL     1      31.457   3.285  36.920  1.00  0.00     0.186 HD
ENDROOT
BRANCH   9  13
HETATM   13  C5  UNL     1      29.945   2.183  39.013  1.00  0.00     0.133 C 
BRANCH  13  14
HETATM   14  C6  UNL     1      28.848   3.077  39.411  1.00  0.00     0.049 C 
BRANCH  14  15
HETATM   15  C7  UNL     1      29.458   4.448  39.922  1.00  0.00     0.202 C 
BRANCH  15  16
HETATM   16  O1  UNL     1      29.109   4.390  41.306  1.00  0.00    -0.287 OA
BRANCH  16  17
HETATM   17  N6  UNL     1      28.359   5.486  41.669  1.00  0.00    -0.311 N 
ATOM     18  H62 UNL     1      28.057   6.208  41.015  1.00  0.00     0.184 HD
ATOM     19  H61 UNL     1      28.154   5.470  42.668  1.00  0.00     0.184 HD
ENDBRANCH  16  17
ENDBRANCH  15  16
ENDBRANCH  14  15
ENDBRANCH  13  14
ENDBRANCH   9  13
BRANCH   4  20
HETATM   20  N3  UNL     1      29.106   0.500  33.438  1.00  0.00    -0.383 N 
ATOM     21  H32 UNL     1      29.563  -0.310  33.019  1.00  0.00     0.157 HD
ATOM     22  H31 UNL     1      28.122   0.711  33.276  1.00  0.00     0.157 HD
ENDBRANCH   4  20
BRANCH   1  23
HETATM   23  N1  UNL     1      32.277   3.669  34.550  1.00  0.00    -0.234 N 
ATOM     24  H12 UNL     1      33.272   3.453  34.614  1.00  0.00     0.174 HD
ATOM     25  H11 UNL     1      32.026   4.603  34.227  1.00  0.00     0.174 HD
ENDBRANCH   1  23
TORSDOF 7
ENDMDL
MODEL 2
REMARK VINA RESULT: -7.112972763      3.305      5.258
REMARK  7 active torsions:
REMARK  status: ('A' for Active; 'I' for Inactive)
REMARK    1  A    between atoms: N1_1  and  C1_4 
REMARK    2  A    between atoms: C2_7  and  N3_8 
REMARK    3  A    between atoms: N5_15  and  C5_16 
REMARK    4  A    between atoms: C5_16  and  C6_17 
REMARK    5  A    between atoms: C6_17  and  C7_18 
REMARK    6  A    between atoms: C7_18  and  O1_19 
REMARK    7  A    between atoms: O1_19  and  N6_20 
ROOT
HETATM    1  C1  UNL     1      29.346   1.767  37.845  1.00  0.00     0.679 A 
HETATM    2  N2  UNL     1      28.629   1.256  36.785  1.00  0.00    -0.175 N 
ATOM      3  H2  UNL     1      27.653   0.994  36.919  1.00  0.00     0.186 HD
HETATM    4  C2  UNL     1      29.194   1.099  35.586  1.00  0.00     0.145 A 
HETATM    5  C3  UNL     1      30.518   1.427  35.350  1.00  0.00     0.123 A 
HETATM    6  N4  UNL     1      31.337   1.505  34.245  1.00  0.00    -0.346 N 
ATOM      7  H4  UNL     1      31.086   1.203  33.304  1.00  0.00     0.167 HD
HETATM    8  C4  UNL     1      32.524   2.043  34.599  1.00  0.00     0.185 A 
HETATM    9  N5  UNL     1      32.434   2.315  35.938  1.00  0.00    -0.327 N 
HETATM   10  C8  UNL     1      31.277   1.958  36.408  1.00  0.00     0.155 A 
HETATM   11  N7  UNL     1      30.679   2.106  37.604  1.00  0.00    -0.174 N 
ATOM     12  H7  UNL     1      31.227   2.486  38.375  1.00  0.00     0.186 HD
ENDROOT
BRANCH   9  13
HETATM   13  C5  UNL     1      33.523   2.768  36.784  1.00  0.00     0.133 C 
BRANCH  13  14
HETATM   14  C6  UNL     1      34.763   2.915  36.008  1.00  0.00     0.049 C 
BRANCH  14  15
HETATM   15  C7  UNL     1      35.338   4.377  36.222  1.00  0.00     0.202 C 
BRANCH  15  16
HETATM   16  O1  UNL     1      36.558   4.290  35.485  1.00  0.00    -0.287 OA
BRANCH  16  17
HETATM   17  N6  UNL     1      37.217   5.499  35.483  1.00  0.00    -0.311 N 
ATOM     18  H62 UNL     1      38.192   5.613  35.205  1.00  0.00     0.184 HD
ATOM     19  H61 UNL     1      36.599   6.249  35.793  1.00  0.00     0.184 HD
ENDBRANCH  16  17
ENDBRANCH  15  16
ENDBRANCH  14  15
ENDBRANCH  13  14
ENDBRANCH   9  13
BRANCH   4  20
HETATM   20  N3  UNL     1      28.567   0.475  34.595  1.00  0.00    -0.383 N 
ATOM     21  H32 UNL     1      28.484   0.997  33.723  1.00  0.00     0.157 HD
ATOM     22  H31 UNL     1      28.297  -0.506  34.667  1.00  0.00     0.157 HD
ENDBRANCH   4  20
BRANCH   1  23
HETATM   23  N1  UNL     1      28.837   1.891  38.983  1.00  0.00    -0.234 N 
ATOM     24  H12 UNL     1      27.948   2.374  39.117  1.00  0.00     0.174 HD
ATOM     25  H11 UNL     1      29.305   1.540  39.819  1.00  0.00     0.174 HD
ENDBRANCH   1  23
TORSDOF 7
ENDMDL
MODEL 3
REMARK VINA RESULT: -7.107214373      2.967      4.702
REMARK  7 active torsions:
REMARK  status: ('A' for Active; 'I' for Inactive)
REMARK    1  A    between atoms: N1_1  and  C1_4 
REMARK    2  A    between atoms: C2_7  and  N3_8 
REMARK    3  A    between atoms: N5_15  and  C5_16 
REMARK    4  A    between atoms: C5_16  and  C6_17 
REMARK    5  A    between atoms: C6_17  and  C7_18 
REMARK    6  A    between atoms: C7_18  and  O1_19 
REMARK    7  A    between atoms: O1_19  and  N6_20 
ROOT
HETATM    1  C1  UNL     1      29.538   0.984  33.762  1.00  0.00     0.679 A 
HETATM    2  N2  UNL     1      28.633   0.567  34.714  1.00  0.00    -0.175 N 
ATOM      3  H2  UNL     1      27.800   0.055  34.425  1.00  0.00     0.186 HD
HETATM    4  C2  UNL     1      28.832   0.824  36.008  1.00  0.00     0.145 A 
HETATM    5  C3  UNL     1      29.938   1.525  36.456  1.00  0.00     0.123 A 
HETATM    6  N4  UNL     1      30.484   1.835  37.683  1.00  0.00    -0.346 N 
ATOM      7  H4  UNL     1      30.049   1.646  38.585  1.00  0.00     0.167 HD
HETATM    8  C4  UNL     1      31.686   2.426  37.506  1.00  0.00     0.185 A 
HETATM    9  N5  UNL     1      31.893   2.470  36.153  1.00  0.00    -0.327 N 
HETATM   10  C8  UNL     1      30.885   1.960  35.512  1.00  0.00     0.155 A 
HETATM   11  N7  UNL     1      30.658   1.683  34.215  1.00  0.00    -0.174 N 
ATOM     12  H7  UNL     1      31.339   2.001  33.527  1.00  0.00     0.186 HD
ENDROOT
BRANCH   9  13
HETATM   13  C5  UNL     1      32.988   3.150  35.487  1.00  0.00     0.133 C 
BRANCH  13  14
HETATM   14  C6  UNL     1      34.274   2.515  35.810  1.00  0.00     0.049 C 
BRANCH  14  15
HETATM   15  C7  UNL     1      35.270   3.616  36.368  1.00  0.00     0.202 C 
BRANCH  15  16
HETATM   16  O1  UNL     1      34.685   4.799  35.821  1.00  0.00    -0.287 OA
BRANCH  16  17
HETATM   17  N6  UNL     1      35.617   5.809  35.732  1.00  0.00    -0.311 N 
ATOM     18  H62 UNL     1      35.393   6.798  35.844  1.00  0.00     0.184 HD
ATOM     19  H61 UNL     1      36.544   5.431  35.541  1.00  0.00     0.184 HD
ENDBRANCH  16  17
ENDBRANCH  15  16
ENDBRANCH  14  15
ENDBRANCH  13  14
ENDBRANCH   9  13
BRANCH   4  20
HETATM   20  N3  UNL     1      27.905   0.561  36.922  1.00  0.00    -0.383 N 
ATOM     21  H32 UNL     1      27.957  -0.361  37.356  1.00  0.00     0.157 HD
ATOM     22  H31 UNL     1      27.260   1.279  37.253  1.00  0.00     0.157 HD
ENDBRANCH   4  20
BRANCH   1  23
HETATM   23  N1  UNL     1      29.348   0.776  32.540  1.00  0.00    -0.234 N 
ATOM     24  H12 UNL     1      28.425   0.885  32.121  1.00  0.00     0.174 HD
ATOM     25  H11 UNL     1      30.102   0.464  31.928  1.00  0.00     0.174 HD
ENDBRANCH   1  23
TORSDOF 7
ENDMDL
MODEL 4
REMARK VINA RESULT: -7.028791949      2.574      4.828
REMARK  7 active torsions:
REMARK  status: ('A' for Active; 'I' for Inactive)
REMARK    1  A    between atoms: N1_1  and  C1_4 
REMARK    2  A    between atoms: C2_7  and  N3_8 
REMARK    3  A    between atoms: N5_15  and  C5_16 
REMARK    4  A    between atoms: C5_16  and  C6_17 
REMARK    5  A    between atoms: C6_17  and  C7_18 
REMARK    6  A    between atoms: C7_18  and  O1_19 
REMARK    7  A    between atoms: O1_19  and  N6_20 
ROOT
HETATM    1  C1  UNL     1      29.748   2.770  38.499  1.00  0.00     0.679 A 
HETATM    2  N2  UNL     1      28.739   1.837  38.397  1.00  0.00    -0.175 N 
ATOM      3  H2  UNL     1      28.102   1.698  39.180  1.00  0.00     0.186 HD
HETATM    4  C2  UNL     1      28.586   1.112  37.286  1.00  0.00     0.145 A 
HETATM    5  C3  UNL     1      29.428   1.250  36.197  1.00  0.00     0.123 A 
HETATM    6  N4  UNL     1      29.466   0.769  34.907  1.00  0.00    -0.346 N 
ATOM      7  H4  UNL     1      28.837   0.063  34.524  1.00  0.00     0.167 HD
HETATM    8  C4  UNL     1      30.462   1.376  34.226  1.00  0.00     0.185 A 
HETATM    9  N5  UNL     1      31.039   2.256  35.103  1.00  0.00    -0.327 N 
HETATM   10  C8  UNL     1      30.465   2.198  36.266  1.00  0.00     0.155 A 
HETATM   11  N7  UNL     1      30.592   2.915  37.397  1.00  0.00    -0.174 N 
ATOM     12  H7  UNL     1      31.345   3.600  37.453  1.00  0.00     0.186 HD
ENDROOT
BRANCH   9  13
HETATM   13  C5  UNL     1      32.245   3.026  34.857  1.00  0.00     0.133 C 
BRANCH  13  14
HETATM   14  C6  UNL     1      33.445   2.237  35.175  1.00  0.00     0.049 C 
BRANCH  14  15
HETATM   15  C7  UNL     1      34.417   3.113  36.070  1.00  0.00     0.202 C 
BRANCH  15  16
HETATM   16  O1  UNL     1      34.200   4.406  35.504  1.00  0.00    -0.287 OA
BRANCH  16  17
HETATM   17  N6  UNL     1      35.219   5.267  35.846  1.00  0.00    -0.311 N 
ATOM     18  H62 UNL     1      36.193   4.981  35.951  1.00  0.00     0.184 HD
ATOM     19  H61 UNL     1      34.865   6.215  35.976  1.00  0.00     0.184 HD
ENDBRANCH  16  17
ENDBRANCH  15  16
ENDBRANCH  14  15
ENDBRANCH  13  14
ENDBRANCH   9  13
BRANCH   4  20
HETATM   20  N3  UNL     1      27.717   0.109  37.222  1.00  0.00    -0.383 N 
ATOM     21  H32 UNL     1      27.082   0.020  38.017  1.00  0.00     0.157 HD
ATOM     22  H31 UNL     1      27.612  -0.456  36.380  1.00  0.00     0.157 HD
ENDBRANCH   4  20
BRANCH   1  23
HETATM   23  N1  UNL     1      29.923   3.436  39.547  1.00  0.00    -0.234 N 
ATOM     24  H12 UNL     1      30.424   3.046  40.346  1.00  0.00     0.174 HD
ATOM     25  H11 UNL     1      29.547   4.378  39.651  1.00  0.00     0.174 HD
ENDBRANCH   1  23
TORSDOF 7
ENDMDL
MODEL 5
REMARK VINA RESULT: -6.900357902      2.363      2.549
REMARK  7 active torsions:
REMARK  status: ('A' for Active; 'I' for Inactive)
REMARK    1  A    between atoms: N1_1  and  C1_4 
REMARK    2  A    between atoms: C2_7  and  N3_8 
REMARK    3  A    between atoms: N5_15  and  C5_16 
REMARK    4  A    between atoms: C5_16  and  C6_17 
REMARK    5  A    between atoms: C6_17  and  C7_18 
REMARK    6  A    between atoms: C7_18  and  O1_19 
REMARK    7  A    between atoms: O1_19  and  N6_20 
ROOT
HETATM    1  C1  UNL     1      32.185   1.525  34.858  1.00  0.00     0.679 A 
HETATM    2  N2  UNL     1      31.411   1.383  33.727  1.00  0.00    -0.175 N 
ATOM      3  H2  UNL     1      31.854   1.402  32.809  1.00  0.00     0.186 HD
HETATM    4  C2  UNL     1      30.089   1.223  33.815  1.00  0.00     0.145 A 
HETATM    5  C3  UNL     1      29.432   1.203  35.034  1.00  0.00     0.123 A 
HETATM    6  N4  UNL     1      28.150   0.939  35.463  1.00  0.00    -0.346 N 
ATOM      7  H4  UNL     1      27.346   0.783  34.855  1.00  0.00     0.167 HD
HETATM    8  C4  UNL     1      28.120   0.918  36.814  1.00  0.00     0.185 A 
HETATM    9  N5  UNL     1      29.405   1.157  37.225  1.00  0.00    -0.327 N 
HETATM   10  C8  UNL     1      30.193   1.338  36.209  1.00  0.00     0.155 A 
HETATM   11  N7  UNL     1      31.523   1.495  36.087  1.00  0.00    -0.174 N 
ATOM     12  H7  UNL     1      32.078   1.598  36.936  1.00  0.00     0.186 HD
ENDROOT
BRANCH   9  13
HETATM   13  C5  UNL     1      29.827   1.371  38.598  1.00  0.00     0.133 C 
BRANCH  13  14
HETATM   14  C6  UNL     1      30.428   2.702  38.760  1.00  0.00     0.049 C 
BRANCH  14  15
HETATM   15  C7  UNL     1      31.827   2.553  39.491  1.00  0.00     0.202 C 
BRANCH  15  16
HETATM   16  O1  UNL     1      32.707   2.513  38.366  1.00  0.00    -0.287 OA
BRANCH  16  17
HETATM   17  N6  UNL     1      34.019   2.416  38.773  1.00  0.00    -0.311 N 
ATOM     18  H62 UNL     1      34.562   3.204  39.128  1.00  0.00     0.184 HD
ATOM     19  H61 UNL     1      34.361   1.461  38.671  1.00  0.00     0.184 HD
ENDBRANCH  16  17
ENDBRANCH  15  16
ENDBRANCH  14  15
ENDBRANCH  13  14
ENDBRANCH   9  13
BRANCH   4  20
HETATM   20  N3  UNL     1      29.311   1.233  32.739  1.00  0.00    -0.383 N 
ATOM     21  H32 UNL     1      28.321   1.045  32.904  1.00  0.00     0.157 HD
ATOM     22  H31 UNL     1      29.661   1.528  31.827  1.00  0.00     0.157 HD
ENDBRANCH   4  20
BRANCH   1  23
HETATM   23  N1  UNL     1      33.423   1.706  34.788  1.00  0.00    -0.234 N 
ATOM     24  H12 UNL     1      33.889   1.847  33.891  1.00  0.00     0.174 HD
ATOM     25  H11 UNL     1      34.013   1.691  35.619  1.00  0.00     0.174 HD
ENDBRANCH   1  23
TORSDOF 7
ENDMDL
