MODEL 1
REMARK VINA RESULT: -8.591103259      0.000      0.000
REMARK  13 active torsions:
REMARK  status: ('A' for Active; 'I' for Inactive)
REMARK    1  A    between atoms: N2_3  and  C2_5 
REMARK    2  A    between atoms: C2_5  and  N3_6 
REMARK    3  A    between atoms: C2_5  and  C10_20 
REMARK    4  A    between atoms: N3_6  and  C3_8 
REMARK    5  A    between atoms: C3_8  and  C4_12 
REMARK    6  A    between atoms: C4_12  and  C5_13 
REMARK    7  A    between atoms: C5_13  and  C6_14 
REMARK    8  A    between atoms: C6_14  and  C7_15 
REMARK    9  A    between atoms: C7_15  and  C8_16 
REMARK   10  A    between atoms: C8_16  and  C9_17 
REMARK   11  A    between atoms: C10_20  and  N6_21 
REMARK   12  A    between atoms: C10_20  and  N7_25 
REMARK   13  A    between atoms: C14_31  and  C15_32 
ROOT
HETATM    1  N1  UNL     1      15.896   0.091  20.109  1.00  0.00    -0.172 NA
HETATM    2  C1  UNL     1      16.297  -0.400  21.073  1.00  0.00     0.179 C 
HETATM    3  N2  UNL     1      16.768  -1.011  22.223  1.00  0.00    -0.303 N 
ATOM      4  H2  UNL     1      16.082  -1.496  22.801  1.00  0.00     0.174 HD
ENDROOT
BRANCH   3   5
HETATM    5  C2  UNL     1      18.142  -1.028  22.683  1.00  0.00     0.242 C 
BRANCH   5   6
HETATM    6  N3  UNL     1      18.895  -0.032  22.001  1.00  0.00    -0.355 N 
ATOM      7  H3  UNL     1      18.559   0.914  22.184  1.00  0.00     0.163 HD
BRANCH   6   8
HETATM    8  C3  UNL     1      19.976  -0.060  21.149  1.00  0.00     0.072 C 
HETATM    9  N4  UNL     1      21.147  -0.422  21.665  1.00  0.00    -0.389 N 
ATOM     10  H42 UNL     1      21.125  -0.642  22.660  1.00  0.00     0.157 HD
ATOM     11  H41 UNL     1      21.948  -0.443  21.034  1.00  0.00     0.157 HD
BRANCH   8  12
HETATM   12  C4  UNL     1      20.007   0.253  19.731  1.00  0.00     0.075 C 
BRANCH  12  13
HETATM   13  C5  UNL     1      21.330   0.232  19.052  1.00  0.00     0.007 C 
BRANCH  13  14
HETATM   14  C6  UNL     1      21.529   1.524  18.298  1.00  0.00     0.001 C 
BRANCH  14  15
HETATM   15  C7  UNL     1      22.523   2.453  18.908  1.00  0.00     0.009 C 
BRANCH  15  16
HETATM   16  C8  UNL     1      23.462   1.685  19.847  1.00  0.00     0.099 C 
BRANCH  16  17
HETATM   17  C9  UNL     1      23.538   2.385  21.142  1.00  0.00     0.231 C 
HETATM   18  N5  UNL     1      23.253   1.692  22.345  1.00  0.00    -0.062 NA
HETATM   19  O1  UNL     1      23.854   3.591  21.195  1.00  0.00    -0.277 OA
ENDBRANCH  16  17
ENDBRANCH  15  16
ENDBRANCH  14  15
ENDBRANCH  13  14
ENDBRANCH  12  13
ENDBRANCH   8  12
ENDBRANCH   6   8
ENDBRANCH   5   6
BRANCH   5  20
HETATM   20  C10 UNL     1      18.001  -0.529  24.172  1.00  0.00     0.326 C 
BRANCH  20  21
HETATM   21  N6  UNL     1      17.312   0.721  24.109  1.00  0.00    -0.054 N 
ATOM     22  H63 UNL     1      17.208   1.081  23.160  1.00  0.00     0.276 HD
ATOM     23  H62 UNL     1      16.317   0.647  24.324  1.00  0.00     0.276 HD
ATOM     24  H61 UNL     1      17.815   1.355  24.730  1.00  0.00     0.276 HD
ENDBRANCH  20  21
BRANCH  20  25
HETATM   25  N7  UNL     1      19.297  -0.391  24.746  1.00  0.00    -0.349 N 
HETATM   26  C11 UNL     1      19.431  -0.318  26.024  1.00  0.00     0.084 C 
HETATM   27  C12 UNL     1      20.834  -0.176  26.504  1.00  0.00     0.149 C 
HETATM   28  N9  UNL     1      18.340  -0.368  26.905  1.00  0.00    -0.366 N 
HETATM   29  S1  UNL     1      20.960   0.323  28.219  1.00  0.00    -0.159 SA
HETATM   30  C13 UNL     1      19.519  -0.418  29.079  1.00  0.00     0.108 C 
HETATM   31  C14 UNL     1      18.306   0.045  28.266  1.00  0.00     0.181 C 
ATOM     32  H9  UNL     1      17.470  -0.744  26.526  1.00  0.00     0.161 HD
ATOM     33  H7  UNL     1      20.120  -0.352  24.144  1.00  0.00     0.163 HD
BRANCH  31  34
HETATM   34  C15 UNL     1      18.234   1.511  28.441  1.00  0.00     0.254 C 
HETATM   35  N8  UNL     1      17.916   2.413  27.403  1.00  0.00    -0.060 NA
HETATM   36  O2  UNL     1      18.471   1.978  29.582  1.00  0.00    -0.275 OA
ENDBRANCH  31  34
ENDBRANCH  20  25
ENDBRANCH   5  20
ENDBRANCH   3   5
TORSDOF 13
ENDMDL
MODEL 2
REMARK VINA RESULT: -8.340809599      1.733      2.221
REMARK  13 active torsions:
REMARK  status: ('A' for Active; 'I' for Inactive)
REMARK    1  A    between atoms: N2_3  and  C2_5 
REMARK    2  A    between atoms: C2_5  and  N3_6 
REMARK    3  A    between atoms: C2_5  and  C10_20 
REMARK    4  A    between atoms: N3_6  and  C3_8 
REMARK    5  A    between atoms: C3_8  and  C4_12 
REMARK    6  A    between atoms: C4_12  and  C5_13 
REMARK    7  A    between atoms: C5_13  and  C6_14 
REMARK    8  A    between atoms: C6_14  and  C7_15 
REMARK    9  A    between atoms: C7_15  and  C8_16 
REMARK   10  A    between atoms: C8_16  and  C9_17 
REMARK   11  A    between atoms: C10_20  and  N6_21 
REMARK   12  A    between atoms: C10_20  and  N7_25 
REMARK   13  A    between atoms: C14_31  and  C15_32 
ROOT
HETATM    1  N1  UNL     1      15.819  -0.739  20.968  1.00  0.00    -0.172 NA
HETATM    2  C1  UNL     1      16.690  -0.607  21.713  1.00  0.00     0.179 C 
HETATM    3  N2  UNL     1      17.723  -0.461  22.624  1.00  0.00    -0.303 N 
ATOM      4  H2  UNL     1      17.487  -0.051  23.527  1.00  0.00     0.174 HD
ENDROOT
BRANCH   3   5
HETATM    5  C2  UNL     1      19.107  -0.836  22.417  1.00  0.00     0.242 C 
BRANCH   5   6
HETATM    6  N3  UNL     1      19.723   0.064  21.503  1.00  0.00    -0.355 N 
ATOM      7  H3  UNL     1      20.154   0.865  21.965  1.00  0.00     0.163 HD
BRANCH   6   8
HETATM    8  C3  UNL     1      19.867   0.095  20.134  1.00  0.00     0.072 C 
HETATM    9  N4  UNL     1      18.757   0.025  19.405  1.00  0.00    -0.389 N 
ATOM     10  H42 UNL     1      17.895  -0.050  19.945  1.00  0.00     0.157 HD
ATOM     11  H41 UNL     1      18.863   0.048  18.390  1.00  0.00     0.157 HD
BRANCH   8  12
HETATM   12  C4  UNL     1      21.094   0.201  19.365  1.00  0.00     0.075 C 
BRANCH  12  13
HETATM   13  C5  UNL     1      21.244   1.381  18.471  1.00  0.00     0.007 C 
BRANCH  13  14
HETATM   14  C6  UNL     1      22.405   2.223  18.941  1.00  0.00     0.001 C 
BRANCH  14  15
HETATM   15  C7  UNL     1      23.412   1.492  19.762  1.00  0.00     0.009 C 
BRANCH  15  16
HETATM   16  C8  UNL     1      23.632   2.213  21.098  1.00  0.00     0.099 C 
BRANCH  16  17
HETATM   17  C9  UNL     1      23.098   1.384  22.194  1.00  0.00     0.231 C 
HETATM   18  N5  UNL     1      23.793   0.222  22.614  1.00  0.00    -0.062 NA
HETATM   19  O1  UNL     1      22.033   1.695  22.765  1.00  0.00    -0.277 OA
ENDBRANCH  16  17
ENDBRANCH  15  16
ENDBRANCH  14  15
ENDBRANCH  13  14
ENDBRANCH  12  13
ENDBRANCH   8  12
ENDBRANCH   6   8
ENDBRANCH   5   6
BRANCH   5  20
HETATM   20  C10 UNL     1      19.748  -0.537  23.826  1.00  0.00     0.326 C 
BRANCH  20  21
HETATM   21  N6  UNL     1      21.023  -1.182  23.829  1.00  0.00    -0.054 N 
ATOM     22  H63 UNL     1      21.503  -1.128  24.727  1.00  0.00     0.276 HD
ATOM     23  H62 UNL     1      20.963  -2.198  23.779  1.00  0.00     0.276 HD
ATOM     24  H61 UNL     1      21.552  -0.768  23.061  1.00  0.00     0.276 HD
ENDBRANCH  20  21
BRANCH  20  25
HETATM   25  N7  UNL     1      18.895  -1.043  24.848  1.00  0.00    -0.349 N 
HETATM   26  C11 UNL     1      18.854  -0.466  25.997  1.00  0.00     0.084 C 
HETATM   27  C12 UNL     1      17.925  -1.086  26.983  1.00  0.00     0.149 C 
HETATM   28  N9  UNL     1      19.624   0.667  26.306  1.00  0.00    -0.366 N 
HETATM   29  S1  UNL     1      18.182  -0.528  28.664  1.00  0.00    -0.159 SA
HETATM   30  C13 UNL     1      18.738   1.217  28.548  1.00  0.00     0.108 C 
HETATM   31  C14 UNL     1      19.938   1.176  27.596  1.00  0.00     0.181 C 
ATOM     32  H9  UNL     1      20.003   1.184  25.512  1.00  0.00     0.161 HD
ATOM     33  H7  UNL     1      18.316  -1.863  24.669  1.00  0.00     0.163 HD
BRANCH  31  34
HETATM   34  C15 UNL     1      20.989   0.410  28.298  1.00  0.00     0.254 C 
HETATM   35  N8  UNL     1      22.064  -0.230  27.647  1.00  0.00    -0.060 NA
HETATM   36  O2  UNL     1      20.916   0.326  29.549  1.00  0.00    -0.275 OA
ENDBRANCH  31  34
ENDBRANCH  20  25
ENDBRANCH   5  20
ENDBRANCH   3   5
TORSDOF 13
ENDMDL
MODEL 3
REMARK VINA RESULT: -8.337048941      1.785      2.039
REMARK  13 active torsions:
REMARK  status: ('A' for Active; 'I' for Inactive)
REMARK    1  A    between atoms: N2_3  and  C2_5 
REMARK    2  A    between atoms: C2_5  and  N3_6 
REMARK    3  A    between atoms: C2_5  and  C10_20 
REMARK    4  A    between atoms: N3_6  and  C3_8 
REMARK    5  A    between atoms: C3_8  and  C4_12 
REMARK    6  A    between atoms: C4_12  and  C5_13 
REMARK    7  A    between atoms: C5_13  and  C6_14 
REMARK    8  A    between atoms: C6_14  and  C7_15 
REMARK    9  A    between atoms: C7_15  and  C8_16 
REMARK   10  A    between atoms: C8_16  and  C9_17 
REMARK   11  A    between atoms: C10_20  and  N6_21 
REMARK   12  A    between atoms: C10_20  and  N7_25 
REMARK   13  A    between atoms: C14_31  and  C15_32 
ROOT
HETATM    1  N1  UNL     1      15.623   0.001  20.144  1.00  0.00    -0.172 NA
HETATM    2  C1  UNL     1      16.147  -0.496  21.044  1.00  0.00     0.179 C 
HETATM    3  N2  UNL     1      16.767  -1.114  22.117  1.00  0.00    -0.303 N 
ATOM      4  H2  UNL     1      16.177  -1.677  22.729  1.00  0.00     0.174 HD
ENDROOT
BRANCH   3   5
HETATM    5  C2  UNL     1      18.174  -1.038  22.453  1.00  0.00     0.242 C 
BRANCH   5   6
HETATM    6  N3  UNL     1      18.802  -0.015  21.689  1.00  0.00    -0.355 N 
ATOM      7  H3  UNL     1      18.661   0.916  22.083  1.00  0.00     0.163 HD
BRANCH   6   8
HETATM    8  C3  UNL     1      19.556  -0.001  20.537  1.00  0.00     0.072 C 
HETATM    9  N4  UNL     1      18.902   0.106  19.384  1.00  0.00    -0.389 N 
ATOM     10  H42 UNL     1      17.888   0.164  19.472  1.00  0.00     0.157 HD
ATOM     11  H41 UNL     1      19.460   0.116  18.530  1.00  0.00     0.157 HD
BRANCH   8  12
HETATM   12  C4  UNL     1      21.000  -0.084  20.412  1.00  0.00     0.075 C 
BRANCH  12  13
HETATM   13  C5  UNL     1      21.715   1.118  19.903  1.00  0.00     0.007 C 
BRANCH  13  14
HETATM   14  C6  UNL     1      23.034   1.261  20.622  1.00  0.00     0.001 C 
BRANCH  14  15
HETATM   15  C7  UNL     1      23.061   0.677  21.994  1.00  0.00     0.009 C 
BRANCH  15  16
HETATM   16  C8  UNL     1      23.876  -0.622  22.003  1.00  0.00     0.099 C 
BRANCH  16  17
HETATM   17  C9  UNL     1      23.881  -1.186  23.365  1.00  0.00     0.231 C 
HETATM   18  N5  UNL     1      23.021  -2.263  23.695  1.00  0.00    -0.062 NA
HETATM   19  O1  UNL     1      24.641  -0.724  24.241  1.00  0.00    -0.277 OA
ENDBRANCH  16  17
ENDBRANCH  15  16
ENDBRANCH  14  15
ENDBRANCH  13  14
ENDBRANCH  12  13
ENDBRANCH   8  12
ENDBRANCH   6   8
ENDBRANCH   5   6
BRANCH   5  20
HETATM   20  C10 UNL     1      18.135  -0.514  23.939  1.00  0.00     0.326 C 
BRANCH  20  21
HETATM   21  N6  UNL     1      17.438   0.733  23.903  1.00  0.00    -0.054 N 
ATOM     22  H63 UNL     1      18.056   1.544  23.912  1.00  0.00     0.276 HD
ATOM     23  H62 UNL     1      16.994   0.924  23.005  1.00  0.00     0.276 HD
ATOM     24  H61 UNL     1      16.782   0.714  24.684  1.00  0.00     0.276 HD
ENDBRANCH  20  21
BRANCH  20  25
HETATM   25  N7  UNL     1      19.467  -0.363  24.421  1.00  0.00    -0.349 N 
HETATM   26  C11 UNL     1      19.700  -0.384  25.686  1.00  0.00     0.084 C 
HETATM   27  C12 UNL     1      21.131  -0.217  26.066  1.00  0.00     0.149 C 
HETATM   28  N9  UNL     1      18.687  -0.552  26.643  1.00  0.00    -0.366 N 
HETATM   29  S1  UNL     1      21.376   0.152  27.801  1.00  0.00    -0.159 SA
HETATM   30  C13 UNL     1      20.038  -0.718  28.707  1.00  0.00     0.108 C 
HETATM   31  C14 UNL     1      18.746  -0.248  28.031  1.00  0.00     0.181 C 
ATOM     32  H9  UNL     1      17.805  -0.936  26.302  1.00  0.00     0.161 HD
ATOM     33  H7  UNL     1      20.235  -0.240  23.762  1.00  0.00     0.163 HD
BRANCH  31  34
HETATM   34  C15 UNL     1      18.632   1.195  28.329  1.00  0.00     0.254 C 
HETATM   35  N8  UNL     1      18.184   2.158  27.400  1.00  0.00    -0.060 NA
HETATM   36  O2  UNL     1      18.955   1.583  29.479  1.00  0.00    -0.275 OA
ENDBRANCH  31  34
ENDBRANCH  20  25
ENDBRANCH   5  20
ENDBRANCH   3   5
TORSDOF 13
ENDMDL
MODEL 4
REMARK VINA RESULT: -8.310135550      1.920      3.035
REMARK  13 active torsions:
REMARK  status: ('A' for Active; 'I' for Inactive)
REMARK    1  A    between atoms: N2_3  and  C2_5 
REMARK    2  A    between atoms: C2_5  and  N3_6 
REMARK    3  A    between atoms: C2_5  and  C10_20 
REMARK    4  A    between atoms: N3_6  and  C3_8 
REMARK    5  A    between atoms: C3_8  and  C4_12 
REMARK    6  A    between atoms: C4_12  and  C5_13 
REMARK    7  A    between atoms: C5_13  and  C6_14 
REMARK    8  A    between atoms: C6_14  and  C7_15 
REMARK    9  A    between atoms: C7_15  and  C8_16 
REMARK   10  A    between atoms: C8_16  and  C9_17 
REMARK   11  A    between atoms: C10_20  and  N6_21 
REMARK   12  A    between atoms: C10_20  and  N7_25 
REMARK   13  A    between atoms: C14_31  and  C15_32 
ROOT
HETATM    1  N1  UNL     1      22.007  -1.155  25.485  1.00  0.00    -0.172 NA
HETATM    2  C1  UNL     1      21.494  -1.008  24.463  1.00  0.00     0.179 C 
HETATM    3  N2  UNL     1      20.875  -0.857  23.233  1.00  0.00    -0.303 N 
ATOM      4  H2  UNL     1      21.303  -1.334  22.440  1.00  0.00     0.174 HD
ENDROOT
BRANCH   3   5
HETATM    5  C2  UNL     1      19.678  -0.086  22.965  1.00  0.00     0.242 C 
BRANCH   5   6
HETATM    6  N3  UNL     1      19.160  -0.423  21.684  1.00  0.00    -0.355 N 
ATOM      7  H3  UNL     1      18.376  -1.074  21.731  1.00  0.00     0.163 HD
BRANCH   6   8
HETATM    8  C3  UNL     1      19.481  -0.064  20.393  1.00  0.00     0.072 C 
HETATM    9  N4  UNL     1      18.493  -0.047  19.504  1.00  0.00    -0.389 N 
ATOM     10  H42 UNL     1      17.580  -0.310  19.874  1.00  0.00     0.157 HD
ATOM     11  H41 UNL     1      18.730   0.219  18.548  1.00  0.00     0.157 HD
BRANCH   8  12
HETATM   12  C4  UNL     1      20.781   0.310  19.866  1.00  0.00     0.075 C 
BRANCH  12  13
HETATM   13  C5  UNL     1      20.811   1.288  18.744  1.00  0.00     0.007 C 
BRANCH  13  14
HETATM   14  C6  UNL     1      22.113   2.051  18.777  1.00  0.00     0.001 C 
BRANCH  14  15
HETATM   15  C7  UNL     1      23.169   1.443  19.636  1.00  0.00     0.009 C 
BRANCH  15  16
HETATM   16  C8  UNL     1      23.480   2.359  20.825  1.00  0.00     0.099 C 
BRANCH  16  17
HETATM   17  C9  UNL     1      23.144   1.662  22.080  1.00  0.00     0.231 C 
HETATM   18  N5  UNL     1      23.755   0.423  22.394  1.00  0.00    -0.062 NA
HETATM   19  O1  UNL     1      22.320   2.153  22.879  1.00  0.00    -0.277 OA
ENDBRANCH  16  17
ENDBRANCH  15  16
ENDBRANCH  14  15
ENDBRANCH  13  14
ENDBRANCH  12  13
ENDBRANCH   8  12
ENDBRANCH   6   8
ENDBRANCH   5   6
BRANCH   5  20
HETATM   20  C10 UNL     1      18.661  -0.674  24.017  1.00  0.00     0.326 C 
BRANCH  20  21
HETATM   21  N6  UNL     1      17.776  -1.523  23.284  1.00  0.00    -0.054 N 
ATOM     22  H63 UNL     1      16.912  -1.060  23.000  1.00  0.00     0.276 HD
ATOM     23  H62 UNL     1      18.111  -1.746  22.347  1.00  0.00     0.276 HD
ATOM     24  H61 UNL     1      17.623  -2.345  23.867  1.00  0.00     0.276 HD
ENDBRANCH  20  21
BRANCH  20  25
HETATM   25  N7  UNL     1      17.967   0.397  24.650  1.00  0.00    -0.349 N 
HETATM   26  C11 UNL     1      18.147   0.631  25.902  1.00  0.00     0.084 C 
HETATM   27  C12 UNL     1      17.366   1.776  26.449  1.00  0.00     0.149 C 
HETATM   28  N9  UNL     1      19.015  -0.132  26.699  1.00  0.00    -0.366 N 
HETATM   29  S1  UNL     1      17.322   1.826  28.238  1.00  0.00    -0.159 SA
HETATM   30  C13 UNL     1      18.927   1.149  28.813  1.00  0.00     0.108 C 
HETATM   31  C14 UNL     1      19.041  -0.212  28.119  1.00  0.00     0.181 C 
ATOM     32  H9  UNL     1      19.706  -0.694  26.202  1.00  0.00     0.161 HD
ATOM     33  H7  UNL     1      17.326   0.979  24.109  1.00  0.00     0.163 HD
BRANCH  31  34
HETATM   34  C15 UNL     1      17.965  -1.050  28.687  1.00  0.00     0.254 C 
HETATM   35  N8  UNL     1      17.562  -1.005  30.039  1.00  0.00    -0.060 NA
HETATM   36  O2  UNL     1      17.377  -1.850  27.918  1.00  0.00    -0.275 OA
ENDBRANCH  31  34
ENDBRANCH  20  25
ENDBRANCH   5  20
ENDBRANCH   3   5
TORSDOF 13
ENDMDL
MODEL 5
REMARK VINA RESULT: -8.254280704      2.068      3.207
REMARK  13 active torsions:
REMARK  status: ('A' for Active; 'I' for Inactive)
REMARK    1  A    between atoms: N2_3  and  C2_5 
REMARK    2  A    between atoms: C2_5  and  N3_6 
REMARK    3  A    between atoms: C2_5  and  C10_20 
REMARK    4  A    between atoms: N3_6  and  C3_8 
REMARK    5  A    between atoms: C3_8  and  C4_12 
REMARK    6  A    between atoms: C4_12  and  C5_13 
REMARK    7  A    between atoms: C5_13  and  C6_14 
REMARK    8  A    between atoms: C6_14  and  C7_15 
REMARK    9  A    between atoms: C7_15  and  C8_16 
REMARK   10  A    between atoms: C8_16  and  C9_17 
REMARK   11  A    between atoms: C10_20  and  N6_21 
REMARK   12  A    between atoms: C10_20  and  N7_25 
REMARK   13  A    between atoms: C14_31  and  C15_32 
ROOT
HETATM    1  N1  UNL     1      23.808  -1.879  23.836  1.00  0.00    -0.172 NA
HETATM    2  C1  UNL     1      22.783  -1.700  23.338  1.00  0.00     0.179 C 
HETATM    3  N2  UNL     1      21.545  -1.508  22.748  1.00  0.00    -0.303 N 
ATOM      4  H2  UNL     1      21.240  -2.212  22.077  1.00  0.00     0.174 HD
ENDROOT
BRANCH   3   5
HETATM    5  C2  UNL     1      20.642  -0.402  22.993  1.00  0.00     0.242 C 
BRANCH   5   6
HETATM    6  N3  UNL     1      19.649  -0.351  21.975  1.00  0.00    -0.355 N 
ATOM      7  H3  UNL     1      18.713  -0.559  22.324  1.00  0.00     0.163 HD
BRANCH   6   8
HETATM    8  C3  UNL     1      19.670  -0.084  20.624  1.00  0.00     0.072 C 
HETATM    9  N4  UNL     1      18.520  -0.190  19.966  1.00  0.00    -0.389 N 
ATOM     10  H42 UNL     1      17.724  -0.467  20.539  1.00  0.00     0.157 HD
ATOM     11  H41 UNL     1      18.535   0.008  18.965  1.00  0.00     0.157 HD
BRANCH   8  12
HETATM   12  C4  UNL     1      20.804   0.312  19.808  1.00  0.00     0.075 C 
BRANCH  12  13
HETATM   13  C5  UNL     1      20.557   1.297  18.721  1.00  0.00     0.007 C 
BRANCH  13  14
HETATM   14  C6  UNL     1      21.876   1.781  18.171  1.00  0.00     0.001 C 
BRANCH  14  15
HETATM   15  C7  UNL     1      22.662   2.637  19.104  1.00  0.00     0.009 C 
BRANCH  15  16
HETATM   16  C8  UNL     1      23.595   1.772  19.961  1.00  0.00     0.099 C 
BRANCH  16  17
HETATM   17  C9  UNL     1      23.653   2.321  21.327  1.00  0.00     0.231 C 
HETATM   18  N5  UNL     1      23.932   3.696  21.533  1.00  0.00    -0.062 NA
HETATM   19  O1  UNL     1      23.455   1.587  22.317  1.00  0.00    -0.277 OA
ENDBRANCH  16  17
ENDBRANCH  15  16
ENDBRANCH  14  15
ENDBRANCH  13  14
ENDBRANCH  12  13
ENDBRANCH   8  12
ENDBRANCH   6   8
ENDBRANCH   5   6
BRANCH   5  20
HETATM   20  C10 UNL     1      19.900  -0.861  24.306  1.00  0.00     0.326 C 
BRANCH  20  21
HETATM   21  N6  UNL     1      18.963  -1.862  23.905  1.00  0.00    -0.054 N 
ATOM     22  H63 UNL     1      18.073  -1.807  24.400  1.00  0.00     0.276 HD
ATOM     23  H62 UNL     1      18.593  -1.717  22.965  1.00  0.00     0.276 HD
ATOM     24  H61 UNL     1      19.437  -2.758  24.021  1.00  0.00     0.276 HD
ENDBRANCH  20  21
BRANCH  20  25
HETATM   25  N7  UNL     1      19.256   0.261  24.900  1.00  0.00    -0.349 N 
HETATM   26  C11 UNL     1      19.073   0.300  26.173  1.00  0.00     0.084 C 
HETATM   27  C12 UNL     1      18.389   1.524  26.676  1.00  0.00     0.149 C 
HETATM   28  N9  UNL     1      19.485  -0.732  27.031  1.00  0.00    -0.366 N 
HETATM   29  S1  UNL     1      17.792   1.376  28.357  1.00  0.00    -0.159 SA
HETATM   30  C13 UNL     1      18.977   0.280  29.229  1.00  0.00     0.108 C 
HETATM   31  C14 UNL     1      19.047  -0.980  28.361  1.00  0.00     0.181 C 
ATOM     32  H9  UNL     1      20.180  -1.379  26.657  1.00  0.00     0.161 HD
ATOM     33  H7  UNL     1      18.940   1.035  24.316  1.00  0.00     0.163 HD
BRANCH  31  34
HETATM   34  C15 UNL     1      17.709  -1.603  28.440  1.00  0.00     0.254 C 
HETATM   35  N8  UNL     1      17.019  -1.836  29.648  1.00  0.00    -0.060 NA
HETATM   36  O2  UNL     1      17.157  -1.945  27.365  1.00  0.00    -0.275 OA
ENDBRANCH  31  34
ENDBRANCH  20  25
ENDBRANCH   5  20
ENDBRANCH   3   5
TORSDOF 13
ENDMDL
