MODEL 1
REMARK VINA RESULT: -8.582195531      0.000      0.000
REMARK  13 active torsions:
REMARK  status: ('A' for Active; 'I' for Inactive)
REMARK       I    between atoms: C1_4  and  N2_5 
REMARK       I    between atoms: C1_4  and  N7_33 
REMARK    1  A    between atoms: N2_5  and  C2_7 
REMARK    2  A    between atoms: C2_7  and  C3_8 
REMARK    3  A    between atoms: C3_8  and  C4_9 
REMARK    4  A    between atoms: C4_9  and  C5_10 
REMARK    5  A    between atoms: C5_10  and  N3_11 
REMARK    6  A    between atoms: C5_10  and  C15_30 
REMARK       I    between atoms: N3_11  and  C6_13 
REMARK    7  A    between atoms: C6_13  and  C7_15 
REMARK    8  A    between atoms: C7_15  and  C8_16 
REMARK    9  A    between atoms: C8_16  and  C9_17 
REMARK   10  A    between atoms: C9_17  and  N4_18 
REMARK   11  A    between atoms: C12_21  and  O2_22 
REMARK   12  A    between atoms: C13_24  and  N5_25 
REMARK   13  A    between atoms: N7_33  and  N8_35 
ROOT
HETATM    1  N3  UNL     1      17.290  -0.405  23.540  1.00  0.00    -0.348 N 
ATOM      2  H3  UNL     1      17.319  -1.383  23.830  1.00  0.00     0.163 HD
HETATM    3  C6  UNL     1      17.055   0.607  24.488  1.00  0.00     0.218 C 
HETATM    4  O1  UNL     1      17.010   1.821  24.180  1.00  0.00    -0.274 OA
ENDROOT
BRANCH   1   5
HETATM    5  C5  UNL     1      17.498  -0.033  22.083  1.00  0.00     0.173 C 
BRANCH   5   6
HETATM    6  C4  UNL     1      18.906  -0.373  21.770  1.00  0.00     0.036 C 
BRANCH   6   7
HETATM    7  C3  UNL     1      19.521  -0.115  20.469  1.00  0.00     0.023 C 
BRANCH   7   8
HETATM    8  C2  UNL     1      20.866   0.481  20.360  1.00  0.00     0.138 C 
BRANCH   8   9
HETATM    9  N2  UNL     1      21.864  -0.260  21.128  1.00  0.00    -0.225 N 
HETATM   10  C1  UNL     1      22.498   0.265  22.271  1.00  0.00     0.691 C 
HETATM   11  N1  UNL     1      21.960   1.225  22.915  1.00  0.00    -0.233 N 
HETATM   12  N7  UNL     1      23.727  -0.271  22.701  1.00  0.00    -0.072 N 
ATOM     13  H12 UNL     1      21.070   1.613  22.604  1.00  0.00     0.174 HD
ATOM     14  H11 UNL     1      22.419   1.605  23.743  1.00  0.00     0.174 HD
ATOM     15  H7  UNL     1      24.588   0.270  22.625  1.00  0.00     0.212 HD
ATOM     16  H2  UNL     1      22.112  -1.201  20.823  1.00  0.00     0.177 HD
BRANCH  12  17
HETATM   17  N8  UNL     1      23.737  -1.568  23.236  1.00  0.00    -0.024 N 
HETATM   18  O4  UNL     1      24.745  -2.054  23.801  1.00  0.00    -0.516 OA
HETATM   19  O5  UNL     1      22.625  -2.372  23.161  1.00  0.00    -0.516 OA
ENDBRANCH  12  17
ENDBRANCH   8   9
ENDBRANCH   7   8
ENDBRANCH   6   7
ENDBRANCH   5   6
BRANCH   5  20
HETATM   20  C15 UNL     1      16.449  -0.720  21.319  1.00  0.00     0.254 C 
HETATM   21  N6  UNL     1      15.690  -0.091  20.281  1.00  0.00    -0.060 NA
HETATM   22  O3  UNL     1      16.150  -1.940  21.558  1.00  0.00    -0.275 OA
ENDBRANCH   5  20
ENDBRANCH   1   5
BRANCH   3  23
HETATM   23  C7  UNL     1      16.854   0.220  25.898  1.00  0.00     0.104 C 
BRANCH  23  24
HETATM   24  C8  UNL     1      17.014   1.326  26.874  1.00  0.00     0.039 C 
BRANCH  24  25
HETATM   25  C9  UNL     1      18.378   1.484  27.430  1.00  0.00     0.273 C 
BRANCH  25  26
HETATM   26  N4  UNL     1      19.180   0.292  27.094  1.00  0.00     0.090 N 
HETATM   27  C10 UNL     1      19.498  -0.388  28.281  1.00  0.00     0.275 C 
HETATM   28  C11 UNL     1      20.790  -1.138  28.300  1.00  0.00     0.064 C 
HETATM   29  C12 UNL     1      21.903  -0.444  27.582  1.00  0.00     0.152 C 
HETATM   30  C13 UNL     1      21.412  -0.197  26.164  1.00  0.00     0.240 C 
HETATM   31  C14 UNL     1      20.215   0.695  26.235  1.00  0.00     0.307 C 
BRANCH  29  32
HETATM   32  O2  UNL     1      22.217   0.760  28.192  1.00  0.00    -0.393 OA
ATOM     33  H2  UNL     1      23.127   0.989  28.050  1.00  0.00     0.210 HD
ENDBRANCH  29  32
BRANCH  30  34
HETATM   34  N5  UNL     1      21.189  -1.435  25.488  1.00  0.00    -0.071 N 
ATOM     35  H53 UNL     1      21.495  -2.231  26.046  1.00  0.00     0.274 HD
ATOM     36  H52 UNL     1      20.196  -1.662  25.430  1.00  0.00     0.274 HD
ATOM     37  H51 UNL     1      21.630  -1.425  24.568  1.00  0.00     0.274 HD
ENDBRANCH  30  34
ENDBRANCH  25  26
ENDBRANCH  24  25
ENDBRANCH  23  24
ENDBRANCH   3  23
TORSDOF 13
ENDMDL
MODEL 2
REMARK VINA RESULT: -8.448306533      1.613      2.221
REMARK  13 active torsions:
REMARK  status: ('A' for Active; 'I' for Inactive)
REMARK       I    between atoms: C1_4  and  N2_5 
REMARK       I    between atoms: C1_4  and  N7_33 
REMARK    1  A    between atoms: N2_5  and  C2_7 
REMARK    2  A    between atoms: C2_7  and  C3_8 
REMARK    3  A    between atoms: C3_8  and  C4_9 
REMARK    4  A    between atoms: C4_9  and  C5_10 
REMARK    5  A    between atoms: C5_10  and  N3_11 
REMARK    6  A    between atoms: C5_10  and  C15_30 
REMARK       I    between atoms: N3_11  and  C6_13 
REMARK    7  A    between atoms: C6_13  and  C7_15 
REMARK    8  A    between atoms: C7_15  and  C8_16 
REMARK    9  A    between atoms: C8_16  and  C9_17 
REMARK   10  A    between atoms: C9_17  and  N4_18 
REMARK   11  A    between atoms: C12_21  and  O2_22 
REMARK   12  A    between atoms: C13_24  and  N5_25 
REMARK   13  A    between atoms: N7_33  and  N8_35 
ROOT
HETATM    1  N3  UNL     1      17.397  -0.950  22.317  1.00  0.00    -0.348 N 
ATOM      2  H3  UNL     1      16.960  -1.831  22.044  1.00  0.00     0.163 HD
HETATM    3  C6  UNL     1      17.605  -0.653  23.675  1.00  0.00     0.218 C 
HETATM    4  O1  UNL     1      18.137   0.414  24.058  1.00  0.00    -0.274 OA
ENDROOT
BRANCH   1   5
HETATM    5  C5  UNL     1      17.828   0.049  21.258  1.00  0.00     0.173 C 
BRANCH   5   6
HETATM    6  C4  UNL     1      19.172  -0.384  20.808  1.00  0.00     0.036 C 
BRANCH   6   7
HETATM    7  C3  UNL     1      20.027   0.429  19.945  1.00  0.00     0.023 C 
BRANCH   7   8
HETATM    8  C2  UNL     1      21.496   0.404  20.074  1.00  0.00     0.138 C 
BRANCH   8   9
HETATM    9  N2  UNL     1      21.935  -0.324  21.261  1.00  0.00    -0.225 N 
HETATM   10  C1  UNL     1      22.504   0.308  22.383  1.00  0.00     0.691 C 
HETATM   11  N1  UNL     1      22.301   1.550  22.587  1.00  0.00    -0.233 N 
HETATM   12  N7  UNL     1      23.297  -0.432  23.280  1.00  0.00    -0.072 N 
ATOM     13  H12 UNL     1      21.726   2.087  21.938  1.00  0.00     0.174 HD
ATOM     14  H11 UNL     1      22.712   2.008  23.400  1.00  0.00     0.174 HD
ATOM     15  H7  UNL     1      24.302  -0.272  23.343  1.00  0.00     0.212 HD
ATOM     16  H2  UNL     1      21.825  -1.339  21.278  1.00  0.00     0.177 HD
BRANCH  12  17
HETATM   17  N8  UNL     1      22.670  -1.396  24.085  1.00  0.00    -0.024 N 
HETATM   18  O4  UNL     1      22.458  -2.566  23.690  1.00  0.00    -0.516 OA
HETATM   19  O5  UNL     1      22.257  -1.091  25.359  1.00  0.00    -0.516 OA
ENDBRANCH  12  17
ENDBRANCH   8   9
ENDBRANCH   7   8
ENDBRANCH   6   7
ENDBRANCH   5   6
BRANCH   5  20
HETATM   20  C15 UNL     1      16.757   0.086  20.254  1.00  0.00     0.254 C 
HETATM   21  N6  UNL     1      15.401  -0.276  20.534  1.00  0.00    -0.060 NA
HETATM   22  O3  UNL     1      16.995   0.444  19.049  1.00  0.00    -0.275 OA
ENDBRANCH   5  20
ENDBRANCH   1   5
BRANCH   3  23
HETATM   23  C7  UNL     1      17.176  -1.640  24.685  1.00  0.00     0.104 C 
BRANCH  23  24
HETATM   24  C8  UNL     1      16.681  -1.053  25.955  1.00  0.00     0.039 C 
BRANCH  24  25
HETATM   25  C9  UNL     1      17.104  -1.763  27.185  1.00  0.00     0.273 C 
BRANCH  25  26
HETATM   26  N4  UNL     1      17.824  -0.821  28.065  1.00  0.00     0.090 N 
HETATM   27  C10 UNL     1      17.522   0.491  27.663  1.00  0.00     0.275 C 
HETATM   28  C11 UNL     1      18.584   1.520  27.881  1.00  0.00     0.064 C 
HETATM   29  C12 UNL     1      19.970   1.022  27.629  1.00  0.00     0.152 C 
HETATM   30  C13 UNL     1      20.163  -0.189  28.529  1.00  0.00     0.240 C 
HETATM   31  C14 UNL     1      19.165  -1.227  28.129  1.00  0.00     0.307 C 
BRANCH  29  32
HETATM   32  O2  UNL     1      20.137   0.659  26.302  1.00  0.00    -0.393 OA
ATOM     33  H2  UNL     1      20.675  -0.120  26.225  1.00  0.00     0.210 HD
ENDBRANCH  29  32
BRANCH  30  34
HETATM   34  N5  UNL     1      20.101   0.194  29.903  1.00  0.00    -0.071 N 
ATOM     35  H53 UNL     1      20.839   0.855  30.146  1.00  0.00     0.274 HD
ATOM     36  H52 UNL     1      19.295   0.789  30.095  1.00  0.00     0.274 HD
ATOM     37  H51 UNL     1      20.116  -0.630  30.505  1.00  0.00     0.274 HD
ENDBRANCH  30  34
ENDBRANCH  25  26
ENDBRANCH  24  25
ENDBRANCH  23  24
ENDBRANCH   3  23
TORSDOF 13
ENDMDL
MODEL 3
REMARK VINA RESULT: -8.347012319      1.667      2.346
REMARK  13 active torsions:
REMARK  status: ('A' for Active; 'I' for Inactive)
REMARK       I    between atoms: C1_4  and  N2_5 
REMARK       I    between atoms: C1_4  and  N7_33 
REMARK    1  A    between atoms: N2_5  and  C2_7 
REMARK    2  A    between atoms: C2_7  and  C3_8 
REMARK    3  A    between atoms: C3_8  and  C4_9 
REMARK    4  A    between atoms: C4_9  and  C5_10 
REMARK    5  A    between atoms: C5_10  and  N3_11 
REMARK    6  A    between atoms: C5_10  and  C15_30 
REMARK       I    between atoms: N3_11  and  C6_13 
REMARK    7  A    between atoms: C6_13  and  C7_15 
REMARK    8  A    between atoms: C7_15  and  C8_16 
REMARK    9  A    between atoms: C8_16  and  C9_17 
REMARK   10  A    between atoms: C9_17  and  N4_18 
REMARK   11  A    between atoms: C12_21  and  O2_22 
REMARK   12  A    between atoms: C13_24  and  N5_25 
REMARK   13  A    between atoms: N7_33  and  N8_35 
ROOT
HETATM    1  N3  UNL     1      17.626   0.361  23.688  1.00  0.00    -0.348 N 
ATOM      2  H3  UNL     1      17.618   1.337  23.391  1.00  0.00     0.163 HD
HETATM    3  C6  UNL     1      16.985  -0.021  24.880  1.00  0.00     0.218 C 
HETATM    4  O1  UNL     1      16.967  -1.206  25.286  1.00  0.00    -0.274 OA
ENDROOT
BRANCH   1   5
HETATM    5  C5  UNL     1      18.328  -0.689  22.846  1.00  0.00     0.173 C 
BRANCH   5   6
HETATM    6  C4  UNL     1      18.346  -0.161  21.461  1.00  0.00     0.036 C 
BRANCH   6   7
HETATM    7  C3  UNL     1      19.454  -0.382  20.535  1.00  0.00     0.023 C 
BRANCH   7   8
HETATM    8  C2  UNL     1      20.657   0.473  20.556  1.00  0.00     0.138 C 
BRANCH   8   9
HETATM    9  N2  UNL     1      21.768  -0.153  21.267  1.00  0.00    -0.225 N 
HETATM   10  C1  UNL     1      22.635   0.560  22.117  1.00  0.00     0.691 C 
HETATM   11  N1  UNL     1      22.265   1.673  22.618  1.00  0.00    -0.233 N 
HETATM   12  N7  UNL     1      23.911   0.043  22.414  1.00  0.00    -0.072 N 
ATOM     13  H12 UNL     1      21.341   2.048  22.403  1.00  0.00     0.174 HD
ATOM     14  H11 UNL     1      22.893   2.189  23.234  1.00  0.00     0.174 HD
ATOM     15  H7  UNL     1      24.753   0.491  22.054  1.00  0.00     0.212 HD
ATOM     16  H2  UNL     1      21.924  -1.154  21.141  1.00  0.00     0.177 HD
BRANCH  12  17
HETATM   17  N8  UNL     1      23.994  -1.104  23.217  1.00  0.00    -0.024 N 
HETATM   18  O4  UNL     1      24.707  -2.088  22.912  1.00  0.00    -0.516 OA
HETATM   19  O5  UNL     1      23.285  -1.198  24.391  1.00  0.00    -0.516 OA
ENDBRANCH  12  17
ENDBRANCH   8   9
ENDBRANCH   7   8
ENDBRANCH   6   7
ENDBRANCH   5   6
BRANCH   5  20
HETATM   20  C15 UNL     1      19.623  -0.947  23.489  1.00  0.00     0.254 C 
HETATM   21  N6  UNL     1      20.269  -2.224  23.475  1.00  0.00    -0.060 NA
HETATM   22  O3  UNL     1      20.244  -0.021  24.115  1.00  0.00    -0.275 OA
ENDBRANCH   5  20
ENDBRANCH   1   5
BRANCH   3  23
HETATM   23  C7  UNL     1      16.310   1.018  25.681  1.00  0.00     0.104 C 
BRANCH  23  24
HETATM   24  C8  UNL     1      17.079   1.490  26.860  1.00  0.00     0.039 C 
BRANCH  24  25
HETATM   25  C9  UNL     1      18.522   1.722  26.619  1.00  0.00     0.273 C 
BRANCH  25  26
HETATM   26  N4  UNL     1      19.298   1.152  27.738  1.00  0.00     0.090 N 
HETATM   27  C10 UNL     1      20.659   1.433  27.533  1.00  0.00     0.275 C 
HETATM   28  C11 UNL     1      21.638   0.439  28.068  1.00  0.00     0.064 C 
HETATM   29  C12 UNL     1      21.197  -0.982  27.924  1.00  0.00     0.152 C 
HETATM   30  C13 UNL     1      19.848  -1.087  28.618  1.00  0.00     0.240 C 
HETATM   31  C14 UNL     1      18.892  -0.180  27.913  1.00  0.00     0.307 C 
BRANCH  29  32
HETATM   32  O2  UNL     1      21.074  -1.333  26.590  1.00  0.00    -0.393 OA
ATOM     33  H2  UNL     1      20.161  -1.417  26.340  1.00  0.00     0.210 HD
ENDBRANCH  29  32
BRANCH  30  34
HETATM   34  N5  UNL     1      19.983  -0.832  30.016  1.00  0.00    -0.071 N 
ATOM     35  H53 UNL     1      20.179  -1.686  30.539  1.00  0.00     0.274 HD
ATOM     36  H52 UNL     1      20.842  -0.324  30.228  1.00  0.00     0.274 HD
ATOM     37  H51 UNL     1      19.158  -0.350  30.374  1.00  0.00     0.274 HD
ENDBRANCH  30  34
ENDBRANCH  25  26
ENDBRANCH  24  25
ENDBRANCH  23  24
ENDBRANCH   3  23
TORSDOF 13
ENDMDL
MODEL 4
REMARK VINA RESULT: -8.276682142      1.968      2.683
REMARK  13 active torsions:
REMARK  status: ('A' for Active; 'I' for Inactive)
REMARK       I    between atoms: C1_4  and  N2_5 
REMARK       I    between atoms: C1_4  and  N7_33 
REMARK    1  A    between atoms: N2_5  and  C2_7 
REMARK    2  A    between atoms: C2_7  and  C3_8 
REMARK    3  A    between atoms: C3_8  and  C4_9 
REMARK    4  A    between atoms: C4_9  and  C5_10 
REMARK    5  A    between atoms: C5_10  and  N3_11 
REMARK    6  A    between atoms: C5_10  and  C15_30 
REMARK       I    between atoms: N3_11  and  C6_13 
REMARK    7  A    between atoms: C6_13  and  C7_15 
REMARK    8  A    between atoms: C7_15  and  C8_16 
REMARK    9  A    between atoms: C8_16  and  C9_17 
REMARK   10  A    between atoms: C9_17  and  N4_18 
REMARK   11  A    between atoms: C12_21  and  O2_22 
REMARK   12  A    between atoms: C13_24  and  N5_25 
REMARK   13  A    between atoms: N7_33  and  N8_35 
ROOT
HETATM    1  N3  UNL     1      17.711  -0.928  22.291  1.00  0.00    -0.348 N 
ATOM      2  H3  UNL     1      17.722  -1.937  22.142  1.00  0.00     0.163 HD
HETATM    3  C6  UNL     1      17.583  -0.405  23.590  1.00  0.00     0.218 C 
HETATM    4  O1  UNL     1      17.564   0.826  23.823  1.00  0.00    -0.274 OA
ENDROOT
BRANCH   1   5
HETATM    5  C5  UNL     1      17.831   0.020  21.111  1.00  0.00     0.173 C 
BRANCH   5   6
HETATM    6  C4  UNL     1      18.990  -0.456  20.319  1.00  0.00     0.036 C 
BRANCH   6   7
HETATM    7  C3  UNL     1      20.111   0.404  19.945  1.00  0.00     0.023 C 
BRANCH   7   8
HETATM    8  C2  UNL     1      21.373   0.398  20.709  1.00  0.00     0.138 C 
BRANCH   8   9
HETATM    9  N2  UNL     1      21.156   0.165  22.134  1.00  0.00    -0.225 N 
HETATM   10  C1  UNL     1      21.632  -0.978  22.807  1.00  0.00     0.691 C 
HETATM   11  N1  UNL     1      22.595  -1.653  22.315  1.00  0.00    -0.233 N 
HETATM   12  N7  UNL     1      21.042  -1.374  24.022  1.00  0.00    -0.072 N 
ATOM     13  H12 UNL     1      23.023  -1.366  21.434  1.00  0.00     0.174 HD
ATOM     14  H11 UNL     1      22.939  -2.481  22.801  1.00  0.00     0.174 HD
ATOM     15  H7  UNL     1      20.482  -2.225  24.078  1.00  0.00     0.212 HD
ATOM     16  H2  UNL     1      20.637   0.862  22.668  1.00  0.00     0.177 HD
BRANCH  12  17
HETATM   17  N8  UNL     1      21.243  -0.570  25.154  1.00  0.00    -0.024 N 
HETATM   18  O4  UNL     1      21.974  -0.924  26.108  1.00  0.00    -0.516 OA
HETATM   19  O5  UNL     1      20.638   0.659  25.264  1.00  0.00    -0.516 OA
ENDBRANCH  12  17
ENDBRANCH   8   9
ENDBRANCH   7   8
ENDBRANCH   6   7
ENDBRANCH   5   6
BRANCH   5  20
HETATM   20  C15 UNL     1      16.521   0.039  20.450  1.00  0.00     0.254 C 
HETATM   21  N6  UNL     1      15.373  -0.653  20.954  1.00  0.00    -0.060 NA
HETATM   22  O3  UNL     1      16.341   0.683  19.360  1.00  0.00    -0.275 OA
ENDBRANCH   5  20
ENDBRANCH   1   5
BRANCH   3  23
HETATM   23  C7  UNL     1      17.465  -1.348  24.720  1.00  0.00     0.104 C 
BRANCH  23  24
HETATM   24  C8  UNL     1      17.407  -0.708  26.058  1.00  0.00     0.039 C 
BRANCH  24  25
HETATM   25  C9  UNL     1      17.311  -1.646  27.201  1.00  0.00     0.273 C 
BRANCH  25  26
HETATM   26  N4  UNL     1      17.887  -1.008  28.401  1.00  0.00     0.090 N 
HETATM   27  C10 UNL     1      17.203   0.194  28.645  1.00  0.00     0.275 C 
HETATM   28  C11 UNL     1      17.984   1.293  29.289  1.00  0.00     0.064 C 
HETATM   29  C12 UNL     1      19.399   1.387  28.816  1.00  0.00     0.152 C 
HETATM   30  C13 UNL     1      20.027   0.025  29.064  1.00  0.00     0.240 C 
HETATM   31  C14 UNL     1      19.283  -0.985  28.252  1.00  0.00     0.307 C 
BRANCH  29  32
HETATM   32  O2  UNL     1      19.454   1.698  27.467  1.00  0.00    -0.393 OA
ATOM     33  H2  UNL     1      19.824   2.562  27.329  1.00  0.00     0.210 HD
ENDBRANCH  29  32
BRANCH  30  34
HETATM   34  N5  UNL     1      20.074  -0.258  30.462  1.00  0.00    -0.071 N 
ATOM     35  H53 UNL     1      20.972  -0.654  30.738  1.00  0.00     0.274 HD
ATOM     36  H52 UNL     1      20.106   0.595  31.021  1.00  0.00     0.274 HD
ATOM     37  H51 UNL     1      19.296  -0.859  30.732  1.00  0.00     0.274 HD
ENDBRANCH  30  34
ENDBRANCH  25  26
ENDBRANCH  24  25
ENDBRANCH  23  24
ENDBRANCH   3  23
TORSDOF 13
ENDMDL
MODEL 5
REMARK VINA RESULT: -8.257270309      2.173      6.419
REMARK  13 active torsions:
REMARK  status: ('A' for Active; 'I' for Inactive)
REMARK       I    between atoms: C1_4  and  N2_5 
REMARK       I    between atoms: C1_4  and  N7_33 
REMARK    1  A    between atoms: N2_5  and  C2_7 
REMARK    2  A    between atoms: C2_7  and  C3_8 
REMARK    3  A    between atoms: C3_8  and  C4_9 
REMARK    4  A    between atoms: C4_9  and  C5_10 
REMARK    5  A    between atoms: C5_10  and  N3_11 
REMARK    6  A    between atoms: C5_10  and  C15_30 
REMARK       I    between atoms: N3_11  and  C6_13 
REMARK    7  A    between atoms: C6_13  and  C7_15 
REMARK    8  A    between atoms: C7_15  and  C8_16 
REMARK    9  A    between atoms: C8_16  and  C9_17 
REMARK   10  A    between atoms: C9_17  and  N4_18 
REMARK   11  A    between atoms: C12_21  and  O2_22 
REMARK   12  A    between atoms: C13_24  and  N5_25 
REMARK   13  A    between atoms: N7_33  and  N8_35 
ROOT
HETATM    1  N3  UNL     1      19.531   0.149  26.934  1.00  0.00    -0.348 N 
ATOM      2  H3  UNL     1      19.429  -0.788  27.325  1.00  0.00     0.163 HD
HETATM    3  C6  UNL     1      20.543   0.417  25.994  1.00  0.00     0.218 C 
HETATM    4  O1  UNL     1      20.707   1.550  25.486  1.00  0.00    -0.274 OA
ENDROOT
BRANCH   1   5
HETATM    5  C5  UNL     1      18.594   1.263  27.363  1.00  0.00     0.173 C 
BRANCH   5   6
HETATM    6  C4  UNL     1      17.263   0.916  26.808  1.00  0.00     0.036 C 
BRANCH   6   7
HETATM    7  C3  UNL     1      16.998   0.804  25.375  1.00  0.00     0.023 C 
BRANCH   7   8
HETATM    8  C2  UNL     1      17.088  -0.492  24.676  1.00  0.00     0.138 C 
BRANCH   8   9
HETATM    9  N2  UNL     1      17.263  -0.332  23.235  1.00  0.00    -0.225 N 
HETATM   10  C1  UNL     1      16.656  -1.180  22.288  1.00  0.00     0.691 C 
HETATM   11  N1  UNL     1      15.628  -1.862  22.609  1.00  0.00    -0.233 N 
HETATM   12  N7  UNL     1      17.187  -1.274  20.987  1.00  0.00    -0.072 N 
ATOM     13  H12 UNL     1      15.243  -1.794  23.551  1.00  0.00     0.174 HD
ATOM     14  H11 UNL     1      15.188  -2.476  21.924  1.00  0.00     0.174 HD
ATOM     15  H7  UNL     1      17.647  -2.127  20.671  1.00  0.00     0.212 HD
ATOM     16  H2  UNL     1      17.853   0.430  22.898  1.00  0.00     0.177 HD
BRANCH  12  17
HETATM   17  N8  UNL     1      17.066  -0.165  20.137  1.00  0.00    -0.024 N 
HETATM   18  O4  UNL     1      16.036   0.548  20.104  1.00  0.00    -0.516 OA
HETATM   19  O5  UNL     1      18.089   0.191  19.291  1.00  0.00    -0.516 OA
ENDBRANCH  12  17
ENDBRANCH   8   9
ENDBRANCH   7   8
ENDBRANCH   6   7
ENDBRANCH   5   6
BRANCH   5  20
HETATM   20  C15 UNL     1      18.711   1.374  28.821  1.00  0.00     0.254 C 
HETATM   21  N6  UNL     1      19.538   0.515  29.614  1.00  0.00    -0.060 NA
HETATM   22  O3  UNL     1      18.056   2.260  29.471  1.00  0.00    -0.275 OA
ENDBRANCH   5  20
ENDBRANCH   1   5
BRANCH   3  23
HETATM   23  C7  UNL     1      21.442  -0.682  25.594  1.00  0.00     0.104 C 
BRANCH  23  24
HETATM   24  C8  UNL     1      20.960  -1.494  24.449  1.00  0.00     0.039 C 
BRANCH  24  25
HETATM   25  C9  UNL     1      22.020  -2.161  23.658  1.00  0.00     0.273 C 
BRANCH  25  26
HETATM   26  N4  UNL     1      22.195  -1.444  22.380  1.00  0.00     0.090 N 
HETATM   27  C10 UNL     1      23.443  -0.801  22.391  1.00  0.00     0.275 C 
HETATM   28  C11 UNL     1      23.549   0.471  21.613  1.00  0.00     0.064 C 
HETATM   29  C12 UNL     1      22.328   1.330  21.687  1.00  0.00     0.152 C 
HETATM   30  C13 UNL     1      21.168   0.470  21.211  1.00  0.00     0.240 C 
HETATM   31  C14 UNL     1      21.035  -0.689  22.145  1.00  0.00     0.307 C 
BRANCH  29  32
HETATM   32  O2  UNL     1      22.100   1.761  22.984  1.00  0.00    -0.393 OA
ATOM     33  H2  UNL     1      22.508   2.604  23.142  1.00  0.00     0.210 HD
ENDBRANCH  29  32
BRANCH  30  34
HETATM   34  N5  UNL     1      21.340   0.110  19.840  1.00  0.00    -0.071 N 
ATOM     35  H53 UNL     1      20.486   0.251  19.302  1.00  0.00     0.274 HD
ATOM     36  H52 UNL     1      21.941   0.771  19.347  1.00  0.00     0.274 HD
ATOM     37  H51 UNL     1      21.685  -0.847  19.762  1.00  0.00     0.274 HD
ENDBRANCH  30  34
ENDBRANCH  25  26
ENDBRANCH  24  25
ENDBRANCH  23  24
ENDBRANCH   3  23
TORSDOF 13
ENDMDL
