MODEL 1
REMARK VINA RESULT: -8.267492575      0.000      0.000
REMARK  11 active torsions:
REMARK  status: ('A' for Active; 'I' for Inactive)
REMARK    1  A    between atoms: N1_2  and  C3_4 
REMARK    2  A    between atoms: C3_4  and  C4_5 
REMARK    3  A    between atoms: C3_4  and  C5_7 
REMARK    4  A    between atoms: C5_7  and  C6_8 
REMARK    5  A    between atoms: C6_8  and  C7_9 
REMARK    6  A    between atoms: C9_14  and  C10_15 
REMARK    7  A    between atoms: C10_15  and  C11_16 
REMARK       I    between atoms: N3_23  and  C18_24 
REMARK    8  A    between atoms: C18_24  and  C19_26 
REMARK    9  A    between atoms: C19_26  and  N4_27 
REMARK   10  A    between atoms: C19_26  and  C25_37 
REMARK       I    between atoms: N4_27  and  C20_29 
REMARK       I    between atoms: C20_29  and  N5_31 
REMARK   11  A    between atoms: N5_31  and  C21_33 
ROOT
HETATM    1  C7  UNL     1     -13.911  12.292  30.907  1.00  0.00     0.179 C 
HETATM    2  C8  UNL     1     -14.672  12.295  32.177  1.00  0.00     0.241 C 
HETATM    3  O1  UNL     1     -15.901  11.955  32.260  1.00  0.00    -0.271 OA
HETATM    4  N2  UNL     1     -13.956  12.706  33.341  1.00  0.00    -0.353 N 
ATOM      5  H2  UNL     1     -14.207  12.328  34.255  1.00  0.00     0.163 HD
HETATM    6  C9  UNL     1     -12.874  13.659  33.225  1.00  0.00     0.103 C 
HETATM    7  C17 UNL     1     -12.892  14.381  31.911  1.00  0.00     0.152 C 
HETATM    8  N3  UNL     1     -13.106  13.514  30.787  1.00  0.00    -0.335 N 
HETATM    9  C18 UNL     1     -12.552  13.851  29.536  1.00  0.00     0.243 C 
HETATM   10  O2  UNL     1     -12.798  13.111  28.517  1.00  0.00    -0.271 OA
ENDROOT
BRANCH   1  11
HETATM   11  C6  UNL     1     -13.044  11.060  30.794  1.00  0.00     0.037 C 
BRANCH  11  12
HETATM   12  C5  UNL     1     -13.752   9.809  31.176  1.00  0.00     0.039 C 
BRANCH  12  13
HETATM   13  C3  UNL     1     -12.955   8.821  31.955  1.00  0.00     0.232 C 
BRANCH  13  14
HETATM   14  N1  UNL     1     -12.880   7.582  31.160  1.00  0.00     0.085 N 
HETATM   15  C1  UNL     1     -11.516   7.301  30.762  1.00  0.00     0.309 C 
HETATM   16  C2  UNL     1     -13.341   6.446  31.932  1.00  0.00     0.309 C 
ENDBRANCH  13  14
BRANCH  13  17
HETATM   17  C4  UNL     1     -13.644   8.408  33.244  1.00  0.00     0.121 C 
HETATM   18  S1  UNL     1     -13.112   9.428  34.641  1.00  0.00    -0.095 SA
ENDBRANCH  13  17
ENDBRANCH  12  13
ENDBRANCH  11  12
ENDBRANCH   1  11
BRANCH   9  19
HETATM   19  C19 UNL     1     -11.684  15.011  29.234  1.00  0.00     0.182 C 
BRANCH  19  20
HETATM   20  N4  UNL     1     -10.704  14.696  28.204  1.00  0.00    -0.329 N 
HETATM   21  C20 UNL     1     -10.374  15.557  27.144  1.00  0.00     0.317 C 
HETATM   22  O3  UNL     1     -10.939  16.660  27.046  1.00  0.00    -0.247 OA
HETATM   23  N5  UNL     1      -9.412  15.215  26.170  1.00  0.00    -0.335 N 
ATOM     24  H5  UNL     1      -8.944  14.313  26.253  1.00  0.00     0.165 HD
ATOM     25  H4  UNL     1     -10.227  13.796  28.255  1.00  0.00     0.165 HD
BRANCH  23  26
HETATM   26  C21 UNL     1      -9.050  16.070  25.062  1.00  0.00     0.023 C 
HETATM   27  C22 UNL     1      -8.057  15.320  24.201  1.00  0.00     0.037 C 
HETATM   28  C23 UNL     1     -10.250  16.367  24.176  1.00  0.00     0.037 C 
HETATM   29  C24 UNL     1      -8.400  17.359  25.499  1.00  0.00     0.037 C 
ENDBRANCH  23  26
ENDBRANCH  19  20
BRANCH  19  30
HETATM   30  C25 UNL     1     -10.991  15.566  30.467  1.00  0.00     0.018 C 
HETATM   31  C26 UNL     1      -9.559  15.113  30.569  1.00  0.00     0.007 C 
HETATM   32  C27 UNL     1      -8.839  16.044  31.559  1.00  0.00     0.000 C 
HETATM   33  C28 UNL     1      -8.684  17.371  30.877  1.00  0.00     0.000 C 
HETATM   34  C29 UNL     1      -9.911  17.809  30.159  1.00  0.00     0.000 C 
HETATM   35  C30 UNL     1     -11.153  17.044  30.521  1.00  0.00     0.007 C 
ENDBRANCH  19  30
ENDBRANCH   9  19
BRANCH   6  36
HETATM   36  C10 UNL     1     -12.968  14.610  34.394  1.00  0.00     0.031 C 
BRANCH  36  37
HETATM   37  C11 UNL     1     -11.777  14.421  35.336  1.00  0.00    -0.013 C 
HETATM   38  C12 UNL     1     -11.881  15.358  36.522  1.00  0.00     0.005 C 
HETATM   39  C13 UNL     1     -10.532  15.397  37.197  1.00  0.00     0.000 C 
HETATM   40  C14 UNL     1      -9.626  16.254  36.347  1.00  0.00     0.000 C 
HETATM   41  C15 UNL     1     -10.076  16.207  34.915  1.00  0.00     0.000 C 
HETATM   42  C16 UNL     1     -10.546  14.794  34.571  1.00  0.00     0.005 C 
ENDBRANCH  36  37
ENDBRANCH   6  36
TORSDOF 11
ENDMDL
MODEL 2
REMARK VINA RESULT: -8.062051230      2.942      6.955
REMARK  11 active torsions:
REMARK  status: ('A' for Active; 'I' for Inactive)
REMARK    1  A    between atoms: N1_2  and  C3_4 
REMARK    2  A    between atoms: C3_4  and  C4_5 
REMARK    3  A    between atoms: C3_4  and  C5_7 
REMARK    4  A    between atoms: C5_7  and  C6_8 
REMARK    5  A    between atoms: C6_8  and  C7_9 
REMARK    6  A    between atoms: C9_14  and  C10_15 
REMARK    7  A    between atoms: C10_15  and  C11_16 
REMARK       I    between atoms: N3_23  and  C18_24 
REMARK    8  A    between atoms: C18_24  and  C19_26 
REMARK    9  A    between atoms: C19_26  and  N4_27 
REMARK   10  A    between atoms: C19_26  and  C25_37 
REMARK       I    between atoms: N4_27  and  C20_29 
REMARK       I    between atoms: C20_29  and  N5_31 
REMARK   11  A    between atoms: N5_31  and  C21_33 
ROOT
HETATM    1  C7  UNL     1     -12.121  15.220  34.568  1.00  0.00     0.179 C 
HETATM    2  C8  UNL     1     -10.983  16.143  34.783  1.00  0.00     0.241 C 
HETATM    3  O1  UNL     1     -11.069  17.218  35.468  1.00  0.00    -0.271 OA
HETATM    4  N2  UNL     1      -9.746  15.772  34.174  1.00  0.00    -0.353 N 
ATOM      5  H2  UNL     1      -8.862  16.046  34.604  1.00  0.00     0.163 HD
HETATM    6  C9  UNL     1      -9.746  15.007  32.945  1.00  0.00     0.103 C 
HETATM    7  C17 UNL     1     -11.083  15.023  32.267  1.00  0.00     0.152 C 
HETATM    8  N3  UNL     1     -12.180  14.794  33.164  1.00  0.00    -0.335 N 
HETATM    9  C18 UNL     1     -13.348  14.169  32.686  1.00  0.00     0.243 C 
HETATM   10  O2  UNL     1     -14.354  14.023  33.471  1.00  0.00    -0.271 OA
ENDROOT
BRANCH   1  11
HETATM   11  C6  UNL     1     -12.037  14.028  35.492  1.00  0.00     0.037 C 
BRANCH  11  12
HETATM   12  C5  UNL     1     -12.956  14.123  36.656  1.00  0.00     0.039 C 
BRANCH  12  13
HETATM   13  C3  UNL     1     -13.347  12.830  37.286  1.00  0.00     0.232 C 
BRANCH  13  14
HETATM   14  N1  UNL     1     -12.114  12.167  37.744  1.00  0.00     0.085 N 
HETATM   15  C1  UNL     1     -12.022  12.178  39.190  1.00  0.00     0.309 C 
HETATM   16  C2  UNL     1     -12.090  10.779  37.327  1.00  0.00     0.309 C 
ENDBRANCH  13  14
BRANCH  13  17
HETATM   17  C4  UNL     1     -13.956  11.860  36.288  1.00  0.00     0.121 C 
HETATM   18  S1  UNL     1     -15.763  11.858  36.380  1.00  0.00    -0.095 SA
ENDBRANCH  13  17
ENDBRANCH  12  13
ENDBRANCH  11  12
ENDBRANCH   1  11
BRANCH   9  19
HETATM   19  C19 UNL     1     -13.575  13.636  31.324  1.00  0.00     0.182 C 
BRANCH  19  20
HETATM   20  N4  UNL     1     -13.623  12.180  31.315  1.00  0.00    -0.329 N 
HETATM   21  C20 UNL     1     -14.800  11.432  31.472  1.00  0.00     0.317 C 
HETATM   22  O3  UNL     1     -15.886  12.015  31.636  1.00  0.00    -0.247 OA
HETATM   23  N5  UNL     1     -14.802  10.020  31.450  1.00  0.00    -0.335 N 
ATOM     24  H5  UNL     1     -13.913   9.541  31.310  1.00  0.00     0.165 HD
ATOM     25  H4  UNL     1     -12.747  11.673  31.187  1.00  0.00     0.165 HD
BRANCH  23  26
HETATM   26  C21 UNL     1     -15.991   9.215  31.614  1.00  0.00     0.023 C 
HETATM   27  C22 UNL     1     -15.583   7.760  31.530  1.00  0.00     0.037 C 
HETATM   28  C23 UNL     1     -16.607   9.409  32.991  1.00  0.00     0.037 C 
HETATM   29  C24 UNL     1     -17.026   9.466  30.546  1.00  0.00     0.037 C 
ENDBRANCH  23  26
ENDBRANCH  19  20
BRANCH  19  30
HETATM   30  C25 UNL     1     -12.551  14.134  30.318  1.00  0.00     0.018 C 
HETATM   31  C26 UNL     1     -12.190  13.083  29.303  1.00  0.00     0.007 C 
HETATM   32  C27 UNL     1     -11.519  13.787  28.112  1.00  0.00     0.000 C 
HETATM   33  C28 UNL     1     -12.595  14.542  27.389  1.00  0.00     0.000 C 
HETATM   34  C29 UNL     1     -13.513  15.276  28.302  1.00  0.00     0.000 C 
HETATM   35  C30 UNL     1     -13.013  15.413  29.712  1.00  0.00     0.007 C 
ENDBRANCH  19  30
ENDBRANCH   9  19
BRANCH   6  36
HETATM   36  C10 UNL     1      -8.655  15.558  32.057  1.00  0.00     0.031 C 
BRANCH  36  37
HETATM   37  C11 UNL     1      -9.253  16.145  30.777  1.00  0.00    -0.013 C 
HETATM   38  C12 UNL     1      -8.591  15.543  29.555  1.00  0.00     0.005 C 
HETATM   39  C13 UNL     1      -8.940  16.407  28.369  1.00  0.00     0.000 C 
HETATM   40  C14 UNL     1      -8.096  17.656  28.456  1.00  0.00     0.000 C 
HETATM   41  C15 UNL     1      -7.752  17.939  29.889  1.00  0.00     0.000 C 
HETATM   42  C16 UNL     1      -8.950  17.611  30.780  1.00  0.00     0.005 C 
ENDBRANCH  36  37
ENDBRANCH   6  36
TORSDOF 11
ENDMDL
MODEL 3
REMARK VINA RESULT: -8.026109006      1.035      1.262
REMARK  11 active torsions:
REMARK  status: ('A' for Active; 'I' for Inactive)
REMARK    1  A    between atoms: N1_2  and  C3_4 
REMARK    2  A    between atoms: C3_4  and  C4_5 
REMARK    3  A    between atoms: C3_4  and  C5_7 
REMARK    4  A    between atoms: C5_7  and  C6_8 
REMARK    5  A    between atoms: C6_8  and  C7_9 
REMARK    6  A    between atoms: C9_14  and  C10_15 
REMARK    7  A    between atoms: C10_15  and  C11_16 
REMARK       I    between atoms: N3_23  and  C18_24 
REMARK    8  A    between atoms: C18_24  and  C19_26 
REMARK    9  A    between atoms: C19_26  and  N4_27 
REMARK   10  A    between atoms: C19_26  and  C25_37 
REMARK       I    between atoms: N4_27  and  C20_29 
REMARK       I    between atoms: C20_29  and  N5_31 
REMARK   11  A    between atoms: N5_31  and  C21_33 
ROOT
HETATM    1  C7  UNL     1     -14.048  12.088  30.916  1.00  0.00     0.179 C 
HETATM    2  C8  UNL     1     -14.860  12.072  32.154  1.00  0.00     0.241 C 
HETATM    3  O1  UNL     1     -16.095  11.747  32.180  1.00  0.00    -0.271 OA
HETATM    4  N2  UNL     1     -14.186  12.446  33.356  1.00  0.00    -0.353 N 
ATOM      5  H2  UNL     1     -14.479  12.051  34.250  1.00  0.00     0.163 HD
HETATM    6  C9  UNL     1     -13.088  13.387  33.306  1.00  0.00     0.103 C 
HETATM    7  C17 UNL     1     -13.044  14.139  32.009  1.00  0.00     0.152 C 
HETATM    8  N3  UNL     1     -13.223  13.302  30.857  1.00  0.00    -0.335 N 
HETATM    9  C18 UNL     1     -12.615  13.660  29.638  1.00  0.00     0.243 C 
HETATM   10  O2  UNL     1     -12.829  12.947  28.592  1.00  0.00    -0.271 OA
ENDROOT
BRANCH   1  11
HETATM   11  C6  UNL     1     -13.193  10.848  30.809  1.00  0.00     0.037 C 
BRANCH  11  12
HETATM   12  C5  UNL     1     -13.397   9.897  31.935  1.00  0.00     0.039 C 
BRANCH  12  13
HETATM   13  C3  UNL     1     -13.373   8.450  31.578  1.00  0.00     0.232 C 
BRANCH  13  14
HETATM   14  N1  UNL     1     -13.498   7.681  32.829  1.00  0.00     0.085 N 
HETATM   15  C1  UNL     1     -13.047   8.458  33.965  1.00  0.00     0.309 C 
HETATM   16  C2  UNL     1     -14.880   7.324  33.079  1.00  0.00     0.309 C 
ENDBRANCH  13  14
BRANCH  13  17
HETATM   17  C4  UNL     1     -12.039   8.019  30.994  1.00  0.00     0.121 C 
HETATM   18  S1  UNL     1     -12.094   6.310  30.401  1.00  0.00    -0.095 SA
ENDBRANCH  13  17
ENDBRANCH  12  13
ENDBRANCH  11  12
ENDBRANCH   1  11
BRANCH   9  19
HETATM   19  C19 UNL     1     -11.721  14.814  29.398  1.00  0.00     0.182 C 
BRANCH  19  20
HETATM   20  N4  UNL     1     -10.757  14.540  28.341  1.00  0.00    -0.329 N 
HETATM   21  C20 UNL     1     -10.422  15.452  27.328  1.00  0.00     0.317 C 
HETATM   22  O3  UNL     1     -10.965  16.570  27.298  1.00  0.00    -0.247 OA
HETATM   23  N5  UNL     1      -9.476  15.148  26.325  1.00  0.00    -0.335 N 
ATOM     24  H5  UNL     1      -9.026  14.233  26.352  1.00  0.00     0.165 HD
ATOM     25  H4  UNL     1     -10.298  13.629  28.336  1.00  0.00     0.165 HD
BRANCH  23  26
HETATM   26  C21 UNL     1      -9.109  16.057  25.263  1.00  0.00     0.023 C 
HETATM   27  C22 UNL     1      -8.142  15.336  24.348  1.00  0.00     0.037 C 
HETATM   28  C23 UNL     1     -10.311  16.428  24.411  1.00  0.00     0.037 C 
HETATM   29  C24 UNL     1      -8.425  17.304  25.765  1.00  0.00     0.037 C 
ENDBRANCH  23  26
ENDBRANCH  19  20
BRANCH  19  30
HETATM   30  C25 UNL     1     -11.003  15.276  30.656  1.00  0.00     0.018 C 
HETATM   31  C26 UNL     1      -9.544  14.907  30.648  1.00  0.00     0.007 C 
HETATM   32  C27 UNL     1      -8.834  15.770  31.705  1.00  0.00     0.000 C 
HETATM   33  C28 UNL     1      -8.791  17.170  31.169  1.00  0.00     0.000 C 
HETATM   34  C29 UNL     1     -10.075  17.604  30.555  1.00  0.00     0.000 C 
HETATM   35  C30 UNL     1     -11.251  16.726  30.880  1.00  0.00     0.007 C 
ENDBRANCH  19  30
ENDBRANCH   9  19
BRANCH   6  36
HETATM   36  C10 UNL     1     -13.217  14.313  34.492  1.00  0.00     0.031 C 
BRANCH  36  37
HETATM   37  C11 UNL     1     -11.991  14.195  35.399  1.00  0.00    -0.013 C 
HETATM   38  C12 UNL     1     -12.087  15.170  36.554  1.00  0.00     0.005 C 
HETATM   39  C13 UNL     1     -10.719  15.277  37.182  1.00  0.00     0.000 C 
HETATM   40  C14 UNL     1      -9.870  16.132  36.272  1.00  0.00     0.000 C 
HETATM   41  C15 UNL     1     -10.365  16.019  34.859  1.00  0.00     0.000 C 
HETATM   42  C16 UNL     1     -10.798  14.581  34.580  1.00  0.00     0.005 C 
ENDBRANCH  36  37
ENDBRANCH   6  36
TORSDOF 11
ENDMDL
MODEL 4
REMARK VINA RESULT: -7.921822940      2.840      8.068
REMARK  11 active torsions:
REMARK  status: ('A' for Active; 'I' for Inactive)
REMARK    1  A    between atoms: N1_2  and  C3_4 
REMARK    2  A    between atoms: C3_4  and  C4_5 
REMARK    3  A    between atoms: C3_4  and  C5_7 
REMARK    4  A    between atoms: C5_7  and  C6_8 
REMARK    5  A    between atoms: C6_8  and  C7_9 
REMARK    6  A    between atoms: C9_14  and  C10_15 
REMARK    7  A    between atoms: C10_15  and  C11_16 
REMARK       I    between atoms: N3_23  and  C18_24 
REMARK    8  A    between atoms: C18_24  and  C19_26 
REMARK    9  A    between atoms: C19_26  and  N4_27 
REMARK   10  A    between atoms: C19_26  and  C25_37 
REMARK       I    between atoms: N4_27  and  C20_29 
REMARK       I    between atoms: C20_29  and  N5_31 
REMARK   11  A    between atoms: N5_31  and  C21_33 
ROOT
HETATM    1  C7  UNL     1     -11.602  13.619  30.089  1.00  0.00     0.179 C 
HETATM    2  C8  UNL     1     -10.807  14.739  30.642  1.00  0.00     0.241 C 
HETATM    3  O1  UNL     1      -9.558  14.893  30.415  1.00  0.00    -0.271 OA
HETATM    4  N2  UNL     1     -11.511  15.669  31.464  1.00  0.00    -0.353 N 
ATOM      5  H2  UNL     1     -11.213  16.644  31.504  1.00  0.00     0.163 HD
HETATM    6  C9  UNL     1     -12.649  15.228  32.242  1.00  0.00     0.103 C 
HETATM    7  C17 UNL     1     -12.710  13.735  32.363  1.00  0.00     0.152 C 
HETATM    8  N3  UNL     1     -12.479  13.052  31.122  1.00  0.00    -0.335 N 
HETATM    9  C18 UNL     1     -13.086  11.801  30.895  1.00  0.00     0.243 C 
HETATM   10  O2  UNL     1     -12.828  11.161  29.812  1.00  0.00    -0.271 OA
ENDROOT
BRANCH   1  11
HETATM   11  C6  UNL     1     -12.401  14.061  28.885  1.00  0.00     0.037 C 
BRANCH  11  12
HETATM   12  C5  UNL     1     -11.574  14.213  27.658  1.00  0.00     0.039 C 
BRANCH  12  13
HETATM   13  C3  UNL     1     -11.626  15.548  26.998  1.00  0.00     0.232 C 
BRANCH  13  14
HETATM   14  N1  UNL     1     -10.242  15.942  26.680  1.00  0.00     0.085 N 
HETATM   15  C1  UNL     1      -9.321  14.852  26.927  1.00  0.00     0.309 C 
HETATM   16  C2  UNL     1     -10.117  16.297  25.281  1.00  0.00     0.309 C 
ENDBRANCH  13  14
BRANCH  13  17
HETATM   17  C4  UNL     1     -12.131  16.636  27.930  1.00  0.00     0.121 C 
HETATM   18  S1  UNL     1     -10.794  17.740  28.449  1.00  0.00    -0.095 SA
ENDBRANCH  13  17
ENDBRANCH  12  13
ENDBRANCH  11  12
ENDBRANCH   1  11
BRANCH   9  19
HETATM   19  C19 UNL     1     -14.027  11.096  31.793  1.00  0.00     0.182 C 
BRANCH  19  20
HETATM   20  N4  UNL     1     -13.327  10.300  32.791  1.00  0.00    -0.329 N 
HETATM   21  C20 UNL     1     -13.381  10.548  34.172  1.00  0.00     0.317 C 
HETATM   22  O3  UNL     1     -14.053  11.501  34.604  1.00  0.00    -0.247 OA
HETATM   23  N5  UNL     1     -12.691   9.747  35.107  1.00  0.00    -0.335 N 
ATOM     24  H5  UNL     1     -12.143   8.961  34.755  1.00  0.00     0.165 HD
ATOM     25  H4  UNL     1     -12.763   9.514  32.468  1.00  0.00     0.165 HD
BRANCH  23  26
HETATM   26  C21 UNL     1     -12.716   9.973  36.534  1.00  0.00     0.023 C 
HETATM   27  C22 UNL     1     -11.892   8.887  37.192  1.00  0.00     0.037 C 
HETATM   28  C23 UNL     1     -12.056  11.293  36.898  1.00  0.00     0.037 C 
HETATM   29  C24 UNL     1     -14.106   9.913  37.117  1.00  0.00     0.037 C 
ENDBRANCH  23  26
ENDBRANCH  19  20
BRANCH  19  30
HETATM   30  C25 UNL     1     -15.027  10.234  31.040  1.00  0.00     0.018 C 
HETATM   31  C26 UNL     1     -15.164   8.861  31.642  1.00  0.00     0.007 C 
HETATM   32  C27 UNL     1     -16.467   8.241  31.111  1.00  0.00     0.000 C 
HETATM   33  C28 UNL     1     -17.598   8.971  31.773  1.00  0.00     0.000 C 
HETATM   34  C29 UNL     1     -17.405  10.445  31.810  1.00  0.00     0.000 C 
HETATM   35  C30 UNL     1     -16.321  10.956  30.902  1.00  0.00     0.007 C 
ENDBRANCH  19  30
ENDBRANCH   9  19
BRANCH   6  36
HETATM   36  C10 UNL     1     -12.576  15.902  33.592  1.00  0.00     0.031 C 
BRANCH  36  37
HETATM   37  C11 UNL     1     -11.669  15.111  34.536  1.00  0.00    -0.013 C 
HETATM   38  C12 UNL     1     -12.084  15.324  35.977  1.00  0.00     0.005 C 
HETATM   39  C13 UNL     1     -10.958  14.842  36.857  1.00  0.00     0.000 C 
HETATM   40  C14 UNL     1      -9.869  15.887  36.810  1.00  0.00     0.000 C 
HETATM   41  C15 UNL     1      -9.932  16.629  35.506  1.00  0.00     0.000 C 
HETATM   42  C16 UNL     1     -10.284  15.658  34.380  1.00  0.00     0.005 C 
ENDBRANCH  36  37
ENDBRANCH   6  36
TORSDOF 11
ENDMDL
MODEL 5
REMARK VINA RESULT: -7.797573389      5.817     12.598
REMARK  11 active torsions:
REMARK  status: ('A' for Active; 'I' for Inactive)
REMARK    1  A    between atoms: N1_2  and  C3_4 
REMARK    2  A    between atoms: C3_4  and  C4_5 
REMARK    3  A    between atoms: C3_4  and  C5_7 
REMARK    4  A    between atoms: C5_7  and  C6_8 
REMARK    5  A    between atoms: C6_8  and  C7_9 
REMARK    6  A    between atoms: C9_14  and  C10_15 
REMARK    7  A    between atoms: C10_15  and  C11_16 
REMARK       I    between atoms: N3_23  and  C18_24 
REMARK    8  A    between atoms: C18_24  and  C19_26 
REMARK    9  A    between atoms: C19_26  and  N4_27 
REMARK   10  A    between atoms: C19_26  and  C25_37 
REMARK       I    between atoms: N4_27  and  C20_29 
REMARK       I    between atoms: C20_29  and  N5_31 
REMARK   11  A    between atoms: N5_31  and  C21_33 
ROOT
HETATM    1  C7  UNL     1      -3.490  18.232  24.808  1.00  0.00     0.179 C 
HETATM    2  C8  UNL     1      -3.106  18.892  23.540  1.00  0.00     0.241 C 
HETATM    3  O1  UNL     1      -2.193  19.783  23.459  1.00  0.00    -0.271 OA
HETATM    4  N2  UNL     1      -3.820  18.482  22.374  1.00  0.00    -0.353 N 
ATOM      5  H2  UNL     1      -3.365  18.510  21.461  1.00  0.00     0.163 HD
HETATM    6  C9  UNL     1      -5.189  18.027  22.487  1.00  0.00     0.103 C 
HETATM    7  C17 UNL     1      -5.806  18.404  23.800  1.00  0.00     0.152 C 
HETATM    8  N3  UNL     1      -4.952  18.151  24.926  1.00  0.00    -0.335 N 
HETATM    9  C18 UNL     1      -5.524  17.842  26.175  1.00  0.00     0.243 C 
HETATM   10  O2  UNL     1      -4.762  17.680  27.196  1.00  0.00    -0.271 OA
ENDROOT
BRANCH   1  11
HETATM   11  C6  UNL     1      -2.862  16.862  24.921  1.00  0.00     0.037 C 
BRANCH  11  12
HETATM   12  C5  UNL     1      -1.469  16.812  24.404  1.00  0.00     0.039 C 
BRANCH  12  13
HETATM   13  C3  UNL     1      -1.119  15.617  23.586  1.00  0.00     0.232 C 
BRANCH  13  14
HETATM   14  N1  UNL     1      -0.096  14.855  24.324  1.00  0.00     0.085 N 
HETATM   15  C1  UNL     1      -0.660  13.654  24.906  1.00  0.00     0.309 C 
HETATM   16  C2  UNL     1       0.974  14.439  23.440  1.00  0.00     0.309 C 
ENDBRANCH  13  14
BRANCH  13  17
HETATM   17  C4  UNL     1      -0.448  15.988  22.274  1.00  0.00     0.121 C 
HETATM   18  S1  UNL     1      -1.621  15.965  20.897  1.00  0.00    -0.095 SA
ENDBRANCH  13  17
ENDBRANCH  12  13
ENDBRANCH  11  12
ENDBRANCH   1  11
BRANCH   9  19
HETATM   19  C19 UNL     1      -6.963  17.675  26.475  1.00  0.00     0.182 C 
BRANCH  19  20
HETATM   20  N4  UNL     1      -7.188  16.659  27.494  1.00  0.00    -0.329 N 
HETATM   21  C20 UNL     1      -8.113  16.789  28.542  1.00  0.00     0.317 C 
HETATM   22  O3  UNL     1      -8.795  17.825  28.640  1.00  0.00    -0.247 OA
HETATM   23  N5  UNL     1      -8.305  15.776  29.505  1.00  0.00    -0.335 N 
ATOM     24  H5  UNL     1      -7.750  14.924  29.423  1.00  0.00     0.165 HD
ATOM     25  H4  UNL     1      -6.640  15.800  27.443  1.00  0.00     0.165 HD
BRANCH  23  26
HETATM   26  C21 UNL     1      -9.242  15.875  30.602  1.00  0.00     0.023 C 
HETATM   27  C22 UNL     1      -9.006  14.697  31.523  1.00  0.00     0.037 C 
HETATM   28  C23 UNL     1      -8.995  17.125  31.430  1.00  0.00     0.037 C 
HETATM   29  C24 UNL     1     -10.681  15.828  30.153  1.00  0.00     0.037 C 
ENDBRANCH  23  26
ENDBRANCH  19  20
BRANCH  19  30
HETATM   30  C25 UNL     1      -7.792  17.371  25.238  1.00  0.00     0.018 C 
HETATM   31  C26 UNL     1      -8.119  15.907  25.116  1.00  0.00     0.007 C 
HETATM   32  C27 UNL     1      -9.286  15.765  24.124  1.00  0.00     0.000 C 
HETATM   33  C28 UNL     1     -10.511  16.288  24.814  1.00  0.00     0.000 C 
HETATM   34  C29 UNL     1     -10.273  17.560  25.549  1.00  0.00     0.000 C 
HETATM   35  C30 UNL     1      -8.988  18.255  25.196  1.00  0.00     0.007 C 
ENDBRANCH  19  30
ENDBRANCH   9  19
BRANCH   6  36
HETATM   36  C10 UNL     1      -5.961  18.589  21.317  1.00  0.00     0.031 C 
BRANCH  36  37
HETATM   37  C11 UNL     1      -6.292  17.483  20.313  1.00  0.00    -0.013 C 
HETATM   38  C12 UNL     1      -7.064  18.044  19.137  1.00  0.00     0.005 C 
HETATM   39  C13 UNL     1      -7.674  16.884  18.390  1.00  0.00     0.000 C 
HETATM   40  C14 UNL     1      -8.860  16.404  19.193  1.00  0.00     0.000 C 
HETATM   41  C15 UNL     1      -8.651  16.718  20.646  1.00  0.00     0.000 C 
HETATM   42  C16 UNL     1      -7.183  16.504  21.012  1.00  0.00     0.005 C 
ENDBRANCH  36  37
ENDBRANCH   6  36
TORSDOF 11
ENDMDL
