MODEL 1
REMARK VINA RESULT: -8.152310757      0.000      0.000
REMARK  13 active torsions:
REMARK  status: ('A' for Active; 'I' for Inactive)
REMARK    1  A    between atoms: C9_10  and  N2_11 
REMARK       I    between atoms: N2_11  and  C10_13 
REMARK       I    between atoms: C10_13  and  N3_15 
REMARK    2  A    between atoms: N3_15  and  C11_17 
REMARK    3  A    between atoms: C11_17  and  C12_18 
REMARK    4  A    between atoms: C11_17  and  C29_41 
REMARK       I    between atoms: C12_18  and  N4_20 
REMARK    5  A    between atoms: N4_20  and  C13_22 
REMARK    6  A    between atoms: C13_22  and  C14_23 
REMARK    7  A    between atoms: C13_22  and  C21_30 
REMARK    8  A    between atoms: C14_23  and  C15_24 
REMARK    9  A    between atoms: C21_30  and  O3_31 
REMARK   10  A    between atoms: C21_30  and  C22_33 
REMARK   11  A    between atoms: C22_33  and  N5_34 
REMARK   12  A    between atoms: N5_34  and  C24_36 
REMARK   13  A    between atoms: C24_36  and  C25_37 
ROOT
HETATM    1  C12 UNL     1      -7.719  17.415  23.883  1.00  0.00     0.241 C 
HETATM    2  O2  UNL     1      -6.883  16.513  24.280  1.00  0.00    -0.271 OA
HETATM    3  N4  UNL     1      -7.189  18.678  23.622  1.00  0.00    -0.352 N 
ATOM      4  H4  UNL     1      -7.806  19.424  23.300  1.00  0.00     0.163 HD
ENDROOT
BRANCH   1   5
HETATM    5  C11 UNL     1      -9.101  16.926  23.779  1.00  0.00     0.185 C 
BRANCH   5   6
HETATM    6  N3  UNL     1      -9.301  15.896  24.794  1.00  0.00    -0.329 N 
HETATM    7  C10 UNL     1      -9.885  16.169  26.046  1.00  0.00     0.318 C 
HETATM    8  N2  UNL     1     -10.085  15.184  27.045  1.00  0.00    -0.307 N 
HETATM    9  O1  UNL     1     -10.247  17.344  26.298  1.00  0.00    -0.247 OA
ATOM     10  H2  UNL     1      -9.797  14.232  26.817  1.00  0.00     0.166 HD
ATOM     11  H3  UNL     1      -9.006  14.941  24.590  1.00  0.00     0.165 HD
BRANCH   8  12
HETATM   12  C9  UNL     1     -10.650  15.391  28.338  1.00  0.00     0.241 C 
HETATM   13  C2  UNL     1      -9.690  15.844  29.387  1.00  0.00     0.070 C 
HETATM   14  C1  UNL     1      -8.234  15.510  29.037  1.00  0.00     0.016 C 
HETATM   15  C3  UNL     1     -10.289  14.778  30.280  1.00  0.00     0.285 C 
HETATM   16  N1  UNL     1     -10.867  14.185  29.117  1.00  0.00     0.127 N 
HETATM   17  C4  UNL     1     -12.226  13.837  29.082  1.00  0.00     0.156 C 
HETATM   18  C5  UNL     1     -12.905  13.732  30.420  1.00  0.00     0.049 C 
HETATM   19  C6  UNL     1     -12.418  12.450  28.429  1.00  0.00     0.049 C 
HETATM   20  C7  UNL     1     -12.923  14.893  28.275  1.00  0.00     0.045 C 
HETATM   21  C8  UNL     1     -11.995  16.075  28.342  1.00  0.00     0.068 C 
ENDBRANCH   8  12
ENDBRANCH   5   6
BRANCH   5  22
HETATM   22  C29 UNL     1      -9.544  16.476  22.430  1.00  0.00    -0.022 C 
HETATM   23  C30 UNL     1      -8.953  15.165  22.010  1.00  0.00     0.017 C 
HETATM   24  C31 UNL     1      -9.379  17.492  21.340  1.00  0.00     0.017 C 
HETATM   25  C32 UNL     1     -11.080  16.196  22.475  1.00  0.00     0.017 C 
ENDBRANCH   5  22
ENDBRANCH   1   5
BRANCH   3  26
HETATM   26  C13 UNL     1      -5.726  18.958  23.805  1.00  0.00     0.115 C 
BRANCH  26  27
HETATM   27  C14 UNL     1      -5.752  19.850  25.054  1.00  0.00     0.032 C 
BRANCH  27  28
HETATM   28  C15 UNL     1      -5.160  19.289  26.278  1.00  0.00    -0.013 C 
HETATM   29  C16 UNL     1      -4.205  18.151  26.046  1.00  0.00     0.005 C 
HETATM   30  C17 UNL     1      -4.510  16.938  26.894  1.00  0.00     0.000 C 
HETATM   31  C18 UNL     1      -4.788  17.291  28.323  1.00  0.00     0.000 C 
HETATM   32  C19 UNL     1      -5.889  18.323  28.450  1.00  0.00     0.000 C 
HETATM   33  C20 UNL     1      -6.344  18.678  27.072  1.00  0.00     0.005 C 
ENDBRANCH  27  28
ENDBRANCH  26  27
BRANCH  26  34
HETATM   34  C21 UNL     1      -5.202  19.753  22.683  1.00  0.00     0.158 C 
BRANCH  34  35
HETATM   35  O3  UNL     1      -5.339  21.104  22.922  1.00  0.00    -0.392 OA
ATOM     36  H3  UNL     1      -6.137  21.443  22.534  1.00  0.00     0.210 HD
ENDBRANCH  34  35
BRANCH  34  37
HETATM   37  C22 UNL     1      -3.863  19.481  22.129  1.00  0.00     0.155 C 
BRANCH  37  38
HETATM   38  N5  UNL     1      -3.630  18.251  21.454  1.00  0.00    -0.394 N 
HETATM   39  C23 UNL     1      -2.709  17.354  21.997  1.00  0.00     0.148 C 
BRANCH  38  40
HETATM   40  C24 UNL     1      -3.958  18.237  20.092  1.00  0.00     0.066 C 
BRANCH  40  41
HETATM   41  C25 UNL     1      -5.108  17.376  19.632  1.00  0.00    -0.019 C 
HETATM   42  C26 UNL     1      -6.101  18.120  18.799  1.00  0.00     0.020 C 
HETATM   43  C27 UNL     1      -5.803  16.629  20.720  1.00  0.00     0.020 C 
HETATM   44  C28 UNL     1      -4.532  16.276  18.690  1.00  0.00     0.020 C 
ENDBRANCH  40  41
ENDBRANCH  38  40
ENDBRANCH  37  38
ENDBRANCH  34  37
ENDBRANCH  26  34
ENDBRANCH   3  26
TORSDOF 13
ENDMDL
MODEL 2
REMARK VINA RESULT: -8.102713779      4.063      8.249
REMARK  13 active torsions:
REMARK  status: ('A' for Active; 'I' for Inactive)
REMARK    1  A    between atoms: C9_10  and  N2_11 
REMARK       I    between atoms: N2_11  and  C10_13 
REMARK       I    between atoms: C10_13  and  N3_15 
REMARK    2  A    between atoms: N3_15  and  C11_17 
REMARK    3  A    between atoms: C11_17  and  C12_18 
REMARK    4  A    between atoms: C11_17  and  C29_41 
REMARK       I    between atoms: C12_18  and  N4_20 
REMARK    5  A    between atoms: N4_20  and  C13_22 
REMARK    6  A    between atoms: C13_22  and  C14_23 
REMARK    7  A    between atoms: C13_22  and  C21_30 
REMARK    8  A    between atoms: C14_23  and  C15_24 
REMARK    9  A    between atoms: C21_30  and  O3_31 
REMARK   10  A    between atoms: C21_30  and  C22_33 
REMARK   11  A    between atoms: C22_33  and  N5_34 
REMARK   12  A    between atoms: N5_34  and  C24_36 
REMARK   13  A    between atoms: C24_36  and  C25_37 
ROOT
HETATM    1  C12 UNL     1     -12.959  14.674  29.604  1.00  0.00     0.241 C 
HETATM    2  O2  UNL     1     -13.997  15.244  29.086  1.00  0.00    -0.271 OA
HETATM    3  N4  UNL     1     -11.717  15.120  29.152  1.00  0.00    -0.352 N 
ATOM      4  H4  UNL     1     -10.867  14.707  29.533  1.00  0.00     0.163 HD
ENDROOT
BRANCH   1   5
HETATM    5  C11 UNL     1     -13.292  13.642  30.596  1.00  0.00     0.185 C 
BRANCH   5   6
HETATM    6  N3  UNL     1     -12.265  13.655  31.634  1.00  0.00    -0.329 N 
HETATM    7  C10 UNL     1     -12.486  14.205  32.910  1.00  0.00     0.318 C 
HETATM    8  N2  UNL     1     -11.501  14.229  33.930  1.00  0.00    -0.307 N 
HETATM    9  O1  UNL     1     -13.609  14.705  33.166  1.00  0.00    -0.247 OA
ATOM     10  H2  UNL     1     -10.599  13.807  33.709  1.00  0.00     0.166 HD
ATOM     11  H3  UNL     1     -11.352  13.250  31.426  1.00  0.00     0.165 HD
BRANCH   8  12
HETATM   12  C9  UNL     1     -11.647  14.786  35.235  1.00  0.00     0.241 C 
HETATM   13  C2  UNL     1     -10.750  15.939  35.540  1.00  0.00     0.070 C 
HETATM   14  C1  UNL     1      -9.516  15.982  34.630  1.00  0.00     0.016 C 
HETATM   15  C3  UNL     1     -10.434  15.243  36.847  1.00  0.00     0.285 C 
HETATM   16  N1  UNL     1     -10.988  14.047  36.298  1.00  0.00     0.127 N 
HETATM   17  C4  UNL     1     -11.935  13.296  37.011  1.00  0.00     0.156 C 
HETATM   18  C5  UNL     1     -12.008  13.573  38.487  1.00  0.00     0.049 C 
HETATM   19  C6  UNL     1     -11.627  11.786  36.904  1.00  0.00     0.049 C 
HETATM   20  C7  UNL     1     -13.273  13.597  36.402  1.00  0.00     0.045 C 
HETATM   21  C8  UNL     1     -13.072  14.919  35.714  1.00  0.00     0.068 C 
ENDBRANCH   8  12
ENDBRANCH   5   6
BRANCH   5  22
HETATM   22  C29 UNL     1     -13.538  12.271  30.068  1.00  0.00    -0.022 C 
HETATM   23  C30 UNL     1     -12.950  12.037  28.709  1.00  0.00     0.017 C 
HETATM   24  C31 UNL     1     -14.970  11.831  30.095  1.00  0.00     0.017 C 
HETATM   25  C32 UNL     1     -12.794  11.243  30.978  1.00  0.00     0.017 C 
ENDBRANCH   5  22
ENDBRANCH   1   5
BRANCH   3  26
HETATM   26  C13 UNL     1     -11.613  16.198  28.113  1.00  0.00     0.115 C 
BRANCH  26  27
HETATM   27  C14 UNL     1     -10.728  15.510  27.064  1.00  0.00     0.032 C 
BRANCH  27  28
HETATM   28  C15 UNL     1     -10.168  16.369  26.008  1.00  0.00    -0.013 C 
HETATM   29  C16 UNL     1     -11.099  16.634  24.857  1.00  0.00     0.005 C 
HETATM   30  C17 UNL     1     -10.471  16.361  23.511  1.00  0.00     0.000 C 
HETATM   31  C18 UNL     1      -9.091  16.932  23.394  1.00  0.00     0.000 C 
HETATM   32  C19 UNL     1      -8.184  16.463  24.513  1.00  0.00     0.000 C 
HETATM   33  C20 UNL     1      -8.984  15.570  25.405  1.00  0.00     0.005 C 
ENDBRANCH  27  28
ENDBRANCH  26  27
BRANCH  26  34
HETATM   34  C21 UNL     1     -10.881  17.361  28.639  1.00  0.00     0.158 C 
BRANCH  34  35
HETATM   35  O3  UNL     1     -11.592  18.527  28.444  1.00  0.00    -0.392 OA
ATOM     36  H3  UNL     1     -11.987  18.828  29.255  1.00  0.00     0.210 HD
ENDBRANCH  34  35
BRANCH  34  37
HETATM   37  C22 UNL     1     -10.321  17.345  30.002  1.00  0.00     0.155 C 
BRANCH  37  38
HETATM   38  N5  UNL     1      -8.993  16.876  30.199  1.00  0.00    -0.394 N 
HETATM   39  C23 UNL     1      -8.790  15.767  31.023  1.00  0.00     0.148 C 
BRANCH  38  40
HETATM   40  C24 UNL     1      -7.979  17.812  29.959  1.00  0.00     0.066 C 
BRANCH  40  41
HETATM   41  C25 UNL     1      -7.197  17.722  28.673  1.00  0.00    -0.019 C 
HETATM   42  C26 UNL     1      -7.694  18.657  27.618  1.00  0.00     0.020 C 
HETATM   43  C27 UNL     1      -7.064  16.343  28.118  1.00  0.00     0.020 C 
HETATM   44  C28 UNL     1      -5.738  18.183  28.968  1.00  0.00     0.020 C 
ENDBRANCH  40  41
ENDBRANCH  38  40
ENDBRANCH  37  38
ENDBRANCH  34  37
ENDBRANCH  26  34
ENDBRANCH   3  26
TORSDOF 13
ENDMDL
MODEL 3
REMARK VINA RESULT: -8.058533953      3.029      5.242
REMARK  13 active torsions:
REMARK  status: ('A' for Active; 'I' for Inactive)
REMARK    1  A    between atoms: C9_10  and  N2_11 
REMARK       I    between atoms: N2_11  and  C10_13 
REMARK       I    between atoms: C10_13  and  N3_15 
REMARK    2  A    between atoms: N3_15  and  C11_17 
REMARK    3  A    between atoms: C11_17  and  C12_18 
REMARK    4  A    between atoms: C11_17  and  C29_41 
REMARK       I    between atoms: C12_18  and  N4_20 
REMARK    5  A    between atoms: N4_20  and  C13_22 
REMARK    6  A    between atoms: C13_22  and  C14_23 
REMARK    7  A    between atoms: C13_22  and  C21_30 
REMARK    8  A    between atoms: C14_23  and  C15_24 
REMARK    9  A    between atoms: C21_30  and  O3_31 
REMARK   10  A    between atoms: C21_30  and  C22_33 
REMARK   11  A    between atoms: C22_33  and  N5_34 
REMARK   12  A    between atoms: N5_34  and  C24_36 
REMARK   13  A    between atoms: C24_36  and  C25_37 
ROOT
HETATM    1  C12 UNL     1      -9.718  15.456  28.045  1.00  0.00     0.241 C 
HETATM    2  O2  UNL     1      -9.057  14.346  28.060  1.00  0.00    -0.271 OA
HETATM    3  N4  UNL     1      -9.146  16.508  27.331  1.00  0.00    -0.352 N 
ATOM      4  H4  UNL     1      -9.630  17.404  27.283  1.00  0.00     0.163 HD
ENDROOT
BRANCH   1   5
HETATM    5  C11 UNL     1     -10.978  15.397  28.801  1.00  0.00     0.185 C 
BRANCH   5   6
HETATM    6  N3  UNL     1     -10.699  14.815  30.111  1.00  0.00    -0.329 N 
HETATM    7  C10 UNL     1     -11.020  15.470  31.315  1.00  0.00     0.318 C 
HETATM    8  N2  UNL     1     -10.756  14.922  32.595  1.00  0.00    -0.307 N 
HETATM    9  O1  UNL     1     -11.566  16.599  31.260  1.00  0.00    -0.247 OA
ATOM     10  H2  UNL     1     -10.325  13.998  32.620  1.00  0.00     0.166 HD
ATOM     11  H3  UNL     1     -10.255  13.898  30.156  1.00  0.00     0.165 HD
BRANCH   8  12
HETATM   12  C9  UNL     1     -11.035  15.535  33.852  1.00  0.00     0.241 C 
HETATM   13  C2  UNL     1     -10.095  16.623  34.252  1.00  0.00     0.070 C 
HETATM   14  C1  UNL     1      -8.746  16.534  33.526  1.00  0.00     0.016 C 
HETATM   15  C3  UNL     1     -10.023  15.951  35.608  1.00  0.00     0.285 C 
HETATM   16  N1  UNL     1     -10.595  14.785  35.015  1.00  0.00     0.127 N 
HETATM   17  C4  UNL     1     -11.692  14.139  35.605  1.00  0.00     0.156 C 
HETATM   18  C5  UNL     1     -11.946  14.475  37.049  1.00  0.00     0.049 C 
HETATM   19  C6  UNL     1     -11.501  12.606  35.580  1.00  0.00     0.049 C 
HETATM   20  C7  UNL     1     -12.902  14.525  34.806  1.00  0.00     0.045 C 
HETATM   21  C8  UNL     1     -12.496  15.800  34.121  1.00  0.00     0.068 C 
ENDBRANCH   8  12
ENDBRANCH   5   6
BRANCH   5  22
HETATM   22  C29 UNL     1     -12.125  14.732  28.124  1.00  0.00    -0.022 C 
HETATM   23  C30 UNL     1     -12.322  13.306  28.539  1.00  0.00     0.017 C 
HETATM   24  C31 UNL     1     -12.126  14.842  26.630  1.00  0.00     0.017 C 
HETATM   25  C32 UNL     1     -13.446  15.437  28.570  1.00  0.00     0.017 C 
ENDBRANCH   5  22
ENDBRANCH   1   5
BRANCH   3  26
HETATM   26  C13 UNL     1      -7.829  16.344  26.631  1.00  0.00     0.115 C 
BRANCH  26  27
HETATM   27  C14 UNL     1      -7.258  17.764  26.740  1.00  0.00     0.032 C 
BRANCH  27  28
HETATM   28  C15 UNL     1      -6.202  18.126  25.780  1.00  0.00    -0.013 C 
HETATM   29  C16 UNL     1      -4.963  17.280  25.865  1.00  0.00     0.005 C 
HETATM   30  C17 UNL     1      -3.694  18.094  25.964  1.00  0.00     0.000 C 
HETATM   31  C18 UNL     1      -3.660  19.227  24.984  1.00  0.00     0.000 C 
HETATM   32  C19 UNL     1      -4.879  20.118  25.102  1.00  0.00     0.000 C 
HETATM   33  C20 UNL     1      -5.753  19.557  26.175  1.00  0.00     0.005 C 
ENDBRANCH  27  28
ENDBRANCH  26  27
BRANCH  26  34
HETATM   34  C21 UNL     1      -8.030  16.038  25.205  1.00  0.00     0.158 C 
BRANCH  34  35
HETATM   35  O3  UNL     1      -8.259  14.692  25.011  1.00  0.00    -0.392 OA
ATOM     36  H3  UNL     1      -9.156  14.531  24.743  1.00  0.00     0.210 HD
ENDBRANCH  34  35
BRANCH  34  37
HETATM   37  C22 UNL     1      -8.977  16.823  24.393  1.00  0.00     0.155 C 
BRANCH  37  38
HETATM   38  N5  UNL     1      -8.788  16.894  22.985  1.00  0.00    -0.394 N 
HETATM   39  C23 UNL     1      -9.871  16.617  22.149  1.00  0.00     0.148 C 
BRANCH  38  40
HETATM   40  C24 UNL     1      -7.464  16.763  22.545  1.00  0.00     0.066 C 
BRANCH  40  41
HETATM   41  C25 UNL     1      -6.816  17.927  21.838  1.00  0.00    -0.019 C 
HETATM   42  C26 UNL     1      -7.119  19.243  22.477  1.00  0.00     0.020 C 
HETATM   43  C27 UNL     1      -7.080  17.992  20.371  1.00  0.00     0.020 C 
HETATM   44  C28 UNL     1      -5.271  17.761  21.964  1.00  0.00     0.020 C 
ENDBRANCH  40  41
ENDBRANCH  38  40
ENDBRANCH  37  38
ENDBRANCH  34  37
ENDBRANCH  26  34
ENDBRANCH   3  26
TORSDOF 13
ENDMDL
MODEL 4
REMARK VINA RESULT: -7.999491149      2.563     10.166
REMARK  13 active torsions:
REMARK  status: ('A' for Active; 'I' for Inactive)
REMARK    1  A    between atoms: C9_10  and  N2_11 
REMARK       I    between atoms: N2_11  and  C10_13 
REMARK       I    between atoms: C10_13  and  N3_15 
REMARK    2  A    between atoms: N3_15  and  C11_17 
REMARK    3  A    between atoms: C11_17  and  C12_18 
REMARK    4  A    between atoms: C11_17  and  C29_41 
REMARK       I    between atoms: C12_18  and  N4_20 
REMARK    5  A    between atoms: N4_20  and  C13_22 
REMARK    6  A    between atoms: C13_22  and  C14_23 
REMARK    7  A    between atoms: C13_22  and  C21_30 
REMARK    8  A    between atoms: C14_23  and  C15_24 
REMARK    9  A    between atoms: C21_30  and  O3_31 
REMARK   10  A    between atoms: C21_30  and  C22_33 
REMARK   11  A    between atoms: C22_33  and  N5_34 
REMARK   12  A    between atoms: N5_34  and  C24_36 
REMARK   13  A    between atoms: C24_36  and  C25_37 
ROOT
HETATM    1  C12 UNL     1      -8.590  16.628  27.769  1.00  0.00     0.241 C 
HETATM    2  O2  UNL     1      -8.152  15.416  27.871  1.00  0.00    -0.271 OA
HETATM    3  N4  UNL     1      -9.772  16.919  28.448  1.00  0.00    -0.352 N 
ATOM      4  H4  UNL     1     -10.156  17.862  28.404  1.00  0.00     0.163 HD
ENDROOT
BRANCH   1   5
HETATM    5  C11 UNL     1      -7.737  17.490  26.937  1.00  0.00     0.185 C 
BRANCH   5   6
HETATM    6  N3  UNL     1      -7.515  16.819  25.659  1.00  0.00    -0.329 N 
HETATM    7  C10 UNL     1      -7.877  17.398  24.428  1.00  0.00     0.318 C 
HETATM    8  N2  UNL     1      -7.672  16.762  23.177  1.00  0.00    -0.307 N 
HETATM    9  O1  UNL     1      -8.411  18.534  24.428  1.00  0.00    -0.247 OA
ATOM     10  H2  UNL     1      -7.225  15.845  23.195  1.00  0.00     0.166 HD
ATOM     11  H3  UNL     1      -7.082  15.895  25.658  1.00  0.00     0.165 HD
BRANCH   8  12
HETATM   12  C9  UNL     1      -8.030  17.278  21.897  1.00  0.00     0.241 C 
HETATM   13  C2  UNL     1      -9.446  17.046  21.490  1.00  0.00     0.070 C 
HETATM   14  C1  UNL     1     -10.096  15.884  22.253  1.00  0.00     0.016 C 
HETATM   15  C3  UNL     1      -8.902  16.579  20.156  1.00  0.00     0.285 C 
HETATM   16  N1  UNL     1      -7.616  16.464  20.767  1.00  0.00     0.127 N 
HETATM   17  C4  UNL     1      -6.479  17.027  20.168  1.00  0.00     0.156 C 
HETATM   18  C5  UNL     1      -6.613  17.368  18.709  1.00  0.00     0.049 C 
HETATM   19  C6  UNL     1      -5.283  16.051  20.241  1.00  0.00     0.049 C 
HETATM   20  C7  UNL     1      -6.170  18.286  20.925  1.00  0.00     0.045 C 
HETATM   21  C8  UNL     1      -7.473  18.645  21.584  1.00  0.00     0.068 C 
ENDBRANCH   8  12
ENDBRANCH   5   6
BRANCH   5  22
HETATM   22  C29 UNL     1      -6.463  17.955  27.554  1.00  0.00    -0.022 C 
HETATM   23  C30 UNL     1      -5.282  17.100  27.208  1.00  0.00     0.017 C 
HETATM   24  C31 UNL     1      -6.524  18.180  29.034  1.00  0.00     0.017 C 
HETATM   25  C32 UNL     1      -6.100  19.353  26.959  1.00  0.00     0.017 C 
ENDBRANCH   5  22
ENDBRANCH   1   5
BRANCH   3  26
HETATM   26  C13 UNL     1     -10.488  15.866  29.243  1.00  0.00     0.115 C 
BRANCH  26  27
HETATM   27  C14 UNL     1     -11.909  15.988  28.678  1.00  0.00     0.032 C 
BRANCH  27  28
HETATM   28  C15 UNL     1     -12.704  14.750  28.622  1.00  0.00    -0.013 C 
HETATM   29  C16 UNL     1     -13.527  14.477  29.850  1.00  0.00     0.005 C 
HETATM   30  C17 UNL     1     -13.331  13.084  30.398  1.00  0.00     0.000 C 
HETATM   31  C18 UNL     1     -13.366  12.035  29.329  1.00  0.00     0.000 C 
HETATM   32  C19 UNL     1     -12.373  12.318  28.221  1.00  0.00     0.000 C 
HETATM   33  C20 UNL     1     -11.671  13.594  28.553  1.00  0.00     0.005 C 
ENDBRANCH  27  28
ENDBRANCH  26  27
BRANCH  26  34
HETATM   34  C21 UNL     1     -10.528  16.227  30.669  1.00  0.00     0.158 C 
BRANCH  34  35
HETATM   35  O3  UNL     1     -11.637  16.993  30.960  1.00  0.00    -0.392 OA
ATOM     36  H3  UNL     1     -12.034  16.726  31.781  1.00  0.00     0.210 HD
ENDBRANCH  34  35
BRANCH  34  37
HETATM   37  C22 UNL     1     -10.350  15.199  31.711  1.00  0.00     0.155 C 
BRANCH  37  38
HETATM   38  N5  UNL     1      -9.908  15.593  33.004  1.00  0.00    -0.394 N 
HETATM   39  C23 UNL     1      -9.041  16.681  33.112  1.00  0.00     0.148 C 
BRANCH  38  40
HETATM   40  C24 UNL     1      -9.979  14.604  33.995  1.00  0.00     0.066 C 
BRANCH  40  41
HETATM   41  C25 UNL     1     -10.913  14.810  35.160  1.00  0.00    -0.019 C 
HETATM   42  C26 UNL     1     -12.142  15.579  34.798  1.00  0.00     0.020 C 
HETATM   43  C27 UNL     1     -10.276  15.397  36.375  1.00  0.00     0.020 C 
HETATM   44  C28 UNL     1     -11.429  13.410  35.611  1.00  0.00     0.020 C 
ENDBRANCH  40  41
ENDBRANCH  38  40
ENDBRANCH  37  38
ENDBRANCH  34  37
ENDBRANCH  26  34
ENDBRANCH   3  26
TORSDOF 13
ENDMDL
MODEL 5
REMARK VINA RESULT: -7.984640819      3.136      5.346
REMARK  13 active torsions:
REMARK  status: ('A' for Active; 'I' for Inactive)
REMARK    1  A    between atoms: C9_10  and  N2_11 
REMARK       I    between atoms: N2_11  and  C10_13 
REMARK       I    between atoms: C10_13  and  N3_15 
REMARK    2  A    between atoms: N3_15  and  C11_17 
REMARK    3  A    between atoms: C11_17  and  C12_18 
REMARK    4  A    between atoms: C11_17  and  C29_41 
REMARK       I    between atoms: C12_18  and  N4_20 
REMARK    5  A    between atoms: N4_20  and  C13_22 
REMARK    6  A    between atoms: C13_22  and  C14_23 
REMARK    7  A    between atoms: C13_22  and  C21_30 
REMARK    8  A    between atoms: C14_23  and  C15_24 
REMARK    9  A    between atoms: C21_30  and  O3_31 
REMARK   10  A    between atoms: C21_30  and  C22_33 
REMARK   11  A    between atoms: C22_33  and  N5_34 
REMARK   12  A    between atoms: N5_34  and  C24_36 
REMARK   13  A    between atoms: C24_36  and  C25_37 
ROOT
HETATM    1  C12 UNL     1     -10.175  15.617  28.297  1.00  0.00     0.241 C 
HETATM    2  O2  UNL     1      -9.322  14.655  28.159  1.00  0.00    -0.271 OA
HETATM    3  N4  UNL     1      -9.863  16.817  27.659  1.00  0.00    -0.352 N 
ATOM      4  H4  UNL     1     -10.506  17.605  27.731  1.00  0.00     0.163 HD
ENDROOT
BRANCH   1   5
HETATM    5  C11 UNL     1     -11.339  15.254  29.118  1.00  0.00     0.185 C 
BRANCH   5   6
HETATM    6  N3  UNL     1     -10.857  14.771  30.409  1.00  0.00    -0.329 N 
HETATM    7  C10 UNL     1     -11.230  15.368  31.627  1.00  0.00     0.318 C 
HETATM    8  N2  UNL     1     -10.772  14.915  32.890  1.00  0.00    -0.307 N 
HETATM    9  O1  UNL     1     -12.007  16.354  31.604  1.00  0.00    -0.247 OA
ATOM     10  H2  UNL     1     -10.152  14.104  32.891  1.00  0.00     0.166 HD
ATOM     11  H3  UNL     1     -10.226  13.970  30.429  1.00  0.00     0.165 HD
BRANCH   8  12
HETATM   12  C9  UNL     1     -11.091  15.480  34.160  1.00  0.00     0.241 C 
HETATM   13  C2  UNL     1     -10.214  16.607  34.594  1.00  0.00     0.070 C 
HETATM   14  C1  UNL     1      -8.858  16.609  33.875  1.00  0.00     0.016 C 
HETATM   15  C3  UNL     1     -10.114  15.907  35.933  1.00  0.00     0.285 C 
HETATM   16  N1  UNL     1     -10.619  14.726  35.307  1.00  0.00     0.127 N 
HETATM   17  C4  UNL     1     -11.683  14.007  35.873  1.00  0.00     0.156 C 
HETATM   18  C5  UNL     1     -11.963  14.293  37.323  1.00  0.00     0.049 C 
HETATM   19  C6  UNL     1     -11.408  12.488  35.812  1.00  0.00     0.049 C 
HETATM   20  C7  UNL     1     -12.907  14.347  35.074  1.00  0.00     0.045 C 
HETATM   21  C8  UNL     1     -12.566  15.659  34.424  1.00  0.00     0.068 C 
ENDBRANCH   8  12
ENDBRANCH   5   6
BRANCH   5  22
HETATM   22  C29 UNL     1     -12.319  14.318  28.499  1.00  0.00    -0.022 C 
HETATM   23  C30 UNL     1     -12.175  12.902  28.968  1.00  0.00     0.017 C 
HETATM   24  C31 UNL     1     -12.379  14.365  27.003  1.00  0.00     0.017 C 
HETATM   25  C32 UNL     1     -13.756  14.720  28.962  1.00  0.00     0.017 C 
ENDBRANCH   5  22
ENDBRANCH   1   5
BRANCH   3  26
HETATM   26  C13 UNL     1      -8.597  16.967  26.867  1.00  0.00     0.115 C 
BRANCH  26  27
HETATM   27  C14 UNL     1      -8.036  18.270  27.454  1.00  0.00     0.032 C 
BRANCH  27  28
HETATM   28  C15 UNL     1      -6.571  18.401  27.486  1.00  0.00    -0.013 C 
HETATM   29  C16 UNL     1      -5.981  19.122  26.306  1.00  0.00     0.005 C 
HETATM   30  C17 UNL     1      -4.849  18.364  25.653  1.00  0.00     0.000 C 
HETATM   31  C18 UNL     1      -3.876  17.813  26.650  1.00  0.00     0.000 C 
HETATM   32  C19 UNL     1      -4.557  16.958  27.698  1.00  0.00     0.000 C 
HETATM   33  C20 UNL     1      -6.021  16.953  27.402  1.00  0.00     0.005 C 
ENDBRANCH  27  28
ENDBRANCH  26  27
BRANCH  26  34
HETATM   34  C21 UNL     1      -8.895  17.196  25.444  1.00  0.00     0.158 C 
BRANCH  34  35
HETATM   35  O3  UNL     1      -9.002  18.543  25.167  1.00  0.00    -0.392 OA
ATOM     36  H3  UNL     1      -8.859  18.716  24.243  1.00  0.00     0.210 HD
ENDBRANCH  34  35
BRANCH  34  37
HETATM   37  C22 UNL     1      -8.100  16.536  24.393  1.00  0.00     0.155 C 
BRANCH  37  38
HETATM   38  N5  UNL     1      -8.650  16.408  23.087  1.00  0.00    -0.394 N 
HETATM   39  C23 UNL     1     -10.035  16.300  22.952  1.00  0.00     0.148 C 
BRANCH  38  40
HETATM   40  C24 UNL     1      -7.773  15.926  22.106  1.00  0.00     0.066 C 
BRANCH  40  41
HETATM   41  C25 UNL     1      -7.428  16.818  20.940  1.00  0.00    -0.019 C 
HETATM   42  C26 UNL     1      -7.318  18.259  21.318  1.00  0.00     0.020 C 
HETATM   43  C27 UNL     1      -8.315  16.661  19.751  1.00  0.00     0.020 C 
HETATM   44  C28 UNL     1      -6.006  16.420  20.440  1.00  0.00     0.020 C 
ENDBRANCH  40  41
ENDBRANCH  38  40
ENDBRANCH  37  38
ENDBRANCH  34  37
ENDBRANCH  26  34
ENDBRANCH   3  26
TORSDOF 13
ENDMDL
