MODEL 1
REMARK VINA RESULT: -9.670538952      0.000      0.000
REMARK  11 active torsions:
REMARK  status: ('A' for Active; 'I' for Inactive)
REMARK    1  A    between atoms: C2_2  and  C4_4 
REMARK    2  A    between atoms: C4_4  and  C5_6 
REMARK    3  A    between atoms: C5_6  and  C6_7 
REMARK    4  A    between atoms: C6_7  and  O2_8 
REMARK    5  A    between atoms: C15_18  and  C16_19 
REMARK       I    between atoms: C16_19  and  N1_21 
REMARK    6  A    between atoms: N1_21  and  C17_23 
REMARK    7  A    between atoms: C17_23  and  C18_24 
REMARK    8  A    between atoms: C18_24  and  C19_25 
REMARK    9  A    between atoms: C19_25  and  N2_26 
REMARK       I    between atoms: N2_26  and  C20_28 
REMARK   10  A    between atoms: C20_28  and  C21_30 
REMARK   11  A    between atoms: C22_31  and  C23_32 
ROOT
HETATM    1  C6  UNL     1     -10.021  15.158  32.062  1.00  0.00     0.072 C 
HETATM    2  C7  UNL     1      -9.083  16.251  32.688  1.00  0.00     0.039 C 
HETATM    3  C8  UNL     1      -8.181  16.639  31.533  1.00  0.00     0.009 C 
HETATM    4  C9  UNL     1      -8.778  15.965  30.345  1.00  0.00     0.006 C 
HETATM    5  C10 UNL     1      -8.500  16.433  28.987  1.00  0.00    -0.032 C 
HETATM    6  C11 UNL     1      -7.351  17.433  29.227  1.00  0.00     0.016 C 
HETATM    7  C12 UNL     1      -7.806  15.298  28.234  1.00  0.00     0.011 C 
HETATM    8  C13 UNL     1      -8.366  14.968  26.904  1.00  0.00     0.007 C 
HETATM    9  C14 UNL     1      -8.680  16.136  26.043  1.00  0.00     0.007 C 
HETATM   10  C15 UNL     1      -9.638  15.691  24.965  1.00  0.00     0.083 C 
HETATM   11  C24 UNL     1     -10.698  16.754  24.829  1.00  0.00     0.015 C 
HETATM   12  C25 UNL     1     -10.402  17.799  25.877  1.00  0.00     0.011 C 
HETATM   13  C26 UNL     1      -9.333  17.300  26.782  1.00  0.00    -0.032 C 
HETATM   14  C27 UNL     1      -8.287  18.442  26.685  1.00  0.00     0.016 C 
HETATM   15  C28 UNL     1      -9.657  17.007  28.202  1.00  0.00     0.031 C 
HETATM   16  C29 UNL     1     -10.838  16.205  28.510  1.00  0.00    -0.083 C 
HETATM   17  C30 UNL     1     -12.057  16.214  28.017  1.00  0.00     0.015 C 
HETATM   18  C31 UNL     1     -10.796  15.145  29.632  1.00  0.00     0.046 C 
HETATM   19  C32 UNL     1     -10.238  15.863  30.794  1.00  0.00    -0.005 C 
HETATM   20  C33 UNL     1     -10.848  17.207  31.055  1.00  0.00     0.019 C 
ENDROOT
BRANCH  10  21
HETATM   21  C16 UNL     1      -8.879  15.504  23.666  1.00  0.00     0.222 C 
HETATM   22  O3  UNL     1      -7.967  14.680  23.552  1.00  0.00    -0.273 OA
HETATM   23  N1  UNL     1      -9.282  16.335  22.592  1.00  0.00    -0.361 N 
ATOM     24  H1  UNL     1     -10.048  16.983  22.770  1.00  0.00     0.162 HD
BRANCH  23  25
HETATM   25  C17 UNL     1      -8.706  16.349  21.268  1.00  0.00     0.124 C 
BRANCH  25  26
HETATM   26  C18 UNL     1      -7.753  17.516  21.171  1.00  0.00     0.039 C 
BRANCH  26  27
HETATM   27  C19 UNL     1      -6.306  17.107  21.316  1.00  0.00     0.124 C 
BRANCH  27  28
HETATM   28  N2  UNL     1      -5.987  17.118  22.751  1.00  0.00    -0.358 N 
HETATM   29  C20 UNL     1      -5.281  18.219  23.271  1.00  0.00     0.241 C 
HETATM   30  O4  UNL     1      -4.943  19.153  22.511  1.00  0.00    -0.269 OA
ATOM     31  H2  UNL     1      -6.271  16.348  23.355  1.00  0.00     0.162 HD
BRANCH  29  32
HETATM   32  C21 UNL     1      -4.946  18.274  24.679  1.00  0.00     0.081 C 
HETATM   33  C22 UNL     1      -4.954  17.247  25.492  1.00  0.00     0.090 C 
BRANCH  33  34
HETATM   34  C23 UNL     1      -4.597  17.428  26.888  1.00  0.00     0.198 C 
HETATM   35  O5  UNL     1      -4.571  18.583  27.397  1.00  0.00    -0.645 OA
HETATM   36  O6  UNL     1      -4.282  16.340  27.676  1.00  0.00    -0.645 OA
ENDBRANCH  33  34
ENDBRANCH  29  32
ENDBRANCH  27  28
ENDBRANCH  26  27
ENDBRANCH  25  26
ENDBRANCH  23  25
ENDBRANCH  10  21
BRANCH   1  37
HETATM   37  C5  UNL     1     -11.067  14.974  33.064  1.00  0.00     0.122 C 
BRANCH  37  38
HETATM   38  C4  UNL     1     -10.689  14.481  34.393  1.00  0.00     0.157 C 
HETATM   39  O1  UNL     1     -10.155  13.372  34.520  1.00  0.00    -0.293 OA
BRANCH  38  40
HETATM   40  C2  UNL     1     -10.944  15.294  35.546  1.00  0.00    -0.025 C 
HETATM   41  C1  UNL     1     -12.179  15.502  35.940  1.00  0.00     0.022 C 
HETATM   42  C3  UNL     1      -9.831  15.901  36.298  1.00  0.00     0.051 C 
ENDBRANCH  38  40
ENDBRANCH  37  38
ENDBRANCH   1  37
BRANCH   1  43
HETATM   43  O2  UNL     1      -9.223  14.023  32.038  1.00  0.00    -0.389 OA
ATOM     44  H2  UNL     1      -9.245  13.655  31.163  1.00  0.00     0.210 HD
ENDBRANCH   1  43
TORSDOF 11
ENDMDL
MODEL 2
REMARK VINA RESULT: -9.377249388      0.940      1.564
REMARK  11 active torsions:
REMARK  status: ('A' for Active; 'I' for Inactive)
REMARK    1  A    between atoms: C2_2  and  C4_4 
REMARK    2  A    between atoms: C4_4  and  C5_6 
REMARK    3  A    between atoms: C5_6  and  C6_7 
REMARK    4  A    between atoms: C6_7  and  O2_8 
REMARK    5  A    between atoms: C15_18  and  C16_19 
REMARK       I    between atoms: C16_19  and  N1_21 
REMARK    6  A    between atoms: N1_21  and  C17_23 
REMARK    7  A    between atoms: C17_23  and  C18_24 
REMARK    8  A    between atoms: C18_24  and  C19_25 
REMARK    9  A    between atoms: C19_25  and  N2_26 
REMARK       I    between atoms: N2_26  and  C20_28 
REMARK   10  A    between atoms: C20_28  and  C21_30 
REMARK   11  A    between atoms: C22_31  and  C23_32 
ROOT
HETATM    1  C6  UNL     1     -10.175  15.235  32.300  1.00  0.00     0.072 C 
HETATM    2  C7  UNL     1      -9.135  16.231  32.925  1.00  0.00     0.039 C 
HETATM    3  C8  UNL     1      -8.206  16.538  31.766  1.00  0.00     0.009 C 
HETATM    4  C9  UNL     1      -8.871  15.929  30.579  1.00  0.00     0.006 C 
HETATM    5  C10 UNL     1      -8.557  16.375  29.221  1.00  0.00    -0.032 C 
HETATM    6  C11 UNL     1      -7.318  17.261  29.459  1.00  0.00     0.016 C 
HETATM    7  C12 UNL     1      -7.977  15.183  28.459  1.00  0.00     0.011 C 
HETATM    8  C13 UNL     1      -8.573  14.914  27.131  1.00  0.00     0.007 C 
HETATM    9  C14 UNL     1      -8.780  16.110  26.277  1.00  0.00     0.007 C 
HETATM   10  C15 UNL     1      -9.782  15.762  25.203  1.00  0.00     0.083 C 
HETATM   11  C24 UNL     1     -10.738  16.921  25.077  1.00  0.00     0.015 C 
HETATM   12  C25 UNL     1     -10.339  17.928  26.128  1.00  0.00     0.011 C 
HETATM   13  C26 UNL     1      -9.317  17.327  27.025  1.00  0.00    -0.032 C 
HETATM   14  C27 UNL     1      -8.169  18.365  26.926  1.00  0.00     0.016 C 
HETATM   15  C28 UNL     1      -9.659  17.059  28.445  1.00  0.00     0.031 C 
HETATM   16  C29 UNL     1     -10.909  16.370  28.757  1.00  0.00    -0.083 C 
HETATM   17  C30 UNL     1     -12.124  16.496  28.271  1.00  0.00     0.015 C 
HETATM   18  C31 UNL     1     -10.961  15.306  29.874  1.00  0.00     0.046 C 
HETATM   19  C32 UNL     1     -10.332  15.963  31.036  1.00  0.00    -0.005 C 
HETATM   20  C33 UNL     1     -10.811  17.357  31.306  1.00  0.00     0.019 C 
ENDROOT
BRANCH  10  21
HETATM   21  C16 UNL     1      -9.051  15.511  23.899  1.00  0.00     0.222 C 
HETATM   22  O3  UNL     1      -8.155  14.668  23.802  1.00  0.00    -0.273 OA
HETATM   23  N1  UNL     1      -9.460  16.305  22.800  1.00  0.00    -0.361 N 
ATOM     24  H1  UNL     1     -10.212  16.973  22.966  1.00  0.00     0.162 HD
BRANCH  23  25
HETATM   25  C17 UNL     1      -8.910  16.257  21.466  1.00  0.00     0.124 C 
BRANCH  25  26
HETATM   26  C18 UNL     1      -7.943  17.405  21.304  1.00  0.00     0.039 C 
BRANCH  26  27
HETATM   27  C19 UNL     1      -6.497  16.971  21.369  1.00  0.00     0.124 C 
BRANCH  27  28
HETATM   28  N2  UNL     1      -6.097  16.985  22.782  1.00  0.00    -0.358 N 
HETATM   29  C20 UNL     1      -5.358  18.084  23.258  1.00  0.00     0.241 C 
HETATM   30  O4  UNL     1      -5.061  19.015  22.477  1.00  0.00    -0.269 OA
ATOM     31  H2  UNL     1      -6.348  16.217  23.404  1.00  0.00     0.162 HD
BRANCH  29  32
HETATM   32  C21 UNL     1      -4.942  18.142  24.644  1.00  0.00     0.081 C 
HETATM   33  C22 UNL     1      -5.097  17.174  25.514  1.00  0.00     0.090 C 
BRANCH  33  34
HETATM   34  C23 UNL     1      -4.637  17.352  26.880  1.00  0.00     0.198 C 
HETATM   35  O5  UNL     1      -4.222  16.365  27.549  1.00  0.00    -0.645 OA
HETATM   36  O6  UNL     1      -4.648  18.602  27.464  1.00  0.00    -0.645 OA
ENDBRANCH  33  34
ENDBRANCH  29  32
ENDBRANCH  27  28
ENDBRANCH  26  27
ENDBRANCH  25  26
ENDBRANCH  23  25
ENDBRANCH  10  21
BRANCH   1  37
HETATM   37  C5  UNL     1     -11.228  15.145  33.307  1.00  0.00     0.122 C 
BRANCH  37  38
HETATM   38  C4  UNL     1     -12.103  13.967  33.308  1.00  0.00     0.157 C 
HETATM   39  O1  UNL     1     -11.959  13.083  34.162  1.00  0.00    -0.293 OA
BRANCH  38  40
HETATM   40  C2  UNL     1     -13.125  13.847  32.310  1.00  0.00    -0.025 C 
HETATM   41  C1  UNL     1     -14.065  14.758  32.223  1.00  0.00     0.022 C 
HETATM   42  C3  UNL     1     -13.130  12.706  31.375  1.00  0.00     0.051 C 
ENDBRANCH  38  40
ENDBRANCH  37  38
ENDBRANCH   1  37
BRANCH   1  43
HETATM   43  O2  UNL     1      -9.488  14.029  32.267  1.00  0.00    -0.389 OA
ATOM     44  H2  UNL     1     -10.110  13.321  32.381  1.00  0.00     0.210 HD
ENDBRANCH   1  43
TORSDOF 11
ENDMDL
MODEL 3
REMARK VINA RESULT: -9.323849926      2.417      4.750
REMARK  11 active torsions:
REMARK  status: ('A' for Active; 'I' for Inactive)
REMARK    1  A    between atoms: C2_2  and  C4_4 
REMARK    2  A    between atoms: C4_4  and  C5_6 
REMARK    3  A    between atoms: C5_6  and  C6_7 
REMARK    4  A    between atoms: C6_7  and  O2_8 
REMARK    5  A    between atoms: C15_18  and  C16_19 
REMARK       I    between atoms: C16_19  and  N1_21 
REMARK    6  A    between atoms: N1_21  and  C17_23 
REMARK    7  A    between atoms: C17_23  and  C18_24 
REMARK    8  A    between atoms: C18_24  and  C19_25 
REMARK    9  A    between atoms: C19_25  and  N2_26 
REMARK       I    between atoms: N2_26  and  C20_28 
REMARK   10  A    between atoms: C20_28  and  C21_30 
REMARK   11  A    between atoms: C22_31  and  C23_32 
ROOT
HETATM    1  C6  UNL     1     -12.707  15.270  33.422  1.00  0.00     0.072 C 
HETATM    2  C7  UNL     1     -13.397  13.963  32.891  1.00  0.00     0.039 C 
HETATM    3  C8  UNL     1     -13.191  14.044  31.391  1.00  0.00     0.009 C 
HETATM    4  C9  UNL     1     -12.255  15.188  31.200  1.00  0.00     0.006 C 
HETATM    5  C10 UNL     1     -11.454  15.319  29.983  1.00  0.00    -0.032 C 
HETATM    6  C11 UNL     1     -12.084  14.245  29.073  1.00  0.00     0.016 C 
HETATM    7  C12 UNL     1     -11.858  16.623  29.294  1.00  0.00     0.011 C 
HETATM    8  C13 UNL     1     -10.746  17.513  28.893  1.00  0.00     0.007 C 
HETATM    9  C14 UNL     1      -9.599  16.836  28.237  1.00  0.00     0.007 C 
HETATM   10  C15 UNL     1      -8.399  17.748  28.312  1.00  0.00     0.083 C 
HETATM   11  C24 UNL     1      -7.208  16.905  28.687  1.00  0.00     0.015 C 
HETATM   12  C25 UNL     1      -7.719  15.501  28.900  1.00  0.00     0.011 C 
HETATM   13  C26 UNL     1      -9.205  15.509  28.880  1.00  0.00    -0.032 C 
HETATM   14  C27 UNL     1      -9.506  14.455  27.782  1.00  0.00     0.016 C 
HETATM   15  C28 UNL     1      -9.954  15.197  30.124  1.00  0.00     0.031 C 
HETATM   16  C29 UNL     1      -9.574  15.863  31.368  1.00  0.00    -0.083 C 
HETATM   17  C30 UNL     1      -8.400  16.134  31.894  1.00  0.00     0.015 C 
HETATM   18  C31 UNL     1     -10.654  16.349  32.359  1.00  0.00     0.046 C 
HETATM   19  C32 UNL     1     -11.531  15.178  32.549  1.00  0.00    -0.005 C 
HETATM   20  C33 UNL     1     -10.811  13.887  32.798  1.00  0.00     0.019 C 
ENDROOT
BRANCH  10  21
HETATM   21  C16 UNL     1      -8.195  18.418  26.968  1.00  0.00     0.222 C 
HETATM   22  O3  UNL     1      -7.729  19.557  26.867  1.00  0.00    -0.273 OA
HETATM   23  N1  UNL     1      -8.573  17.657  25.835  1.00  0.00    -0.361 N 
ATOM     24  H1  UNL     1      -8.943  16.723  26.009  1.00  0.00     0.162 HD
BRANCH  23  25
HETATM   25  C17 UNL     1      -8.483  18.082  24.459  1.00  0.00     0.124 C 
BRANCH  25  26
HETATM   26  C18 UNL     1      -7.819  16.986  23.660  1.00  0.00     0.039 C 
BRANCH  26  27
HETATM   27  C19 UNL     1      -8.675  16.487  22.520  1.00  0.00     0.124 C 
BRANCH  27  28
HETATM   28  N2  UNL     1      -7.867  16.570  21.295  1.00  0.00    -0.358 N 
HETATM   29  C20 UNL     1      -8.258  17.479  20.295  1.00  0.00     0.241 C 
HETATM   30  O4  UNL     1      -9.273  18.189  20.466  1.00  0.00    -0.269 OA
ATOM     31  H2  UNL     1      -7.042  15.983  21.173  1.00  0.00     0.162 HD
BRANCH  29  32
HETATM   32  C21 UNL     1      -7.492  17.595  19.071  1.00  0.00     0.081 C 
HETATM   33  C22 UNL     1      -6.209  17.853  19.012  1.00  0.00     0.090 C 
BRANCH  33  34
HETATM   34  C23 UNL     1      -5.550  17.946  17.721  1.00  0.00     0.198 C 
HETATM   35  O5  UNL     1      -5.310  19.072  17.204  1.00  0.00    -0.645 OA
HETATM   36  O6  UNL     1      -5.178  16.802  17.043  1.00  0.00    -0.645 OA
ENDBRANCH  33  34
ENDBRANCH  29  32
ENDBRANCH  27  28
ENDBRANCH  26  27
ENDBRANCH  25  26
ENDBRANCH  23  25
ENDBRANCH  10  21
BRANCH   1  37
HETATM   37  C5  UNL     1     -12.647  15.077  34.867  1.00  0.00     0.122 C 
BRANCH  37  38
HETATM   38  C4  UNL     1     -11.609  15.780  35.629  1.00  0.00     0.157 C 
HETATM   39  O1  UNL     1     -11.448  16.999  35.489  1.00  0.00    -0.293 OA
BRANCH  38  40
HETATM   40  C2  UNL     1     -10.778  15.043  36.536  1.00  0.00    -0.025 C 
HETATM   41  C1  UNL     1      -9.572  15.477  36.819  1.00  0.00     0.022 C 
HETATM   42  C3  UNL     1     -11.267  13.799  37.158  1.00  0.00     0.051 C 
ENDBRANCH  38  40
ENDBRANCH  37  38
ENDBRANCH   1  37
BRANCH   1  43
HETATM   43  O2  UNL     1     -13.637  16.261  33.143  1.00  0.00    -0.389 OA
ATOM     44  H2  UNL     1     -14.427  15.852  32.809  1.00  0.00     0.210 HD
ENDBRANCH   1  43
TORSDOF 11
ENDMDL
MODEL 4
REMARK VINA RESULT: -9.260710607      2.576      9.821
REMARK  11 active torsions:
REMARK  status: ('A' for Active; 'I' for Inactive)
REMARK    1  A    between atoms: C2_2  and  C4_4 
REMARK    2  A    between atoms: C4_4  and  C5_6 
REMARK    3  A    between atoms: C5_6  and  C6_7 
REMARK    4  A    between atoms: C6_7  and  O2_8 
REMARK    5  A    between atoms: C15_18  and  C16_19 
REMARK       I    between atoms: C16_19  and  N1_21 
REMARK    6  A    between atoms: N1_21  and  C17_23 
REMARK    7  A    between atoms: C17_23  and  C18_24 
REMARK    8  A    between atoms: C18_24  and  C19_25 
REMARK    9  A    between atoms: C19_25  and  N2_26 
REMARK       I    between atoms: N2_26  and  C20_28 
REMARK   10  A    between atoms: C20_28  and  C21_30 
REMARK   11  A    between atoms: C22_31  and  C23_32 
ROOT
HETATM    1  C6  UNL     1      -5.950  16.934  20.748  1.00  0.00     0.072 C 
HETATM    2  C7  UNL     1      -7.160  17.034  19.751  1.00  0.00     0.039 C 
HETATM    3  C8  UNL     1      -8.317  16.465  20.549  1.00  0.00     0.009 C 
HETATM    4  C9  UNL     1      -7.782  16.311  21.931  1.00  0.00     0.006 C 
HETATM    5  C10 UNL     1      -8.676  16.231  23.087  1.00  0.00    -0.032 C 
HETATM    6  C11 UNL     1     -10.051  16.063  22.411  1.00  0.00     0.016 C 
HETATM    7  C12 UNL     1      -8.460  14.871  23.752  1.00  0.00     0.011 C 
HETATM    8  C13 UNL     1      -8.244  14.895  25.216  1.00  0.00     0.007 C 
HETATM    9  C14 UNL     1      -9.162  15.780  25.977  1.00  0.00     0.007 C 
HETATM   10  C15 UNL     1      -8.548  16.058  27.327  1.00  0.00     0.083 C 
HETATM   11  C24 UNL     1      -8.734  17.525  27.620  1.00  0.00     0.015 C 
HETATM   12  C25 UNL     1      -9.402  18.128  26.408  1.00  0.00     0.011 C 
HETATM   13  C26 UNL     1      -9.428  17.127  25.310  1.00  0.00    -0.032 C 
HETATM   14  C27 UNL     1     -10.940  17.083  24.965  1.00  0.00     0.016 C 
HETATM   15  C28 UNL     1      -8.620  17.363  24.086  1.00  0.00     0.031 C 
HETATM   16  C29 UNL     1      -7.219  17.757  24.225  1.00  0.00    -0.083 C 
HETATM   17  C30 UNL     1      -6.624  18.604  25.035  1.00  0.00     0.015 C 
HETATM   18  C31 UNL     1      -6.145  17.180  23.280  1.00  0.00     0.046 C 
HETATM   19  C32 UNL     1      -6.695  17.389  21.927  1.00  0.00    -0.005 C 
HETATM   20  C33 UNL     1      -7.254  18.758  21.680  1.00  0.00     0.019 C 
ENDROOT
BRANCH  10  21
HETATM   21  C16 UNL     1      -9.230  15.199  28.374  1.00  0.00     0.222 C 
HETATM   22  O3  UNL     1      -8.771  15.066  29.512  1.00  0.00    -0.273 OA
HETATM   23  N1  UNL     1     -10.425  14.560  27.964  1.00  0.00    -0.361 N 
ATOM     24  H1  UNL     1     -10.736  14.731  27.008  1.00  0.00     0.162 HD
BRANCH  23  25
HETATM   25  C17 UNL     1     -11.242  13.689  28.774  1.00  0.00     0.124 C 
BRANCH  25  26
HETATM   26  C18 UNL     1     -12.673  14.166  28.698  1.00  0.00     0.039 C 
BRANCH  26  27
HETATM   27  C19 UNL     1     -12.891  15.486  29.399  1.00  0.00     0.124 C 
BRANCH  27  28
HETATM   28  N2  UNL     1     -12.443  15.325  30.790  1.00  0.00    -0.358 N 
HETATM   29  C20 UNL     1     -11.512  16.246  31.305  1.00  0.00     0.241 C 
HETATM   30  O4  UNL     1     -11.089  17.172  30.577  1.00  0.00    -0.269 OA
ATOM     31  H2  UNL     1     -12.799  14.564  31.368  1.00  0.00     0.162 HD
BRANCH  29  32
HETATM   32  C21 UNL     1     -11.043  16.127  32.669  1.00  0.00     0.081 C 
HETATM   33  C22 UNL     1     -11.794  15.813  33.696  1.00  0.00     0.090 C 
BRANCH  33  34
HETATM   34  C23 UNL     1     -11.206  15.724  35.020  1.00  0.00     0.198 C 
HETATM   35  O5  UNL     1     -11.586  16.497  35.943  1.00  0.00    -0.645 OA
HETATM   36  O6  UNL     1     -10.222  14.793  35.288  1.00  0.00    -0.645 OA
ENDBRANCH  33  34
ENDBRANCH  29  32
ENDBRANCH  27  28
ENDBRANCH  26  27
ENDBRANCH  25  26
ENDBRANCH  23  25
ENDBRANCH  10  21
BRANCH   1  37
HETATM   37  C5  UNL     1      -4.901  17.724  20.111  1.00  0.00     0.122 C 
BRANCH  37  38
HETATM   38  C4  UNL     1      -3.517  17.554  20.567  1.00  0.00     0.157 C 
HETATM   39  O1  UNL     1      -2.757  16.772  19.982  1.00  0.00    -0.293 OA
BRANCH  38  40
HETATM   40  C2  UNL     1      -3.051  18.299  21.700  1.00  0.00    -0.025 C 
HETATM   41  C1  UNL     1      -3.186  19.605  21.724  1.00  0.00     0.022 C 
HETATM   42  C3  UNL     1      -2.420  17.613  22.842  1.00  0.00     0.051 C 
ENDBRANCH  38  40
ENDBRANCH  37  38
ENDBRANCH   1  37
BRANCH   1  43
HETATM   43  O2  UNL     1      -5.595  15.594  20.690  1.00  0.00    -0.389 OA
ATOM     44  H2  UNL     1      -5.732  15.205  21.546  1.00  0.00     0.210 HD
ENDBRANCH   1  43
TORSDOF 11
ENDMDL
MODEL 5
REMARK VINA RESULT: -9.203321187      2.240      4.644
REMARK  11 active torsions:
REMARK  status: ('A' for Active; 'I' for Inactive)
REMARK    1  A    between atoms: C2_2  and  C4_4 
REMARK    2  A    between atoms: C4_4  and  C5_6 
REMARK    3  A    between atoms: C5_6  and  C6_7 
REMARK    4  A    between atoms: C6_7  and  O2_8 
REMARK    5  A    between atoms: C15_18  and  C16_19 
REMARK       I    between atoms: C16_19  and  N1_21 
REMARK    6  A    between atoms: N1_21  and  C17_23 
REMARK    7  A    between atoms: C17_23  and  C18_24 
REMARK    8  A    between atoms: C18_24  and  C19_25 
REMARK    9  A    between atoms: C19_25  and  N2_26 
REMARK       I    between atoms: N2_26  and  C20_28 
REMARK   10  A    between atoms: C20_28  and  C21_30 
REMARK   11  A    between atoms: C22_31  and  C23_32 
ROOT
HETATM    1  C6  UNL     1     -12.943  15.158  33.454  1.00  0.00     0.072 C 
HETATM    2  C7  UNL     1     -13.666  13.923  32.808  1.00  0.00     0.039 C 
HETATM    3  C8  UNL     1     -13.401  14.101  31.325  1.00  0.00     0.009 C 
HETATM    4  C9  UNL     1     -12.412  15.213  31.250  1.00  0.00     0.006 C 
HETATM    5  C10 UNL     1     -11.561  15.395  30.073  1.00  0.00    -0.032 C 
HETATM    6  C11 UNL     1     -12.201  14.417  29.068  1.00  0.00     0.016 C 
HETATM    7  C12 UNL     1     -11.886  16.761  29.467  1.00  0.00     0.011 C 
HETATM    8  C13 UNL     1     -10.723  17.628  29.170  1.00  0.00     0.007 C 
HETATM    9  C14 UNL     1      -9.582  16.950  28.507  1.00  0.00     0.007 C 
HETATM   10  C15 UNL     1      -8.349  17.801  28.688  1.00  0.00     0.083 C 
HETATM   11  C24 UNL     1      -7.208  16.882  29.043  1.00  0.00     0.015 C 
HETATM   12  C25 UNL     1      -7.784  15.490  29.135  1.00  0.00     0.011 C 
HETATM   13  C26 UNL     1      -9.267  15.565  29.065  1.00  0.00    -0.032 C 
HETATM   14  C27 UNL     1      -9.570  14.605  27.884  1.00  0.00     0.016 C 
HETATM   15  C28 UNL     1     -10.074  15.198  30.257  1.00  0.00     0.031 C 
HETATM   16  C29 UNL     1      -9.714  15.758  31.558  1.00  0.00    -0.083 C 
HETATM   17  C30 UNL     1      -8.551  15.939  32.142  1.00  0.00     0.015 C 
HETATM   18  C31 UNL     1     -10.809  16.219  32.543  1.00  0.00     0.046 C 
HETATM   19  C32 UNL     1     -11.740  15.076  32.618  1.00  0.00    -0.005 C 
HETATM   20  C33 UNL     1     -11.084  13.741  32.798  1.00  0.00     0.019 C 
ENDROOT
BRANCH  10  21
HETATM   21  C16 UNL     1      -8.067  18.555  27.404  1.00  0.00     0.222 C 
HETATM   22  O3  UNL     1      -8.972  18.987  26.686  1.00  0.00    -0.273 OA
HETATM   23  N1  UNL     1      -6.699  18.731  27.080  1.00  0.00    -0.361 N 
ATOM     24  H1  UNL     1      -6.016  18.348  27.733  1.00  0.00     0.162 HD
BRANCH  23  25
HETATM   25  C17 UNL     1      -6.184  19.403  25.911  1.00  0.00     0.124 C 
BRANCH  25  26
HETATM   26  C18 UNL     1      -4.895  18.732  25.501  1.00  0.00     0.039 C 
BRANCH  26  27
HETATM   27  C19 UNL     1      -5.089  17.295  25.078  1.00  0.00     0.124 C 
BRANCH  27  28
HETATM   28  N2  UNL     1      -5.847  17.305  23.819  1.00  0.00    -0.358 N 
HETATM   29  C20 UNL     1      -7.170  16.823  23.829  1.00  0.00     0.241 C 
HETATM   30  O4  UNL     1      -7.666  16.401  24.897  1.00  0.00    -0.269 OA
ATOM     31  H2  UNL     1      -5.426  17.653  22.959  1.00  0.00     0.162 HD
BRANCH  29  32
HETATM   32  C21 UNL     1      -7.955  16.815  22.613  1.00  0.00     0.081 C 
HETATM   33  C22 UNL     1      -7.873  17.711  21.661  1.00  0.00     0.090 C 
BRANCH  33  34
HETATM   34  C23 UNL     1      -8.716  17.595  20.485  1.00  0.00     0.198 C 
HETATM   35  O5  UNL     1      -9.663  16.760  20.455  1.00  0.00    -0.645 OA
HETATM   36  O6  UNL     1      -8.493  18.395  19.382  1.00  0.00    -0.645 OA
ENDBRANCH  33  34
ENDBRANCH  29  32
ENDBRANCH  27  28
ENDBRANCH  26  27
ENDBRANCH  25  26
ENDBRANCH  23  25
ENDBRANCH  10  21
BRANCH   1  37
HETATM   37  C5  UNL     1     -12.946  14.861  34.883  1.00  0.00     0.122 C 
BRANCH  37  38
HETATM   38  C4  UNL     1     -11.936  15.499  35.737  1.00  0.00     0.157 C 
HETATM   39  O1  UNL     1     -11.827  16.731  35.761  1.00  0.00    -0.293 OA
BRANCH  38  40
HETATM   40  C2  UNL     1     -11.075  14.682  36.541  1.00  0.00    -0.025 C 
HETATM   41  C1  UNL     1      -9.937  15.166  36.980  1.00  0.00     0.022 C 
HETATM   42  C3  UNL     1     -11.456  13.300  36.884  1.00  0.00     0.051 C 
ENDBRANCH  38  40
ENDBRANCH  37  38
ENDBRANCH   1  37
BRANCH   1  43
HETATM   43  O2  UNL     1     -13.821  16.206  33.216  1.00  0.00    -0.389 OA
ATOM     44  H2  UNL     1     -14.179  16.498  34.047  1.00  0.00     0.210 HD
ENDBRANCH   1  43
TORSDOF 11
ENDMDL
