MODEL 1
REMARK VINA RESULT: -9.539532402      0.000      0.000
REMARK  10 active torsions:
REMARK  status: ('A' for Active; 'I' for Inactive)
REMARK    1  A    between atoms: S1_2  and  C2_5 
REMARK    2  A    between atoms: C2_5  and  C3_6 
REMARK    3  A    between atoms: C2_5  and  C10_13 
REMARK    4  A    between atoms: C3_6  and  C4_7 
REMARK       I    between atoms: C10_13  and  N1_15 
REMARK    5  A    between atoms: N1_15  and  C11_17 
REMARK    6  A    between atoms: C11_17  and  C12_18 
REMARK    7  A    between atoms: C11_17  and  C13_21 
REMARK    8  A    between atoms: C11_17  and  C25_35 
REMARK       I    between atoms: C13_21  and  N2_23 
REMARK    9  A    between atoms: N2_23  and  C14_24 
REMARK   10  A    between atoms: C14_24  and  C15_25 
ROOT
HETATM    1  C11 UNL     1      -9.088  15.994  27.655  1.00  0.00     0.245 C 
ENDROOT
BRANCH   1   2
HETATM    2  N1  UNL     1      -8.541  16.681  26.493  1.00  0.00    -0.327 N 
HETATM    3  C10 UNL     1      -8.349  16.147  25.227  1.00  0.00     0.260 C 
HETATM    4  O3  UNL     1      -8.737  14.990  24.987  1.00  0.00    -0.267 OA
ATOM      5  H1  UNL     1      -8.272  17.656  26.624  1.00  0.00     0.164 HD
BRANCH   3   6
HETATM    6  C2  UNL     1      -7.654  16.875  24.091  1.00  0.00     0.104 C 
BRANCH   6   7
HETATM    7  S1  UNL     1      -6.475  17.984  24.707  1.00  0.00     0.173 S 
HETATM    8  C1  UNL     1      -5.342  18.639  23.540  1.00  0.00     0.166 C 
HETATM    9  O1  UNL     1      -5.542  17.050  25.622  1.00  0.00    -0.223 OA
HETATM   10  O2  UNL     1      -6.987  18.931  25.713  1.00  0.00    -0.223 OA
ENDBRANCH   6   7
BRANCH   6  11
HETATM   11  C3  UNL     1      -7.352  16.067  22.929  1.00  0.00     0.061 C 
BRANCH  11  12
HETATM   12  C4  UNL     1      -7.746  16.479  21.573  1.00  0.00    -0.010 C 
HETATM   13  C5  UNL     1      -8.756  17.530  21.340  1.00  0.00     0.005 C 
HETATM   14  C6  UNL     1      -9.602  17.100  20.123  1.00  0.00     0.000 C 
HETATM   15  C7  UNL     1      -8.601  16.534  19.126  1.00  0.00     0.000 C 
HETATM   16  C8  UNL     1      -7.225  17.107  19.286  1.00  0.00     0.000 C 
HETATM   17  C9  UNL     1      -6.568  16.759  20.614  1.00  0.00     0.005 C 
ENDBRANCH  11  12
ENDBRANCH   6  11
ENDBRANCH   3   6
ENDBRANCH   1   2
BRANCH   1  18
HETATM   18  C12 UNL     1      -7.944  15.019  28.034  1.00  0.00     0.216 C 
HETATM   19  O4  UNL     1      -6.837  15.530  28.351  1.00  0.00    -0.646 OA
HETATM   20  O5  UNL     1      -8.103  13.662  28.026  1.00  0.00    -0.646 OA
ENDBRANCH   1  18
BRANCH   1  21
HETATM   21  C13 UNL     1      -8.896  17.071  28.757  1.00  0.00     0.333 C 
HETATM   22  O6  UNL     1      -8.941  18.209  28.276  1.00  0.00    -0.254 OA
HETATM   23  N2  UNL     1      -8.665  16.658  30.035  1.00  0.00    -0.384 NA
BRANCH  23  24
HETATM   24  C14 UNL     1      -8.432  16.253  31.319  1.00  0.00     0.168 C 
BRANCH  24  25
HETATM   25  C15 UNL     1      -9.469  16.058  32.358  1.00  0.00     0.005 C 
HETATM   26  C16 UNL     1      -9.229  14.603  32.807  1.00  0.00     0.020 C 
HETATM   27  C17 UNL     1      -9.993  14.206  34.007  1.00  0.00    -0.013 C 
HETATM   28  C18 UNL     1      -9.517  15.045  35.142  1.00  0.00     0.009 C 
HETATM   29  C22 UNL     1     -11.465  14.354  33.693  1.00  0.00     0.009 C 
HETATM   30  C19 UNL     1      -9.840  16.494  34.762  1.00  0.00    -0.013 C 
HETATM   31  C20 UNL     1     -11.336  16.583  34.558  1.00  0.00     0.009 C 
HETATM   32  C24 UNL     1      -9.103  16.958  33.566  1.00  0.00     0.020 C 
HETATM   33  C21 UNL     1     -11.699  15.811  33.292  1.00  0.00    -0.013 C 
HETATM   34  C23 UNL     1     -10.901  16.235  32.097  1.00  0.00     0.020 C 
ENDBRANCH  24  25
ENDBRANCH  23  24
ENDBRANCH   1  21
BRANCH   1  35
HETATM   35  C25 UNL     1     -10.296  15.287  27.672  1.00  0.00     0.235 C 
HETATM   36  C26 UNL     1     -11.604  15.908  27.227  1.00  0.00     0.037 C 
HETATM   37  C27 UNL     1     -12.791  15.407  28.040  1.00  0.00     0.004 C 
HETATM   38  C28 UNL     1     -12.660  13.908  28.216  1.00  0.00     0.027 C 
HETATM   39  C29 UNL     1     -11.382  13.536  28.917  1.00  0.00     0.233 C 
HETATM   40  N3  UNL     1     -10.591  14.739  29.023  1.00  0.00    -0.067 N 
ATOM     41  H32 UNL     1      -9.741  14.589  29.566  1.00  0.00     0.277 HD
ATOM     42  H31 UNL     1     -11.034  15.433  29.625  1.00  0.00     0.277 HD
ENDBRANCH   1  35
TORSDOF 10
ENDMDL
MODEL 2
REMARK VINA RESULT: -9.484552578      2.055      3.829
REMARK  10 active torsions:
REMARK  status: ('A' for Active; 'I' for Inactive)
REMARK    1  A    between atoms: S1_2  and  C2_5 
REMARK    2  A    between atoms: C2_5  and  C3_6 
REMARK    3  A    between atoms: C2_5  and  C10_13 
REMARK    4  A    between atoms: C3_6  and  C4_7 
REMARK       I    between atoms: C10_13  and  N1_15 
REMARK    5  A    between atoms: N1_15  and  C11_17 
REMARK    6  A    between atoms: C11_17  and  C12_18 
REMARK    7  A    between atoms: C11_17  and  C13_21 
REMARK    8  A    between atoms: C11_17  and  C25_35 
REMARK       I    between atoms: C13_21  and  N2_23 
REMARK    9  A    between atoms: N2_23  and  C14_24 
REMARK   10  A    between atoms: C14_24  and  C15_25 
ROOT
HETATM    1  C11 UNL     1      -9.362  15.783  26.595  1.00  0.00     0.245 C 
ENDROOT
BRANCH   1   2
HETATM    2  N1  UNL     1      -8.327  16.623  27.181  1.00  0.00    -0.327 N 
HETATM    3  C10 UNL     1      -7.915  17.869  26.728  1.00  0.00     0.260 C 
HETATM    4  O3  UNL     1      -8.510  18.400  25.774  1.00  0.00    -0.267 OA
ATOM      5  H1  UNL     1      -7.857  16.258  28.009  1.00  0.00     0.164 HD
BRANCH   3   6
HETATM    6  C2  UNL     1      -6.741  18.639  27.303  1.00  0.00     0.104 C 
BRANCH   6   7
HETATM    7  S1  UNL     1      -5.816  17.635  28.370  1.00  0.00     0.173 S 
HETATM    8  C1  UNL     1      -4.176  18.161  28.703  1.00  0.00     0.166 C 
HETATM    9  O1  UNL     1      -5.593  16.299  27.509  1.00  0.00    -0.223 OA
HETATM   10  O2  UNL     1      -6.568  17.100  29.518  1.00  0.00    -0.223 OA
ENDBRANCH   6   7
BRANCH   6  11
HETATM   11  C3  UNL     1      -6.069  19.527  26.380  1.00  0.00     0.061 C 
BRANCH  11  12
HETATM   12  C4  UNL     1      -5.655  19.085  25.039  1.00  0.00    -0.010 C 
HETATM   13  C5  UNL     1      -5.577  20.020  23.899  1.00  0.00     0.005 C 
HETATM   14  C6  UNL     1      -6.075  19.268  22.646  1.00  0.00     0.000 C 
HETATM   15  C7  UNL     1      -5.466  17.877  22.753  1.00  0.00     0.000 C 
HETATM   16  C8  UNL     1      -4.192  17.853  23.544  1.00  0.00     0.000 C 
HETATM   17  C9  UNL     1      -4.375  18.223  25.008  1.00  0.00     0.005 C 
ENDBRANCH  11  12
ENDBRANCH   6  11
ENDBRANCH   3   6
ENDBRANCH   1   2
BRANCH   1  18
HETATM   18  C12 UNL     1      -9.226  14.470  27.405  1.00  0.00     0.216 C 
HETATM   19  O4  UNL     1      -8.063  14.127  27.749  1.00  0.00    -0.646 OA
HETATM   20  O5  UNL     1     -10.302  13.696  27.736  1.00  0.00    -0.646 OA
ENDBRANCH   1  18
BRANCH   1  21
HETATM   21  C13 UNL     1     -10.637  16.374  27.258  1.00  0.00     0.333 C 
HETATM   22  O6  UNL     1     -11.590  16.363  26.472  1.00  0.00    -0.254 OA
HETATM   23  N2  UNL     1     -10.544  16.851  28.531  1.00  0.00    -0.384 NA
BRANCH  23  24
HETATM   24  C14 UNL     1     -10.460  17.333  29.807  1.00  0.00     0.168 C 
BRANCH  24  25
HETATM   25  C15 UNL     1     -10.039  16.551  30.992  1.00  0.00     0.005 C 
HETATM   26  C16 UNL     1      -9.107  17.531  31.731  1.00  0.00     0.020 C 
HETATM   27  C17 UNL     1      -8.709  17.087  33.082  1.00  0.00    -0.013 C 
HETATM   28  C18 UNL     1      -9.941  17.020  33.916  1.00  0.00     0.009 C 
HETATM   29  C22 UNL     1      -7.975  15.772  32.942  1.00  0.00     0.009 C 
HETATM   30  C19 UNL     1     -10.843  15.972  33.256  1.00  0.00    -0.013 C 
HETATM   31  C20 UNL     1     -10.080  14.667  33.240  1.00  0.00     0.009 C 
HETATM   32  C24 UNL     1     -11.283  16.359  31.898  1.00  0.00     0.020 C 
HETATM   33  C21 UNL     1      -8.926  14.794  32.249  1.00  0.00    -0.013 C 
HETATM   34  C23 UNL     1      -9.365  15.253  30.892  1.00  0.00     0.020 C 
ENDBRANCH  24  25
ENDBRANCH  23  24
ENDBRANCH   1  21
BRANCH   1  35
HETATM   35  C25 UNL     1      -9.456  15.458  25.236  1.00  0.00     0.235 C 
HETATM   36  C26 UNL     1      -8.262  14.987  24.433  1.00  0.00     0.037 C 
HETATM   37  C27 UNL     1      -8.301  15.477  22.991  1.00  0.00     0.004 C 
HETATM   38  C28 UNL     1      -9.712  15.313  22.461  1.00  0.00     0.027 C 
HETATM   39  C29 UNL     1     -10.711  16.085  23.279  1.00  0.00     0.233 C 
HETATM   40  N3  UNL     1     -10.012  16.584  24.440  1.00  0.00    -0.067 N 
ATOM     41  H32 UNL     1     -10.602  17.195  25.005  1.00  0.00     0.277 HD
ATOM     42  H31 UNL     1      -9.293  17.262  24.187  1.00  0.00     0.277 HD
ENDBRANCH   1  35
TORSDOF 10
ENDMDL
MODEL 3
REMARK VINA RESULT: -9.473783453      0.643      1.298
REMARK  10 active torsions:
REMARK  status: ('A' for Active; 'I' for Inactive)
REMARK    1  A    between atoms: S1_2  and  C2_5 
REMARK    2  A    between atoms: C2_5  and  C3_6 
REMARK    3  A    between atoms: C2_5  and  C10_13 
REMARK    4  A    between atoms: C3_6  and  C4_7 
REMARK       I    between atoms: C10_13  and  N1_15 
REMARK    5  A    between atoms: N1_15  and  C11_17 
REMARK    6  A    between atoms: C11_17  and  C12_18 
REMARK    7  A    between atoms: C11_17  and  C13_21 
REMARK    8  A    between atoms: C11_17  and  C25_35 
REMARK       I    between atoms: C13_21  and  N2_23 
REMARK    9  A    between atoms: N2_23  and  C14_24 
REMARK   10  A    between atoms: C14_24  and  C15_25 
ROOT
HETATM    1  C11 UNL     1      -9.208  16.054  27.549  1.00  0.00     0.245 C 
ENDROOT
BRANCH   1   2
HETATM    2  N1  UNL     1      -8.559  16.686  26.408  1.00  0.00    -0.327 N 
HETATM    3  C10 UNL     1      -8.407  16.148  25.138  1.00  0.00     0.260 C 
HETATM    4  O3  UNL     1      -8.926  15.049  24.873  1.00  0.00    -0.267 OA
ATOM      5  H1  UNL     1      -8.177  17.619  26.559  1.00  0.00     0.164 HD
BRANCH   3   6
HETATM    6  C2  UNL     1      -7.606  16.800  24.027  1.00  0.00     0.104 C 
BRANCH   6   7
HETATM    7  S1  UNL     1      -6.327  17.768  24.682  1.00  0.00     0.173 S 
HETATM    8  C1  UNL     1      -4.948  18.045  23.634  1.00  0.00     0.166 C 
HETATM    9  O1  UNL     1      -5.716  16.830  25.833  1.00  0.00    -0.223 OA
HETATM   10  O2  UNL     1      -6.776  18.923  25.478  1.00  0.00    -0.223 OA
ENDBRANCH   6   7
BRANCH   6  11
HETATM   11  C3  UNL     1      -7.364  15.970  22.866  1.00  0.00     0.061 C 
BRANCH  11  12
HETATM   12  C4  UNL     1      -7.738  16.403  21.510  1.00  0.00    -0.010 C 
HETATM   13  C5  UNL     1      -8.738  17.464  21.279  1.00  0.00     0.005 C 
HETATM   14  C6  UNL     1      -9.572  17.056  20.045  1.00  0.00     0.000 C 
HETATM   15  C7  UNL     1      -8.562  16.496  19.054  1.00  0.00     0.000 C 
HETATM   16  C8  UNL     1      -7.184  17.057  19.238  1.00  0.00     0.000 C 
HETATM   17  C9  UNL     1      -6.547  16.687  20.570  1.00  0.00     0.005 C 
ENDBRANCH  11  12
ENDBRANCH   6  11
ENDBRANCH   3   6
ENDBRANCH   1   2
BRANCH   1  18
HETATM   18  C12 UNL     1      -8.111  15.090  28.066  1.00  0.00     0.216 C 
HETATM   19  O4  UNL     1      -7.216  15.583  28.803  1.00  0.00    -0.646 OA
HETATM   20  O5  UNL     1      -8.089  13.762  27.745  1.00  0.00    -0.646 OA
ENDBRANCH   1  18
BRANCH   1  21
HETATM   21  C13 UNL     1      -9.099  17.179  28.615  1.00  0.00     0.333 C 
HETATM   22  O6  UNL     1      -8.226  17.997  28.306  1.00  0.00    -0.254 OA
HETATM   23  N2  UNL     1      -9.893  17.105  29.719  1.00  0.00    -0.384 NA
BRANCH  23  24
HETATM   24  C14 UNL     1     -10.685  17.039  30.831  1.00  0.00     0.168 C 
BRANCH  24  25
HETATM   25  C15 UNL     1     -10.394  16.243  32.044  1.00  0.00     0.005 C 
HETATM   26  C16 UNL     1      -9.485  17.184  32.858  1.00  0.00     0.020 C 
HETATM   27  C17 UNL     1      -9.216  16.725  34.236  1.00  0.00    -0.013 C 
HETATM   28  C18 UNL     1     -10.513  16.712  34.968  1.00  0.00     0.009 C 
HETATM   29  C22 UNL     1      -8.529  15.380  34.153  1.00  0.00     0.009 C 
HETATM   30  C19 UNL     1     -11.402  15.701  34.235  1.00  0.00    -0.013 C 
HETATM   31  C20 UNL     1     -10.695  14.365  34.278  1.00  0.00     0.009 C 
HETATM   32  C24 UNL     1     -11.714  16.104  32.847  1.00  0.00     0.020 C 
HETATM   33  C21 UNL     1      -9.461  14.442  33.384  1.00  0.00    -0.013 C 
HETATM   34  C23 UNL     1      -9.769  14.917  31.997  1.00  0.00     0.020 C 
ENDBRANCH  24  25
ENDBRANCH  23  24
ENDBRANCH   1  21
BRANCH   1  35
HETATM   35  C25 UNL     1     -10.421  15.357  27.495  1.00  0.00     0.235 C 
HETATM   36  C26 UNL     1     -11.751  16.059  27.318  1.00  0.00     0.037 C 
HETATM   37  C27 UNL     1     -12.877  15.373  28.081  1.00  0.00     0.004 C 
HETATM   38  C28 UNL     1     -12.753  13.875  27.886  1.00  0.00     0.027 C 
HETATM   39  C29 UNL     1     -11.428  13.354  28.372  1.00  0.00     0.233 C 
HETATM   40  N3  UNL     1     -10.615  14.502  28.697  1.00  0.00    -0.067 N 
ATOM     41  H32 UNL     1      -9.727  14.232  29.118  1.00  0.00     0.277 HD
ATOM     42  H31 UNL     1     -10.999  15.030  29.480  1.00  0.00     0.277 HD
ENDBRANCH   1  35
TORSDOF 10
ENDMDL
MODEL 4
REMARK VINA RESULT: -9.310314817      2.026      3.648
REMARK  10 active torsions:
REMARK  status: ('A' for Active; 'I' for Inactive)
REMARK    1  A    between atoms: S1_2  and  C2_5 
REMARK    2  A    between atoms: C2_5  and  C3_6 
REMARK    3  A    between atoms: C2_5  and  C10_13 
REMARK    4  A    between atoms: C3_6  and  C4_7 
REMARK       I    between atoms: C10_13  and  N1_15 
REMARK    5  A    between atoms: N1_15  and  C11_17 
REMARK    6  A    between atoms: C11_17  and  C12_18 
REMARK    7  A    between atoms: C11_17  and  C13_21 
REMARK    8  A    between atoms: C11_17  and  C25_35 
REMARK       I    between atoms: C13_21  and  N2_23 
REMARK    9  A    between atoms: N2_23  and  C14_24 
REMARK   10  A    between atoms: C14_24  and  C15_25 
ROOT
HETATM    1  C11 UNL     1      -9.149  15.834  26.537  1.00  0.00     0.245 C 
ENDROOT
BRANCH   1   2
HETATM    2  N1  UNL     1      -8.019  16.634  26.988  1.00  0.00    -0.327 N 
HETATM    3  C10 UNL     1      -7.755  17.956  26.660  1.00  0.00     0.260 C 
HETATM    4  O3  UNL     1      -8.575  18.591  25.974  1.00  0.00    -0.267 OA
ATOM      5  H1  UNL     1      -7.353  16.175  27.610  1.00  0.00     0.164 HD
BRANCH   3   6
HETATM    6  C2  UNL     1      -6.491  18.697  27.056  1.00  0.00     0.104 C 
BRANCH   6   7
HETATM    7  S1  UNL     1      -5.517  17.724  28.108  1.00  0.00     0.173 S 
HETATM    8  C1  UNL     1      -3.901  18.318  28.440  1.00  0.00     0.166 C 
HETATM    9  O1  UNL     1      -5.238  16.408  27.230  1.00  0.00    -0.223 OA
HETATM   10  O2  UNL     1      -6.240  17.142  29.252  1.00  0.00    -0.223 OA
ENDBRANCH   6   7
BRANCH   6  11
HETATM   11  C3  UNL     1      -5.870  19.472  26.004  1.00  0.00     0.061 C 
BRANCH  11  12
HETATM   12  C4  UNL     1      -5.781  18.974  24.622  1.00  0.00    -0.010 C 
HETATM   13  C5  UNL     1      -6.251  19.774  23.474  1.00  0.00     0.005 C 
HETATM   14  C6  UNL     1      -6.915  18.804  22.472  1.00  0.00     0.000 C 
HETATM   15  C7  UNL     1      -6.009  17.581  22.447  1.00  0.00     0.000 C 
HETATM   16  C8  UNL     1      -4.587  17.896  22.803  1.00  0.00     0.000 C 
HETATM   17  C9  UNL     1      -4.408  18.383  24.234  1.00  0.00     0.005 C 
ENDBRANCH  11  12
ENDBRANCH   6  11
ENDBRANCH   3   6
ENDBRANCH   1   2
BRANCH   1  18
HETATM   18  C12 UNL     1      -8.963  14.516  27.329  1.00  0.00     0.216 C 
HETATM   19  O4  UNL     1      -7.791  14.221  27.684  1.00  0.00    -0.646 OA
HETATM   20  O5  UNL     1     -10.008  13.689  27.634  1.00  0.00    -0.646 OA
ENDBRANCH   1  18
BRANCH   1  21
HETATM   21  C13 UNL     1     -10.310  16.472  27.350  1.00  0.00     0.333 C 
HETATM   22  O6  UNL     1     -11.357  16.478  26.694  1.00  0.00    -0.254 OA
HETATM   23  N2  UNL     1     -10.038  16.964  28.591  1.00  0.00    -0.384 NA
BRANCH  23  24
HETATM   24  C14 UNL     1      -9.775  17.462  29.836  1.00  0.00     0.168 C 
BRANCH  24  25
HETATM   25  C15 UNL     1      -9.828  16.687  31.097  1.00  0.00     0.005 C 
HETATM   26  C16 UNL     1     -11.339  16.615  31.388  1.00  0.00     0.020 C 
HETATM   27  C17 UNL     1     -11.702  15.698  32.488  1.00  0.00    -0.013 C 
HETATM   28  C18 UNL     1     -11.322  14.320  32.070  1.00  0.00     0.009 C 
HETATM   29  C22 UNL     1     -11.014  16.184  33.744  1.00  0.00     0.009 C 
HETATM   30  C19 UNL     1      -9.802  14.340  31.874  1.00  0.00    -0.013 C 
HETATM   31  C20 UNL     1      -9.184  14.740  33.195  1.00  0.00     0.009 C 
HETATM   32  C24 UNL     1      -9.371  15.239  30.781  1.00  0.00     0.020 C 
HETATM   33  C21 UNL     1      -9.512  16.207  33.459  1.00  0.00    -0.013 C 
HETATM   34  C23 UNL     1      -9.137  17.107  32.320  1.00  0.00     0.020 C 
ENDBRANCH  24  25
ENDBRANCH  23  24
ENDBRANCH   1  21
BRANCH   1  35
HETATM   35  C25 UNL     1      -9.421  15.514  25.202  1.00  0.00     0.235 C 
HETATM   36  C26 UNL     1      -8.404  14.833  24.310  1.00  0.00     0.037 C 
HETATM   37  C27 UNL     1      -8.491  15.305  22.864  1.00  0.00     0.004 C 
HETATM   38  C28 UNL     1      -9.951  15.382  22.465  1.00  0.00     0.027 C 
HETATM   39  C29 UNL     1     -10.723  16.325  23.346  1.00  0.00     0.233 C 
HETATM   40  N3  UNL     1      -9.845  16.710  24.426  1.00  0.00    -0.067 N 
ATOM     41  H32 UNL     1     -10.268  17.420  25.024  1.00  0.00     0.277 HD
ATOM     42  H31 UNL     1      -9.047  17.250  24.093  1.00  0.00     0.277 HD
ENDBRANCH   1  35
TORSDOF 10
ENDMDL
MODEL 5
REMARK VINA RESULT: -9.300122930      2.126      8.425
REMARK  10 active torsions:
REMARK  status: ('A' for Active; 'I' for Inactive)
REMARK    1  A    between atoms: S1_2  and  C2_5 
REMARK    2  A    between atoms: C2_5  and  C3_6 
REMARK    3  A    between atoms: C2_5  and  C10_13 
REMARK    4  A    between atoms: C3_6  and  C4_7 
REMARK       I    between atoms: C10_13  and  N1_15 
REMARK    5  A    between atoms: N1_15  and  C11_17 
REMARK    6  A    between atoms: C11_17  and  C12_18 
REMARK    7  A    between atoms: C11_17  and  C13_21 
REMARK    8  A    between atoms: C11_17  and  C25_35 
REMARK       I    between atoms: C13_21  and  N2_23 
REMARK    9  A    between atoms: N2_23  and  C14_24 
REMARK   10  A    between atoms: C14_24  and  C15_25 
ROOT
HETATM    1  C11 UNL     1     -11.714  15.436  29.180  1.00  0.00     0.245 C 
ENDROOT
BRANCH   1   2
HETATM    2  N1  UNL     1     -10.488  16.161  29.482  1.00  0.00    -0.327 N 
HETATM    3  C10 UNL     1      -9.282  15.613  29.896  1.00  0.00     0.260 C 
HETATM    4  O3  UNL     1      -9.161  14.377  29.958  1.00  0.00    -0.267 OA
ATOM      5  H1  UNL     1     -10.519  17.175  29.378  1.00  0.00     0.164 HD
BRANCH   3   6
HETATM    6  C2  UNL     1      -8.077  16.431  30.322  1.00  0.00     0.104 C 
BRANCH   6   7
HETATM    7  S1  UNL     1      -7.243  17.056  28.939  1.00  0.00     0.173 S 
HETATM    8  C1  UNL     1      -8.179  18.080  27.865  1.00  0.00     0.166 C 
HETATM    9  O1  UNL     1      -6.987  15.746  28.046  1.00  0.00    -0.223 OA
HETATM   10  O2  UNL     1      -5.858  17.487  29.198  1.00  0.00    -0.223 OA
ENDBRANCH   6   7
BRANCH   6  11
HETATM   11  C3  UNL     1      -8.273  17.265  31.488  1.00  0.00     0.061 C 
BRANCH  11  12
HETATM   12  C4  UNL     1      -8.820  16.728  32.744  1.00  0.00    -0.010 C 
HETATM   13  C5  UNL     1      -8.374  15.435  33.298  1.00  0.00     0.005 C 
HETATM   14  C6  UNL     1      -9.612  14.734  33.898  1.00  0.00     0.000 C 
HETATM   15  C7  UNL     1     -10.384  15.836  34.610  1.00  0.00     0.000 C 
HETATM   16  C8  UNL     1      -9.509  16.968  35.060  1.00  0.00     0.000 C 
HETATM   17  C9  UNL     1      -8.864  17.734  33.914  1.00  0.00     0.005 C 
ENDBRANCH  11  12
ENDBRANCH   6  11
ENDBRANCH   3   6
ENDBRANCH   1   2
BRANCH   1  18
HETATM   18  C12 UNL     1     -12.666  16.568  28.718  1.00  0.00     0.216 C 
HETATM   19  O4  UNL     1     -12.227  17.747  28.780  1.00  0.00    -0.646 OA
HETATM   20  O5  UNL     1     -13.932  16.323  28.266  1.00  0.00    -0.646 OA
ENDBRANCH   1  18
BRANCH   1  21
HETATM   21  C13 UNL     1     -11.359  14.808  27.804  1.00  0.00     0.333 C 
HETATM   22  O6  UNL     1     -11.274  13.578  27.888  1.00  0.00    -0.254 OA
HETATM   23  N2  UNL     1     -11.146  15.641  26.747  1.00  0.00    -0.384 NA
BRANCH  23  24
HETATM   24  C14 UNL     1     -10.930  16.469  25.680  1.00  0.00     0.168 C 
BRANCH  24  25
HETATM   25  C15 UNL     1      -9.960  16.224  24.589  1.00  0.00     0.005 C 
HETATM   26  C16 UNL     1      -9.210  17.567  24.494  1.00  0.00     0.020 C 
HETATM   27  C17 UNL     1      -8.019  17.536  23.621  1.00  0.00    -0.013 C 
HETATM   28  C18 UNL     1      -7.041  16.588  24.224  1.00  0.00     0.009 C 
HETATM   29  C22 UNL     1      -8.474  17.164  22.227  1.00  0.00     0.009 C 
HETATM   30  C19 UNL     1      -7.729  15.219  24.234  1.00  0.00    -0.013 C 
HETATM   31  C20 UNL     1      -8.066  14.874  22.801  1.00  0.00     0.009 C 
HETATM   32  C24 UNL     1      -8.931  15.180  25.096  1.00  0.00     0.020 C 
HETATM   33  C21 UNL     1      -9.176  15.808  22.326  1.00  0.00    -0.013 C 
HETATM   34  C23 UNL     1     -10.364  15.820  23.239  1.00  0.00     0.020 C 
ENDBRANCH  24  25
ENDBRANCH  23  24
ENDBRANCH   1  21
BRANCH   1  35
HETATM   35  C25 UNL     1     -12.404  14.618  30.082  1.00  0.00     0.235 C 
HETATM   36  C26 UNL     1     -12.727  15.063  31.494  1.00  0.00     0.037 C 
HETATM   37  C27 UNL     1     -12.671  13.913  32.492  1.00  0.00     0.004 C 
HETATM   38  C28 UNL     1     -13.352  12.706  31.880  1.00  0.00     0.027 C 
HETATM   39  C29 UNL     1     -12.695  12.284  30.595  1.00  0.00     0.233 C 
HETATM   40  N3  UNL     1     -11.730  13.304  30.257  1.00  0.00    -0.067 N 
ATOM     41  H32 UNL     1     -11.177  13.049  29.439  1.00  0.00     0.277 HD
ATOM     42  H31 UNL     1     -10.974  13.353  30.941  1.00  0.00     0.277 HD
ENDBRANCH   1  35
TORSDOF 10
ENDMDL
