MODEL 1
REMARK VINA RESULT: -10.244111518      0.000      0.000
REMARK  11 active torsions:
REMARK  status: ('A' for Active; 'I' for Inactive)
REMARK    1  A    between atoms: O1_2  and  C2_3 
REMARK       I    between atoms: C2_3  and  N1_5 
REMARK    2  A    between atoms: N1_5  and  C3_6 
REMARK    3  A    between atoms: C3_6  and  C4_7 
REMARK    4  A    between atoms: C3_6  and  C25_36 
REMARK       I    between atoms: C4_7  and  N2_9 
REMARK    5  A    between atoms: N2_9  and  C5_11 
REMARK    6  A    between atoms: C5_11  and  C6_12 
REMARK    7  A    between atoms: C5_11  and  C10_16 
REMARK    8  A    between atoms: C6_12  and  C7_13 
REMARK       I    between atoms: C10_16  and  N3_18 
REMARK    9  A    between atoms: N3_18  and  C11_20 
REMARK   10  A    between atoms: C15_24  and  C16_25 
REMARK       I    between atoms: C16_25  and  N4_27 
REMARK   11  A    between atoms: N4_27  and  C17_28 
ROOT
HETATM    1  C5  UNL     1      -6.940  17.177  26.973  1.00  0.00     0.081 C 
ENDROOT
BRANCH   1   2
HETATM    2  N2  UNL     1      -6.862  17.020  25.606  1.00  0.00    -0.320 N 
HETATM    3  C4  UNL     1      -6.962  18.218  24.837  1.00  0.00     0.283 C 
HETATM    4  O3  UNL     1      -6.856  19.300  25.294  1.00  0.00    -0.265 OA
ATOM      5  H2  UNL     1      -6.739  16.106  25.172  1.00  0.00     0.169 HD
BRANCH   3   6
HETATM    6  C3  UNL     1      -7.313  18.066  23.325  1.00  0.00     0.163 C 
BRANCH   6   7
HETATM    7  N1  UNL     1      -6.120  18.435  22.811  1.00  0.00    -0.344 NA
HETATM    8  C2  UNL     1      -4.900  18.851  22.307  1.00  0.00     0.439 C 
HETATM    9  O2  UNL     1      -4.232  19.917  22.614  1.00  0.00    -0.221 OA
BRANCH   8  10
HETATM   10  O1  UNL     1      -4.276  18.105  21.405  1.00  0.00    -0.298 OA
HETATM   11  C1  UNL     1      -3.645  17.201  20.743  1.00  0.00     0.216 C 
ENDBRANCH   8  10
ENDBRANCH   6   7
BRANCH   6  12
HETATM   12  C25 UNL     1      -8.504  17.432  23.014  1.00  0.00     0.064 C 
HETATM   13  C26 UNL     1      -9.316  16.997  24.225  1.00  0.00     0.013 C 
HETATM   14  C27 UNL     1     -10.685  16.559  23.696  1.00  0.00     0.001 C 
HETATM   15  C28 UNL     1     -10.544  15.286  22.947  1.00  0.00     0.001 C 
HETATM   16  C29 UNL     1      -9.116  15.017  22.655  1.00  0.00     0.009 C 
HETATM   17  C30 UNL     1      -8.446  16.242  22.088  1.00  0.00    -0.037 C 
HETATM   18  C31 UNL     1      -9.071  16.555  20.721  1.00  0.00     0.015 C 
HETATM   19  C32 UNL     1      -6.993  15.821  21.755  1.00  0.00     0.015 C 
ENDBRANCH   6  12
ENDBRANCH   3   6
ENDBRANCH   1   2
BRANCH   1  20
HETATM   20  C6  UNL     1      -5.611  16.812  27.705  1.00  0.00     0.067 C 
BRANCH  20  21
HETATM   21  C7  UNL     1      -4.468  17.710  27.316  1.00  0.00    -0.017 C 
HETATM   22  C8  UNL     1      -3.491  17.418  26.295  1.00  0.00     0.010 C 
HETATM   23  C9  UNL     1      -3.776  18.209  28.580  1.00  0.00     0.010 C 
ENDBRANCH  20  21
ENDBRANCH   1  20
BRANCH   1  24
HETATM   24  C10 UNL     1      -8.047  17.090  27.821  1.00  0.00     0.268 C 
HETATM   25  O4  UNL     1      -8.132  17.533  28.949  1.00  0.00    -0.266 OA
HETATM   26  N3  UNL     1      -9.241  16.327  27.343  1.00  0.00    -0.329 N 
ATOM     27  H3  UNL     1      -9.248  16.046  26.363  1.00  0.00     0.168 HD
BRANCH  26  28
HETATM   28  C11 UNL     1     -10.343  15.966  28.113  1.00  0.00    -0.005 C 
HETATM   29  C12 UNL     1     -11.664  15.856  27.408  1.00  0.00     0.057 C 
HETATM   30  C13 UNL     1     -12.373  14.684  28.156  1.00  0.00    -0.008 C 
HETATM   31  C14 UNL     1     -12.599  15.194  29.527  1.00  0.00     0.021 C 
HETATM   32  C24 UNL     1     -11.150  13.804  28.356  1.00  0.00     0.016 C 
HETATM   33  C15 UNL     1     -11.214  15.063  30.245  1.00  0.00     0.102 C 
HETATM   34  C23 UNL     1     -10.273  14.900  29.113  1.00  0.00     0.046 C 
BRANCH  33  35
HETATM   35  C16 UNL     1     -11.013  16.327  31.095  1.00  0.00     0.291 C 
HETATM   36  O5  UNL     1     -11.177  17.410  30.412  1.00  0.00    -0.257 OA
HETATM   37  N4  UNL     1     -10.721  16.168  32.338  1.00  0.00    -0.409 NA
BRANCH  37  38
HETATM   38  C17 UNL     1     -10.398  16.000  33.718  1.00  0.00     0.166 C 
HETATM   39  C18 UNL     1     -10.238  14.548  34.053  1.00  0.00     0.039 C 
HETATM   40  C19 UNL     1     -10.422  14.300  35.501  1.00  0.00     0.003 C 
HETATM   41  C20 UNL     1     -10.392  15.614  36.307  1.00  0.00     0.000 C 
HETATM   42  C21 UNL     1      -9.370  16.590  35.840  1.00  0.00     0.003 C 
HETATM   43  C22 UNL     1      -9.282  16.767  34.365  1.00  0.00     0.039 C 
ENDBRANCH  37  38
ENDBRANCH  33  35
ENDBRANCH  26  28
ENDBRANCH   1  24
TORSDOF 11
ENDMDL
MODEL 2
REMARK VINA RESULT: -10.205506606      2.070      9.786
REMARK  11 active torsions:
REMARK  status: ('A' for Active; 'I' for Inactive)
REMARK    1  A    between atoms: O1_2  and  C2_3 
REMARK       I    between atoms: C2_3  and  N1_5 
REMARK    2  A    between atoms: N1_5  and  C3_6 
REMARK    3  A    between atoms: C3_6  and  C4_7 
REMARK    4  A    between atoms: C3_6  and  C25_36 
REMARK       I    between atoms: C4_7  and  N2_9 
REMARK    5  A    between atoms: N2_9  and  C5_11 
REMARK    6  A    between atoms: C5_11  and  C6_12 
REMARK    7  A    between atoms: C5_11  and  C10_16 
REMARK    8  A    between atoms: C6_12  and  C7_13 
REMARK       I    between atoms: C10_16  and  N3_18 
REMARK    9  A    between atoms: N3_18  and  C11_20 
REMARK   10  A    between atoms: C15_24  and  C16_25 
REMARK       I    between atoms: C16_25  and  N4_27 
REMARK   11  A    between atoms: N4_27  and  C17_28 
ROOT
HETATM    1  C5  UNL     1      -9.788  15.429  29.064  1.00  0.00     0.081 C 
ENDROOT
BRANCH   1   2
HETATM    2  N2  UNL     1     -10.057  14.719  30.215  1.00  0.00    -0.320 N 
HETATM    3  C4  UNL     1     -11.014  15.306  31.097  1.00  0.00     0.283 C 
HETATM    4  O3  UNL     1     -11.735  16.186  30.787  1.00  0.00    -0.265 OA
ATOM      5  H2  UNL     1      -9.601  13.831  30.423  1.00  0.00     0.169 HD
BRANCH   3   6
HETATM    6  C3  UNL     1     -11.033  14.793  32.570  1.00  0.00     0.163 C 
BRANCH   6   7
HETATM    7  N1  UNL     1     -10.183  15.697  33.101  1.00  0.00    -0.344 NA
HETATM    8  C2  UNL     1      -9.298  16.635  33.605  1.00  0.00     0.439 C 
HETATM    9  O2  UNL     1      -8.555  17.465  32.947  1.00  0.00    -0.221 OA
BRANCH   8  10
HETATM   10  O1  UNL     1      -9.155  16.759  34.918  1.00  0.00    -0.298 OA
HETATM   11  C1  UNL     1      -9.141  16.627  36.197  1.00  0.00     0.216 C 
ENDBRANCH   8  10
ENDBRANCH   6   7
BRANCH   6  12
HETATM   12  C25 UNL     1     -11.993  13.850  32.896  1.00  0.00     0.064 C 
HETATM   13  C26 UNL     1     -12.901  13.455  31.742  1.00  0.00     0.013 C 
HETATM   14  C27 UNL     1     -13.708  12.243  32.218  1.00  0.00     0.001 C 
HETATM   15  C28 UNL     1     -14.688  12.672  33.247  1.00  0.00     0.001 C 
HETATM   16  C29 UNL     1     -14.360  14.033  33.732  1.00  0.00     0.009 C 
HETATM   17  C30 UNL     1     -12.896  14.142  34.070  1.00  0.00    -0.037 C 
HETATM   18  C31 UNL     1     -12.595  13.221  35.261  1.00  0.00     0.015 C 
HETATM   19  C32 UNL     1     -12.691  15.571  34.632  1.00  0.00     0.015 C 
ENDBRANCH   6  12
ENDBRANCH   3   6
ENDBRANCH   1   2
BRANCH   1  20
HETATM   20  C6  UNL     1     -10.080  14.615  27.765  1.00  0.00     0.067 C 
BRANCH  20  21
HETATM   21  C7  UNL     1     -11.551  14.488  27.477  1.00  0.00    -0.017 C 
HETATM   22  C8  UNL     1     -12.522  15.546  27.626  1.00  0.00     0.010 C 
HETATM   23  C9  UNL     1     -12.071  13.203  28.111  1.00  0.00     0.010 C 
ENDBRANCH  20  21
ENDBRANCH   1  20
BRANCH   1  24
HETATM   24  C10 UNL     1      -8.871  16.459  28.843  1.00  0.00     0.268 C 
HETATM   25  O4  UNL     1      -9.051  17.645  29.041  1.00  0.00    -0.266 OA
HETATM   26  N3  UNL     1      -7.546  16.106  28.247  1.00  0.00    -0.329 N 
ATOM     27  H3  UNL     1      -7.319  15.114  28.180  1.00  0.00     0.168 HD
BRANCH  26  28
HETATM   28  C11 UNL     1      -6.595  17.007  27.774  1.00  0.00    -0.005 C 
HETATM   29  C12 UNL     1      -5.878  17.842  28.796  1.00  0.00     0.057 C 
HETATM   30  C13 UNL     1      -4.446  17.992  28.193  1.00  0.00    -0.008 C 
HETATM   31  C14 UNL     1      -4.635  18.792  26.963  1.00  0.00     0.021 C 
HETATM   32  C24 UNL     1      -4.318  16.587  27.627  1.00  0.00     0.016 C 
HETATM   33  C15 UNL     1      -5.181  17.780  25.899  1.00  0.00     0.102 C 
HETATM   34  C23 UNL     1      -5.636  16.644  26.732  1.00  0.00     0.046 C 
BRANCH  33  35
HETATM   35  C16 UNL     1      -6.281  18.498  25.101  1.00  0.00     0.291 C 
HETATM   36  O5  UNL     1      -5.985  19.730  24.854  1.00  0.00    -0.257 OA
HETATM   37  N4  UNL     1      -7.324  17.817  24.781  1.00  0.00    -0.409 NA
BRANCH  37  38
HETATM   38  C17 UNL     1      -8.485  17.068  24.422  1.00  0.00     0.166 C 
HETATM   39  C18 UNL     1      -8.159  15.611  24.298  1.00  0.00     0.039 C 
HETATM   40  C19 UNL     1      -9.147  14.903  23.453  1.00  0.00     0.003 C 
HETATM   41  C20 UNL     1     -10.403  15.762  23.211  1.00  0.00     0.000 C 
HETATM   42  C21 UNL     1     -10.855  16.527  24.405  1.00  0.00     0.003 C 
HETATM   43  C22 UNL     1      -9.777  17.208  25.173  1.00  0.00     0.039 C 
ENDBRANCH  37  38
ENDBRANCH  33  35
ENDBRANCH  26  28
ENDBRANCH   1  24
TORSDOF 11
ENDMDL
MODEL 3
REMARK VINA RESULT: -10.205421593      2.538      5.070
REMARK  11 active torsions:
REMARK  status: ('A' for Active; 'I' for Inactive)
REMARK    1  A    between atoms: O1_2  and  C2_3 
REMARK       I    between atoms: C2_3  and  N1_5 
REMARK    2  A    between atoms: N1_5  and  C3_6 
REMARK    3  A    between atoms: C3_6  and  C4_7 
REMARK    4  A    between atoms: C3_6  and  C25_36 
REMARK       I    between atoms: C4_7  and  N2_9 
REMARK    5  A    between atoms: N2_9  and  C5_11 
REMARK    6  A    between atoms: C5_11  and  C6_12 
REMARK    7  A    between atoms: C5_11  and  C10_16 
REMARK    8  A    between atoms: C6_12  and  C7_13 
REMARK       I    between atoms: C10_16  and  N3_18 
REMARK    9  A    between atoms: N3_18  and  C11_20 
REMARK   10  A    between atoms: C15_24  and  C16_25 
REMARK       I    between atoms: C16_25  and  N4_27 
REMARK   11  A    between atoms: N4_27  and  C17_28 
ROOT
HETATM    1  C5  UNL     1      -6.687  18.771  25.890  1.00  0.00     0.081 C 
ENDROOT
BRANCH   1   2
HETATM    2  N2  UNL     1      -6.827  19.006  24.539  1.00  0.00    -0.320 N 
HETATM    3  C4  UNL     1      -6.182  18.069  23.676  1.00  0.00     0.283 C 
HETATM    4  O3  UNL     1      -5.777  17.021  24.034  1.00  0.00    -0.265 OA
ATOM      5  H2  UNL     1      -7.358  19.799  24.180  1.00  0.00     0.169 HD
BRANCH   3   6
HETATM    6  C3  UNL     1      -5.939  18.511  22.200  1.00  0.00     0.163 C 
BRANCH   6   7
HETATM    7  N1  UNL     1      -4.621  18.784  22.293  1.00  0.00    -0.344 NA
HETATM    8  C2  UNL     1      -3.275  19.101  22.366  1.00  0.00     0.439 C 
HETATM    9  O2  UNL     1      -2.685  20.174  21.945  1.00  0.00    -0.221 OA
BRANCH   8  10
HETATM   10  O1  UNL     1      -2.433  18.250  22.937  1.00  0.00    -0.298 OA
HETATM   11  C1  UNL     1      -1.471  17.459  23.254  1.00  0.00     0.216 C 
ENDBRANCH   8  10
ENDBRANCH   6   7
BRANCH   6  12
HETATM   12  C25 UNL     1      -6.960  18.273  21.295  1.00  0.00     0.064 C 
HETATM   13  C26 UNL     1      -8.276  17.851  21.931  1.00  0.00     0.013 C 
HETATM   14  C27 UNL     1      -9.328  17.884  20.818  1.00  0.00     0.001 C 
HETATM   15  C28 UNL     1      -9.077  16.774  19.865  1.00  0.00     0.001 C 
HETATM   16  C29 UNL     1      -7.727  16.203  20.085  1.00  0.00     0.009 C 
HETATM   17  C30 UNL     1      -6.693  17.295  20.176  1.00  0.00    -0.037 C 
HETATM   18  C31 UNL     1      -6.601  18.000  18.815  1.00  0.00     0.015 C 
HETATM   19  C32 UNL     1      -5.328  16.580  20.328  1.00  0.00     0.015 C 
ENDBRANCH   6  12
ENDBRANCH   3   6
ENDBRANCH   1   2
BRANCH   1  20
HETATM   20  C6  UNL     1      -5.304  19.232  26.448  1.00  0.00     0.067 C 
BRANCH  20  21
HETATM   21  C7  UNL     1      -4.592  18.145  27.207  1.00  0.00    -0.017 C 
HETATM   22  C8  UNL     1      -4.050  18.277  28.539  1.00  0.00     0.010 C 
HETATM   23  C9  UNL     1      -3.573  17.484  26.287  1.00  0.00     0.010 C 
ENDBRANCH  20  21
ENDBRANCH   1  20
BRANCH   1  24
HETATM   24  C10 UNL     1      -7.276  17.791  26.693  1.00  0.00     0.268 C 
HETATM   25  O4  UNL     1      -7.164  16.587  26.568  1.00  0.00    -0.266 OA
HETATM   26  N3  UNL     1      -8.191  18.235  27.789  1.00  0.00    -0.329 N 
ATOM     27  H3  UNL     1      -8.213  19.234  27.996  1.00  0.00     0.168 HD
BRANCH  26  28
HETATM   28  C11 UNL     1      -9.014  17.412  28.552  1.00  0.00    -0.005 C 
HETATM   29  C12 UNL     1      -8.834  17.456  30.042  1.00  0.00     0.057 C 
HETATM   30  C13 UNL     1     -10.282  17.244  30.584  1.00  0.00    -0.008 C 
HETATM   31  C14 UNL     1     -10.637  15.864  30.182  1.00  0.00     0.021 C 
HETATM   32  C24 UNL     1     -11.012  18.065  29.534  1.00  0.00     0.016 C 
HETATM   33  C15 UNL     1     -11.018  15.967  28.666  1.00  0.00     0.102 C 
HETATM   34  C23 UNL     1     -10.443  17.274  28.273  1.00  0.00     0.046 C 
BRANCH  33  35
HETATM   35  C16 UNL     1     -10.422  14.741  27.956  1.00  0.00     0.291 C 
HETATM   36  O5  UNL     1     -10.216  13.756  28.765  1.00  0.00    -0.257 OA
HETATM   37  N4  UNL     1     -10.209  14.831  26.691  1.00  0.00    -0.409 NA
BRANCH  37  38
HETATM   38  C17 UNL     1      -9.971  14.923  25.287  1.00  0.00     0.166 C 
HETATM   39  C18 UNL     1     -10.662  16.120  24.708  1.00  0.00     0.039 C 
HETATM   40  C19 UNL     1     -10.879  15.972  23.251  1.00  0.00     0.003 C 
HETATM   41  C20 UNL     1     -10.053  14.806  22.673  1.00  0.00     0.000 C 
HETATM   42  C21 UNL     1      -8.681  14.695  23.239  1.00  0.00     0.003 C 
HETATM   43  C22 UNL     1      -8.585  14.849  24.716  1.00  0.00     0.039 C 
ENDBRANCH  37  38
ENDBRANCH  33  35
ENDBRANCH  26  28
ENDBRANCH   1  24
TORSDOF 11
ENDMDL
MODEL 4
REMARK VINA RESULT: -10.058311286      2.034      2.930
REMARK  11 active torsions:
REMARK  status: ('A' for Active; 'I' for Inactive)
REMARK    1  A    between atoms: O1_2  and  C2_3 
REMARK       I    between atoms: C2_3  and  N1_5 
REMARK    2  A    between atoms: N1_5  and  C3_6 
REMARK    3  A    between atoms: C3_6  and  C4_7 
REMARK    4  A    between atoms: C3_6  and  C25_36 
REMARK       I    between atoms: C4_7  and  N2_9 
REMARK    5  A    between atoms: N2_9  and  C5_11 
REMARK    6  A    between atoms: C5_11  and  C6_12 
REMARK    7  A    between atoms: C5_11  and  C10_16 
REMARK    8  A    between atoms: C6_12  and  C7_13 
REMARK       I    between atoms: C10_16  and  N3_18 
REMARK    9  A    between atoms: N3_18  and  C11_20 
REMARK   10  A    between atoms: C15_24  and  C16_25 
REMARK       I    between atoms: C16_25  and  N4_27 
REMARK   11  A    between atoms: N4_27  and  C17_28 
ROOT
HETATM    1  C5  UNL     1      -6.502  19.262  25.778  1.00  0.00     0.081 C 
ENDROOT
BRANCH   1   2
HETATM    2  N2  UNL     1      -6.598  19.462  24.418  1.00  0.00    -0.320 N 
HETATM    3  C4  UNL     1      -6.405  18.305  23.605  1.00  0.00     0.283 C 
HETATM    4  O3  UNL     1      -6.424  17.202  24.023  1.00  0.00    -0.265 OA
ATOM      5  H2  UNL     1      -6.794  20.379  24.017  1.00  0.00     0.169 HD
BRANCH   3   6
HETATM    6  C3  UNL     1      -6.073  18.538  22.099  1.00  0.00     0.163 C 
BRANCH   6   7
HETATM    7  N1  UNL     1      -4.748  18.764  22.225  1.00  0.00    -0.344 NA
HETATM    8  C2  UNL     1      -3.395  19.033  22.332  1.00  0.00     0.439 C 
HETATM    9  O2  UNL     1      -2.761  20.097  21.956  1.00  0.00    -0.221 OA
BRANCH   8  10
HETATM   10  O1  UNL     1      -2.593  18.137  22.891  1.00  0.00    -0.298 OA
HETATM   11  C1  UNL     1      -1.664  17.303  23.199  1.00  0.00     0.216 C 
ENDBRANCH   8  10
ENDBRANCH   6   7
BRANCH   6  12
HETATM   12  C25 UNL     1      -7.062  18.228  21.180  1.00  0.00     0.064 C 
HETATM   13  C26 UNL     1      -8.378  17.788  21.801  1.00  0.00     0.013 C 
HETATM   14  C27 UNL     1      -9.402  17.738  20.662  1.00  0.00     0.001 C 
HETATM   15  C28 UNL     1      -9.090  16.599  19.764  1.00  0.00     0.001 C 
HETATM   16  C29 UNL     1      -7.728  16.085  20.040  1.00  0.00     0.009 C 
HETATM   17  C30 UNL     1      -6.734  17.215  20.110  1.00  0.00    -0.037 C 
HETATM   18  C31 UNL     1      -6.630  17.866  18.724  1.00  0.00     0.015 C 
HETATM   19  C32 UNL     1      -5.350  16.554  20.325  1.00  0.00     0.015 C 
ENDBRANCH   6  12
ENDBRANCH   3   6
ENDBRANCH   1   2
BRANCH   1  20
HETATM   20  C6  UNL     1      -5.027  19.161  26.276  1.00  0.00     0.067 C 
BRANCH  20  21
HETATM   21  C7  UNL     1      -4.738  17.860  26.974  1.00  0.00    -0.017 C 
HETATM   22  C8  UNL     1      -4.292  17.730  28.341  1.00  0.00     0.010 C 
HETATM   23  C9  UNL     1      -3.891  16.983  26.059  1.00  0.00     0.010 C 
ENDBRANCH  20  21
ENDBRANCH   1  20
BRANCH   1  24
HETATM   24  C10 UNL     1      -7.396  18.644  26.656  1.00  0.00     0.268 C 
HETATM   25  O4  UNL     1      -7.376  18.699  27.869  1.00  0.00    -0.266 OA
HETATM   26  N3  UNL     1      -8.460  17.768  26.075  1.00  0.00    -0.329 N 
ATOM     27  H3  UNL     1      -8.579  17.794  25.062  1.00  0.00     0.168 HD
BRANCH  26  28
HETATM   28  C11 UNL     1      -9.303  16.922  26.790  1.00  0.00    -0.005 C 
HETATM   29  C12 UNL     1     -10.529  17.535  27.404  1.00  0.00     0.057 C 
HETATM   30  C13 UNL     1     -11.591  16.398  27.294  1.00  0.00    -0.008 C 
HETATM   31  C14 UNL     1     -11.091  15.326  28.184  1.00  0.00     0.021 C 
HETATM   32  C24 UNL     1     -11.185  15.874  25.927  1.00  0.00     0.016 C 
HETATM   33  C15 UNL     1      -9.965  14.610  27.365  1.00  0.00     0.102 C 
HETATM   34  C23 UNL     1      -9.661  15.591  26.299  1.00  0.00     0.046 C 
BRANCH  33  35
HETATM   35  C16 UNL     1      -8.812  14.306  28.335  1.00  0.00     0.291 C 
HETATM   36  O5  UNL     1      -7.927  13.523  27.815  1.00  0.00    -0.257 OA
HETATM   37  N4  UNL     1      -8.857  14.846  29.501  1.00  0.00    -0.409 NA
BRANCH  37  38
HETATM   38  C17 UNL     1      -8.899  15.443  30.797  1.00  0.00     0.166 C 
HETATM   39  C18 UNL     1      -8.589  16.906  30.719  1.00  0.00     0.039 C 
HETATM   40  C19 UNL     1      -8.119  17.433  32.020  1.00  0.00     0.003 C 
HETATM   41  C20 UNL     1      -8.391  16.438  33.165  1.00  0.00     0.000 C 
HETATM   42  C21 UNL     1      -9.708  15.749  33.069  1.00  0.00     0.003 C 
HETATM   43  C22 UNL     1     -10.071  15.250  31.716  1.00  0.00     0.039 C 
ENDBRANCH  37  38
ENDBRANCH  33  35
ENDBRANCH  26  28
ENDBRANCH   1  24
TORSDOF 11
ENDMDL
MODEL 5
REMARK VINA RESULT: -10.048507417      1.953      9.166
REMARK  11 active torsions:
REMARK  status: ('A' for Active; 'I' for Inactive)
REMARK    1  A    between atoms: O1_2  and  C2_3 
REMARK       I    between atoms: C2_3  and  N1_5 
REMARK    2  A    between atoms: N1_5  and  C3_6 
REMARK    3  A    between atoms: C3_6  and  C4_7 
REMARK    4  A    between atoms: C3_6  and  C25_36 
REMARK       I    between atoms: C4_7  and  N2_9 
REMARK    5  A    between atoms: N2_9  and  C5_11 
REMARK    6  A    between atoms: C5_11  and  C6_12 
REMARK    7  A    between atoms: C5_11  and  C10_16 
REMARK    8  A    between atoms: C6_12  and  C7_13 
REMARK       I    between atoms: C10_16  and  N3_18 
REMARK    9  A    between atoms: N3_18  and  C11_20 
REMARK   10  A    between atoms: C15_24  and  C16_25 
REMARK       I    between atoms: C16_25  and  N4_27 
REMARK   11  A    between atoms: N4_27  and  C17_28 
ROOT
HETATM    1  C5  UNL     1     -10.290  16.165  26.506  1.00  0.00     0.081 C 
ENDROOT
BRANCH   1   2
HETATM    2  N2  UNL     1      -9.597  15.930  27.674  1.00  0.00    -0.320 N 
HETATM    3  C4  UNL     1      -9.555  17.015  28.600  1.00  0.00     0.283 C 
HETATM    4  O3  UNL     1     -10.259  17.960  28.534  1.00  0.00    -0.265 OA
ATOM      5  H2  UNL     1      -9.144  15.037  27.865  1.00  0.00     0.169 HD
BRANCH   3   6
HETATM    6  C3  UNL     1      -8.455  16.967  29.705  1.00  0.00     0.163 C 
BRANCH   6   7
HETATM    7  N1  UNL     1      -7.374  17.110  28.909  1.00  0.00    -0.344 NA
HETATM    8  C2  UNL     1      -6.246  17.221  28.114  1.00  0.00     0.439 C 
HETATM    9  O2  UNL     1      -5.203  16.455  28.098  1.00  0.00    -0.221 OA
BRANCH   8  10
HETATM   10  O1  UNL     1      -6.166  18.206  27.230  1.00  0.00    -0.298 OA
HETATM   11  C1  UNL     1      -6.029  19.317  26.597  1.00  0.00     0.216 C 
ENDBRANCH   8  10
ENDBRANCH   6   7
BRANCH   6  12
HETATM   12  C25 UNL     1      -8.880  17.044  31.021  1.00  0.00     0.064 C 
HETATM   13  C26 UNL     1      -7.788  17.420  32.011  1.00  0.00     0.013 C 
HETATM   14  C27 UNL     1      -8.488  17.702  33.344  1.00  0.00     0.001 C 
HETATM   15  C28 UNL     1      -8.998  16.431  33.916  1.00  0.00     0.001 C 
HETATM   16  C29 UNL     1      -8.978  15.361  32.890  1.00  0.00     0.009 C 
HETATM   17  C30 UNL     1      -9.590  15.845  31.602  1.00  0.00    -0.037 C 
HETATM   18  C31 UNL     1     -11.080  16.127  31.840  1.00  0.00     0.015 C 
HETATM   19  C32 UNL     1      -9.581  14.630  30.641  1.00  0.00     0.015 C 
ENDBRANCH   6  12
ENDBRANCH   3   6
ENDBRANCH   1   2
BRANCH   1  20
HETATM   20  C6  UNL     1     -11.709  15.515  26.498  1.00  0.00     0.067 C 
BRANCH  20  21
HETATM   21  C7  UNL     1     -12.095  14.948  27.837  1.00  0.00    -0.017 C 
HETATM   22  C8  UNL     1     -12.413  13.564  28.095  1.00  0.00     0.010 C 
HETATM   23  C9  UNL     1     -13.140  15.856  28.477  1.00  0.00     0.010 C 
ENDBRANCH  20  21
ENDBRANCH   1  20
BRANCH   1  24
HETATM   24  C10 UNL     1      -9.811  16.395  25.214  1.00  0.00     0.268 C 
HETATM   25  O4  UNL     1     -10.372  16.117  24.173  1.00  0.00    -0.266 OA
HETATM   26  N3  UNL     1      -8.446  16.987  25.064  1.00  0.00    -0.329 N 
ATOM     27  H3  UNL     1      -7.999  17.340  25.911  1.00  0.00     0.168 HD
BRANCH  26  28
HETATM   28  C11 UNL     1      -7.729  17.101  23.877  1.00  0.00    -0.005 C 
HETATM   29  C12 UNL     1      -7.418  15.829  23.140  1.00  0.00     0.057 C 
HETATM   30  C13 UNL     1      -7.487  16.257  21.641  1.00  0.00    -0.008 C 
HETATM   31  C14 UNL     1      -6.361  17.203  21.467  1.00  0.00     0.021 C 
HETATM   32  C24 UNL     1      -8.668  17.207  21.757  1.00  0.00     0.016 C 
HETATM   33  C15 UNL     1      -6.868  18.555  22.071  1.00  0.00     0.102 C 
HETATM   34  C23 UNL     1      -8.030  18.134  22.886  1.00  0.00     0.046 C 
BRANCH  33  35
HETATM   35  C16 UNL     1      -5.701  19.177  22.854  1.00  0.00     0.291 C 
HETATM   36  O5  UNL     1      -5.981  20.355  23.301  1.00  0.00    -0.257 OA
HETATM   37  N4  UNL     1      -4.625  18.481  22.971  1.00  0.00    -0.409 NA
BRANCH  37  38
HETATM   38  C17 UNL     1      -3.429  17.715  23.107  1.00  0.00     0.166 C 
HETATM   39  C18 UNL     1      -2.310  18.335  22.328  1.00  0.00     0.039 C 
HETATM   40  C19 UNL     1      -1.251  17.348  22.016  1.00  0.00     0.003 C 
HETATM   41  C20 UNL     1      -1.417  16.060  22.847  1.00  0.00     0.000 C 
HETATM   42  C21 UNL     1      -1.825  16.297  24.259  1.00  0.00     0.003 C 
HETATM   43  C22 UNL     1      -2.905  17.302  24.452  1.00  0.00     0.039 C 
ENDBRANCH  37  38
ENDBRANCH  33  35
ENDBRANCH  26  28
ENDBRANCH   1  24
TORSDOF 11
ENDMDL
