MODEL 1
REMARK VINA RESULT: -8.104316826      0.000      0.000
REMARK  11 active torsions:
REMARK  status: ('A' for Active; 'I' for Inactive)
REMARK    1  A    between atoms: N1_1  and  C1_4 
REMARK    2  A    between atoms: N2_7  and  C4_8 
REMARK    3  A    between atoms: C4_8  and  C5_9 
REMARK    4  A    between atoms: C5_9  and  C6_10 
REMARK    5  A    between atoms: C6_10  and  C7_11 
REMARK    6  A    between atoms: N4_16  and  C9_17 
REMARK    7  A    between atoms: C10_19  and  C11_20 
REMARK    8  A    between atoms: C11_20  and  N5_21 
REMARK    9  A    between atoms: C14_31  and  N9_32 
REMARK   10  A    between atoms: C16_38  and  O4_39 
REMARK   11  A    between atoms: C17_41  and  N11_42 
ROOT
HETATM    1  C9  UNL     1      19.964  41.479  18.126  1.00  0.00     0.262 C 
HETATM    2  O2  UNL     1      18.903  41.397  17.231  1.00  0.00    -0.354 OA
HETATM    3  C10 UNL     1      18.975  42.448  16.305  1.00  0.00     0.175 C 
HETATM    4  C16 UNL     1      20.476  42.787  16.321  1.00  0.00     0.175 C 
HETATM    5  C17 UNL     1      20.459  42.824  17.890  1.00  0.00     0.155 C 
ENDROOT
BRANCH   1   6
HETATM    6  N4  UNL     1      19.518  41.051  19.379  1.00  0.00    -0.221 N 
HETATM    7  C8  UNL     1      20.279  40.316  20.197  1.00  0.00     0.334 A 
HETATM    8  N3  UNL     1      19.873  39.892  21.407  1.00  0.00    -0.297 N 
HETATM    9  O1  UNL     1      21.411  40.011  19.820  1.00  0.00    -0.246 OA
HETATM   10  C7  UNL     1      18.657  40.211  21.829  1.00  0.00     0.088 A 
ATOM     11  H3  UNL     1      20.492  39.332  21.993  1.00  0.00     0.172 HD
HETATM   12  N12 UNL     1      17.861  40.940  21.052  1.00  0.00    -0.297 N 
HETATM   13  C18 UNL     1      18.291  41.360  19.831  1.00  0.00     0.334 A 
ATOM     14  H12 UNL     1      16.925  41.186  21.374  1.00  0.00     0.172 HD
HETATM   15  O5  UNL     1      17.458  42.042  19.181  1.00  0.00    -0.246 OA
BRANCH  10  16
HETATM   16  C6  UNL     1      18.240  39.717  23.191  1.00  0.00     0.078 C 
BRANCH  16  17
HETATM   17  C5  UNL     1      16.925  39.011  23.136  1.00  0.00     0.029 C 
BRANCH  17  18
HETATM   18  C4  UNL     1      17.111  37.537  23.005  1.00  0.00     0.148 C 
BRANCH  18  19
HETATM   19  N2  UNL     1      17.654  37.100  21.759  1.00  0.00    -0.302 N 
HETATM   20  C3  UNL     1      17.108  37.224  20.538  1.00  0.00     0.114 A 
HETATM   21  C2  UNL     1      17.961  36.670  19.609  1.00  0.00     0.068 A 
HETATM   22  C1  UNL     1      19.053  36.202  20.327  1.00  0.00     0.114 A 
HETATM   23  N13 UNL     1      18.807  36.488  21.595  1.00  0.00    -0.284 N 
ATOM     24  H13 UNL     1      19.441  36.260  22.360  1.00  0.00     0.188 HD
BRANCH  22  25
HETATM   25  N1  UNL     1      20.097  35.605  19.833  1.00  0.00    -0.384 N 
ATOM     26  H12 UNL     1      20.928  36.035  19.426  1.00  0.00     0.157 HD
ATOM     27  H11 UNL     1      20.244  34.598  19.777  1.00  0.00     0.157 HD
ENDBRANCH  22  25
ENDBRANCH  18  19
ENDBRANCH  17  18
ENDBRANCH  16  17
ENDBRANCH  10  16
ENDBRANCH   1   6
BRANCH   5  28
HETATM   28  N11 UNL     1      19.901  43.955  18.437  1.00  0.00    -0.420 N 
ATOM     29 2H11 UNL     1      18.898  44.057  18.283  1.00  0.00     0.150 HD
ATOM     30 1H11 UNL     1      19.919  44.175  19.433  1.00  0.00     0.150 HD
ENDBRANCH   5  28
BRANCH   3  31
HETATM   31  C11 UNL     1      18.571  41.935  14.967  1.00  0.00     0.187 C 
BRANCH  31  32
HETATM   32  N5  UNL     1      17.170  41.710  14.778  1.00  0.00    -0.257 N 
HETATM   33  N6  UNL     1      16.650  40.577  14.266  1.00  0.00    -0.238 N 
HETATM   34  N7  UNL     1      15.340  40.627  14.250  1.00  0.00    -0.278 N 
ATOM     35  H6  UNL     1      17.202  39.786  13.934  1.00  0.00     0.208 HD
HETATM   36  C12 UNL     1      14.983  41.824  14.765  1.00  0.00     0.164 A 
ATOM     37  H7  UNL     1      14.709  39.900  13.913  1.00  0.00     0.189 HD
HETATM   38  C13 UNL     1      13.764  42.433  14.982  1.00  0.00     0.291 A 
HETATM   39  C15 UNL     1      16.155  42.490  15.089  1.00  0.00     0.173 A 
HETATM   40  O3  UNL     1      12.719  41.784  14.671  1.00  0.00    -0.265 OA
HETATM   41  N8  UNL     1      13.638  43.661  15.501  1.00  0.00    -0.154 N 
HETATM   42  C14 UNL     1      14.791  44.295  15.810  1.00  0.00     0.680 A 
ATOM     43  H8  UNL     1      12.727  44.093  15.654  1.00  0.00     0.187 HD
HETATM   44  N10 UNL     1      15.989  43.726  15.608  1.00  0.00    -0.173 N 
ATOM     45  H10 UNL     1      16.822  44.257  15.861  1.00  0.00     0.186 HD
BRANCH  42  46
HETATM   46  N9  UNL     1      14.698  45.490  16.314  1.00  0.00    -0.234 N 
ATOM     47  H92 UNL     1      13.846  45.793  16.788  1.00  0.00     0.174 HD
ATOM     48  H91 UNL     1      15.507  46.104  16.217  1.00  0.00     0.174 HD
ENDBRANCH  42  46
ENDBRANCH  31  32
ENDBRANCH   3  31
BRANCH   4  49
HETATM   49  O4  UNL     1      21.265  41.725  15.943  1.00  0.00    -0.391 OA
ATOM     50  H4  UNL     1      22.189  41.942  15.928  1.00  0.00     0.210 HD
ENDBRANCH   4  49
TORSDOF 11
ENDMDL
MODEL 2
REMARK VINA RESULT: -7.762911254      5.343     10.023
REMARK  11 active torsions:
REMARK  status: ('A' for Active; 'I' for Inactive)
REMARK    1  A    between atoms: N1_1  and  C1_4 
REMARK    2  A    between atoms: N2_7  and  C4_8 
REMARK    3  A    between atoms: C4_8  and  C5_9 
REMARK    4  A    between atoms: C5_9  and  C6_10 
REMARK    5  A    between atoms: C6_10  and  C7_11 
REMARK    6  A    between atoms: N4_16  and  C9_17 
REMARK    7  A    between atoms: C10_19  and  C11_20 
REMARK    8  A    between atoms: C11_20  and  N5_21 
REMARK    9  A    between atoms: C14_31  and  N9_32 
REMARK   10  A    between atoms: C16_38  and  O4_39 
REMARK   11  A    between atoms: C17_41  and  N11_42 
ROOT
HETATM    1  C9  UNL     1      19.047  41.918  23.692  1.00  0.00     0.262 C 
HETATM    2  O2  UNL     1      19.421  41.473  24.956  1.00  0.00    -0.354 OA
HETATM    3  C10 UNL     1      19.933  42.540  25.707  1.00  0.00     0.175 C 
HETATM    4  C16 UNL     1      19.263  43.754  25.039  1.00  0.00     0.175 C 
HETATM    5  C17 UNL     1      19.688  43.220  23.625  1.00  0.00     0.155 C 
ENDROOT
BRANCH   1   6
HETATM    6  N4  UNL     1      19.311  40.902  22.770  1.00  0.00    -0.221 N 
HETATM    7  C8  UNL     1      20.364  40.086  22.886  1.00  0.00     0.334 A 
HETATM    8  N3  UNL     1      20.640  39.102  22.012  1.00  0.00    -0.297 N 
HETATM    9  O1  UNL     1      21.121  40.247  23.844  1.00  0.00    -0.246 OA
HETATM   10  C7  UNL     1      19.836  38.915  20.974  1.00  0.00     0.088 A 
ATOM     11  H3  UNL     1      21.458  38.507  22.145  1.00  0.00     0.172 HD
HETATM   12  N12 UNL     1      18.775  39.700  20.814  1.00  0.00    -0.297 N 
HETATM   13  C18 UNL     1      18.513  40.691  21.710  1.00  0.00     0.334 A 
ATOM     14  H12 UNL     1      18.155  39.559  20.016  1.00  0.00     0.172 HD
HETATM   15  O5  UNL     1      17.485  41.373  21.461  1.00  0.00    -0.246 OA
BRANCH  10  16
HETATM   16  C6  UNL     1      20.180  37.801  20.018  1.00  0.00     0.078 C 
BRANCH  16  17
HETATM   17  C5  UNL     1      20.375  36.506  20.737  1.00  0.00     0.029 C 
BRANCH  17  18
HETATM   18  C4  UNL     1      19.103  35.729  20.802  1.00  0.00     0.148 C 
BRANCH  18  19
HETATM   19  N2  UNL     1      17.983  36.438  21.334  1.00  0.00    -0.302 N 
HETATM   20  C3  UNL     1      16.805  36.676  20.737  1.00  0.00     0.114 A 
HETATM   21  C2  UNL     1      16.004  37.393  21.599  1.00  0.00     0.068 A 
HETATM   22  C1  UNL     1      16.756  37.579  22.749  1.00  0.00     0.114 A 
HETATM   23  N13 UNL     1      17.919  36.989  22.527  1.00  0.00    -0.284 N 
ATOM     24  H13 UNL     1      18.681  36.965  23.204  1.00  0.00     0.188 HD
BRANCH  22  25
HETATM   25  N1  UNL     1      16.375  38.211  23.821  1.00  0.00    -0.384 N 
ATOM     26  H12 UNL     1      15.805  39.055  23.879  1.00  0.00     0.157 HD
ATOM     27  H11 UNL     1      16.594  37.950  24.782  1.00  0.00     0.157 HD
ENDBRANCH  22  25
ENDBRANCH  18  19
ENDBRANCH  17  18
ENDBRANCH  16  17
ENDBRANCH  10  16
ENDBRANCH   1   6
BRANCH   5  28
HETATM   28  N11 UNL     1      21.011  43.409  23.308  1.00  0.00    -0.420 N 
ATOM     29 2H11 UNL     1      21.665  42.812  23.815  1.00  0.00     0.150 HD
ATOM     30 1H11 UNL     1      21.397  43.286  22.372  1.00  0.00     0.150 HD
ENDBRANCH   5  28
BRANCH   3  31
HETATM   31  C11 UNL     1      19.470  42.399  27.116  1.00  0.00     0.187 C 
BRANCH  31  32
HETATM   32  N5  UNL     1      20.223  41.499  27.936  1.00  0.00    -0.257 N 
HETATM   33  N6  UNL     1      21.343  40.868  27.532  1.00  0.00    -0.238 N 
HETATM   34  N7  UNL     1      21.849  40.145  28.502  1.00  0.00    -0.278 N 
ATOM     35  H6  UNL     1      21.744  40.943  26.598  1.00  0.00     0.208 HD
HETATM   36  C12 UNL     1      21.043  40.300  29.575  1.00  0.00     0.164 A 
ATOM     37  H7  UNL     1      22.692  39.572  28.456  1.00  0.00     0.189 HD
HETATM   38  C13 UNL     1      21.062  39.783  30.853  1.00  0.00     0.291 A 
HETATM   39  C15 UNL     1      20.023  41.159  29.193  1.00  0.00     0.173 A 
HETATM   40  O3  UNL     1      22.016  39.003  31.158  1.00  0.00    -0.265 OA
HETATM   41  N8  UNL     1      20.132  40.064  31.775  1.00  0.00    -0.154 N 
HETATM   42  C14 UNL     1      19.145  40.901  31.384  1.00  0.00     0.680 A 
ATOM     43  H8  UNL     1      20.165  39.670  32.715  1.00  0.00     0.187 HD
HETATM   44  N10 UNL     1      19.103  41.418  30.147  1.00  0.00    -0.173 N 
ATOM     45  H10 UNL     1      18.332  42.043  29.913  1.00  0.00     0.186 HD
BRANCH  42  46
HETATM   46  N9  UNL     1      18.228  41.191  32.259  1.00  0.00    -0.234 N 
ATOM     47  H92 UNL     1      18.207  40.728  33.168  1.00  0.00     0.174 HD
ATOM     48  H91 UNL     1      17.539  41.897  31.998  1.00  0.00     0.174 HD
ENDBRANCH  42  46
ENDBRANCH  31  32
ENDBRANCH   3  31
BRANCH   4  49
HETATM   49  O4  UNL     1      17.889  43.704  25.103  1.00  0.00    -0.391 OA
ATOM     50  H4  UNL     1      17.542  44.141  25.871  1.00  0.00     0.210 HD
ENDBRANCH   4  49
TORSDOF 11
ENDMDL
MODEL 3
REMARK VINA RESULT: -7.638943764      5.152      9.771
REMARK  11 active torsions:
REMARK  status: ('A' for Active; 'I' for Inactive)
REMARK    1  A    between atoms: N1_1  and  C1_4 
REMARK    2  A    between atoms: N2_7  and  C4_8 
REMARK    3  A    between atoms: C4_8  and  C5_9 
REMARK    4  A    between atoms: C5_9  and  C6_10 
REMARK    5  A    between atoms: C6_10  and  C7_11 
REMARK    6  A    between atoms: N4_16  and  C9_17 
REMARK    7  A    between atoms: C10_19  and  C11_20 
REMARK    8  A    between atoms: C11_20  and  N5_21 
REMARK    9  A    between atoms: C14_31  and  N9_32 
REMARK   10  A    between atoms: C16_38  and  O4_39 
REMARK   11  A    between atoms: C17_41  and  N11_42 
ROOT
HETATM    1  C9  UNL     1      18.953  42.006  23.636  1.00  0.00     0.262 C 
HETATM    2  O2  UNL     1      19.115  41.554  24.941  1.00  0.00    -0.354 OA
HETATM    3  C10 UNL     1      19.599  42.591  25.751  1.00  0.00     0.175 C 
HETATM    4  C16 UNL     1      19.120  43.841  24.992  1.00  0.00     0.175 C 
HETATM    5  C17 UNL     1      19.694  43.256  23.652  1.00  0.00     0.155 C 
ENDROOT
BRANCH   1   6
HETATM    6  N4  UNL     1      19.265  40.960  22.764  1.00  0.00    -0.221 N 
HETATM    7  C8  UNL     1      18.527  40.686  21.683  1.00  0.00     0.334 A 
HETATM    8  N3  UNL     1      18.806  39.685  20.829  1.00  0.00    -0.297 N 
HETATM    9  O1  UNL     1      17.541  41.387  21.460  1.00  0.00    -0.246 OA
HETATM   10  C7  UNL     1      19.865  38.919  21.055  1.00  0.00     0.088 A 
ATOM     11  H3  UNL     1      18.211  39.516  20.018  1.00  0.00     0.172 HD
HETATM   12  N12 UNL     1      20.631  39.151  22.117  1.00  0.00    -0.297 N 
HETATM   13  C18 UNL     1      20.332  40.169  22.969  1.00  0.00     0.334 A 
ATOM     14  H12 UNL     1      21.445  38.562  22.293  1.00  0.00     0.172 HD
HETATM   15  O5  UNL     1      21.122  40.298  23.940  1.00  0.00    -0.246 OA
BRANCH  10  16
HETATM   16  C6  UNL     1      20.143  37.808  20.074  1.00  0.00     0.078 C 
BRANCH  16  17
HETATM   17  C5  UNL     1      20.366  36.507  20.773  1.00  0.00     0.029 C 
BRANCH  17  18
HETATM   18  C4  UNL     1      19.103  35.718  20.859  1.00  0.00     0.148 C 
BRANCH  18  19
HETATM   19  N2  UNL     1      17.975  36.431  21.368  1.00  0.00    -0.302 N 
HETATM   20  C3  UNL     1      16.812  36.677  20.745  1.00  0.00     0.114 A 
HETATM   21  C2  UNL     1      15.995  37.395  21.591  1.00  0.00     0.068 A 
HETATM   22  C1  UNL     1      16.721  37.573  22.759  1.00  0.00     0.114 A 
HETATM   23  N13 UNL     1      17.886  36.977  22.561  1.00  0.00    -0.284 N 
ATOM     24  H13 UNL     1      18.632  36.946  23.256  1.00  0.00     0.188 HD
BRANCH  22  25
HETATM   25  N1  UNL     1      16.319  38.202  23.825  1.00  0.00    -0.384 N 
ATOM     26  H12 UNL     1      15.840  37.812  24.637  1.00  0.00     0.157 HD
ATOM     27  H11 UNL     1      16.425  39.198  24.010  1.00  0.00     0.157 HD
ENDBRANCH  22  25
ENDBRANCH  18  19
ENDBRANCH  17  18
ENDBRANCH  16  17
ENDBRANCH  10  16
ENDBRANCH   1   6
BRANCH   5  28
HETATM   28  N11 UNL     1      21.059  43.342  23.521  1.00  0.00    -0.420 N 
ATOM     29 2H11 UNL     1      21.583  43.215  24.386  1.00  0.00     0.150 HD
ATOM     30 1H11 UNL     1      21.614  42.729  22.923  1.00  0.00     0.150 HD
ENDBRANCH   5  28
BRANCH   3  31
HETATM   31  C11 UNL     1      18.937  42.506  27.083  1.00  0.00     0.187 C 
BRANCH  31  32
HETATM   32  N5  UNL     1      19.575  41.663  28.048  1.00  0.00    -0.257 N 
HETATM   33  N6  UNL     1      18.932  41.070  29.073  1.00  0.00    -0.238 N 
HETATM   34  N7  UNL     1      19.752  40.319  29.769  1.00  0.00    -0.278 N 
ATOM     35  H6  UNL     1      17.941  41.189  29.280  1.00  0.00     0.208 HD
HETATM   36  C12 UNL     1      20.969  40.419  29.190  1.00  0.00     0.164 A 
ATOM     37  H7  UNL     1      19.517  39.766  30.592  1.00  0.00     0.189 HD
HETATM   38  C13 UNL     1      22.201  39.874  29.484  1.00  0.00     0.291 A 
HETATM   39  C15 UNL     1      20.832  41.273  28.107  1.00  0.00     0.173 A 
HETATM   40  O3  UNL     1      22.277  39.096  30.484  1.00  0.00    -0.265 OA
HETATM   41  N8  UNL     1      23.305  40.125  28.769  1.00  0.00    -0.154 N 
HETATM   42  C14 UNL     1      23.153  40.961  27.717  1.00  0.00     0.680 A 
ATOM     43  H8  UNL     1      24.208  39.711  29.004  1.00  0.00     0.187 HD
HETATM   44  N10 UNL     1      21.965  41.504  27.411  1.00  0.00    -0.173 N 
ATOM     45  H10 UNL     1      21.917  42.128  26.605  1.00  0.00     0.186 HD
BRANCH  42  46
HETATM   46  N9  UNL     1      24.210  41.222  27.006  1.00  0.00    -0.234 N 
ATOM     47  H92 UNL     1      24.504  40.596  26.256  1.00  0.00     0.174 HD
ATOM     48  H91 UNL     1      24.725  42.075  27.229  1.00  0.00     0.174 HD
ENDBRANCH  42  46
ENDBRANCH  31  32
ENDBRANCH   3  31
BRANCH   4  49
HETATM   49  O4  UNL     1      17.751  43.894  24.865  1.00  0.00    -0.391 OA
ATOM     50  H4  UNL     1      17.435  44.769  24.675  1.00  0.00     0.210 HD
ENDBRANCH   4  49
TORSDOF 11
ENDMDL
MODEL 4
REMARK VINA RESULT: -7.590254656      1.842      2.548
REMARK  11 active torsions:
REMARK  status: ('A' for Active; 'I' for Inactive)
REMARK    1  A    between atoms: N1_1  and  C1_4 
REMARK    2  A    between atoms: N2_7  and  C4_8 
REMARK    3  A    between atoms: C4_8  and  C5_9 
REMARK    4  A    between atoms: C5_9  and  C6_10 
REMARK    5  A    between atoms: C6_10  and  C7_11 
REMARK    6  A    between atoms: N4_16  and  C9_17 
REMARK    7  A    between atoms: C10_19  and  C11_20 
REMARK    8  A    between atoms: C11_20  and  N5_21 
REMARK    9  A    between atoms: C14_31  and  N9_32 
REMARK   10  A    between atoms: C16_38  and  O4_39 
REMARK   11  A    between atoms: C17_41  and  N11_42 
ROOT
HETATM    1  C9  UNL     1      20.552  41.200  19.439  1.00  0.00     0.262 C 
HETATM    2  O2  UNL     1      19.926  41.287  18.200  1.00  0.00    -0.354 OA
HETATM    3  C10 UNL     1      20.398  42.408  17.502  1.00  0.00     0.175 C 
HETATM    4  C16 UNL     1      21.784  42.620  18.136  1.00  0.00     0.175 C 
HETATM    5  C17 UNL     1      21.153  42.517  19.570  1.00  0.00     0.155 C 
ENDROOT
BRANCH   1   6
HETATM    6  N4  UNL     1      19.633  40.699  20.364  1.00  0.00    -0.221 N 
HETATM    7  C8  UNL     1      19.986  39.855  21.338  1.00  0.00     0.334 A 
HETATM    8  N3  UNL     1      19.120  39.358  22.240  1.00  0.00    -0.297 N 
HETATM    9  O1  UNL     1      21.166  39.514  21.412  1.00  0.00    -0.246 OA
HETATM   10  C7  UNL     1      17.844  39.715  22.175  1.00  0.00     0.088 A 
ATOM     11  H3  UNL     1      19.440  38.716  22.965  1.00  0.00     0.172 HD
HETATM   12  N12 UNL     1      17.442  40.552  21.224  1.00  0.00    -0.297 N 
HETATM   13  C18 UNL     1      18.334  41.044  20.320  1.00  0.00     0.334 A 
ATOM     14  H12 UNL     1      16.461  40.827  21.171  1.00  0.00     0.172 HD
HETATM   15  O5  UNL     1      17.847  41.826  19.465  1.00  0.00    -0.246 OA
BRANCH  10  16
HETATM   16  C6  UNL     1      16.906  39.137  23.205  1.00  0.00     0.078 C 
BRANCH  16  17
HETATM   17  C5  UNL     1      16.845  37.647  23.111  1.00  0.00     0.029 C 
BRANCH  17  18
HETATM   18  C4  UNL     1      16.606  37.205  21.707  1.00  0.00     0.148 C 
BRANCH  18  19
HETATM   19  N2  UNL     1      17.732  36.615  21.055  1.00  0.00    -0.302 N 
HETATM   20  C3  UNL     1      18.184  36.864  19.815  1.00  0.00     0.114 A 
HETATM   21  C2  UNL     1      19.294  36.082  19.579  1.00  0.00     0.068 A 
HETATM   22  C1  UNL     1      19.493  35.346  20.738  1.00  0.00     0.114 A 
HETATM   23  N13 UNL     1      18.532  35.709  21.573  1.00  0.00    -0.284 N 
ATOM     24  H13 UNL     1      18.424  35.328  22.512  1.00  0.00     0.188 HD
BRANCH  22  25
HETATM   25  N1  UNL     1      20.439  34.477  20.942  1.00  0.00    -0.384 N 
ATOM     26  H12 UNL     1      21.446  34.635  20.922  1.00  0.00     0.157 HD
ATOM     27  H11 UNL     1      20.312  33.489  21.157  1.00  0.00     0.157 HD
ENDBRANCH  22  25
ENDBRANCH  18  19
ENDBRANCH  17  18
ENDBRANCH  16  17
ENDBRANCH  10  16
ENDBRANCH   1   6
BRANCH   5  28
HETATM   28  N11 UNL     1      20.470  43.635  19.984  1.00  0.00    -0.420 N 
ATOM     29 2H11 UNL     1      19.471  43.627  19.783  1.00  0.00     0.150 HD
ATOM     30 1H11 UNL     1      20.422  43.946  20.955  1.00  0.00     0.150 HD
ENDBRANCH   5  28
BRANCH   3  31
HETATM   31  C11 UNL     1      20.533  42.053  16.062  1.00  0.00     0.187 C 
BRANCH  31  32
HETATM   32  N5  UNL     1      19.710  42.792  15.154  1.00  0.00    -0.257 N 
HETATM   33  N6  UNL     1      20.094  43.932  14.545  1.00  0.00    -0.238 N 
HETATM   34  N7  UNL     1      19.160  44.367  13.733  1.00  0.00    -0.278 N 
ATOM     35  H6  UNL     1      20.990  44.394  14.695  1.00  0.00     0.208 HD
HETATM   36  C12 UNL     1      18.132  43.493  13.806  1.00  0.00     0.164 A 
ATOM     37  H7  UNL     1      19.202  45.206  13.155  1.00  0.00     0.189 HD
HETATM   38  C13 UNL     1      16.895  43.439  13.199  1.00  0.00     0.291 A 
HETATM   39  C15 UNL     1      18.502  42.509  14.711  1.00  0.00     0.173 A 
HETATM   40  O3  UNL     1      16.602  44.360  12.378  1.00  0.00    -0.265 OA
HETATM   41  N8  UNL     1      16.003  42.468  13.435  1.00  0.00    -0.154 N 
HETATM   42  C14 UNL     1      16.380  41.518  14.320  1.00  0.00     0.680 A 
ATOM     43  H8  UNL     1      15.093  42.447  12.975  1.00  0.00     0.187 HD
HETATM   44  N10 UNL     1      17.578  41.549  14.924  1.00  0.00    -0.173 N 
ATOM     45  H10 UNL     1      17.802  40.803  15.583  1.00  0.00     0.186 HD
BRANCH  42  46
HETATM   46  N9  UNL     1      15.532  40.564  14.568  1.00  0.00    -0.234 N 
ATOM     47  H92 UNL     1      15.438  39.770  13.935  1.00  0.00     0.174 HD
ATOM     48  H91 UNL     1      14.972  40.645  15.416  1.00  0.00     0.174 HD
ENDBRANCH  42  46
ENDBRANCH  31  32
ENDBRANCH   3  31
BRANCH   4  49
HETATM   49  O4  UNL     1      22.615  41.536  17.973  1.00  0.00    -0.391 OA
ATOM     50  H4  UNL     1      23.534  41.764  18.044  1.00  0.00     0.210 HD
ENDBRANCH   4  49
TORSDOF 11
ENDMDL
MODEL 5
REMARK VINA RESULT: -7.538762526      2.152      7.709
REMARK  11 active torsions:
REMARK  status: ('A' for Active; 'I' for Inactive)
REMARK    1  A    between atoms: N1_1  and  C1_4 
REMARK    2  A    between atoms: N2_7  and  C4_8 
REMARK    3  A    between atoms: C4_8  and  C5_9 
REMARK    4  A    between atoms: C5_9  and  C6_10 
REMARK    5  A    between atoms: C6_10  and  C7_11 
REMARK    6  A    between atoms: N4_16  and  C9_17 
REMARK    7  A    between atoms: C10_19  and  C11_20 
REMARK    8  A    between atoms: C11_20  and  N5_21 
REMARK    9  A    between atoms: C14_31  and  N9_32 
REMARK   10  A    between atoms: C16_38  and  O4_39 
REMARK   11  A    between atoms: C17_41  and  N11_42 
ROOT
HETATM    1  C9  UNL     1      19.761  42.636  20.475  1.00  0.00     0.262 C 
HETATM    2  O2  UNL     1      20.042  41.363  20.958  1.00  0.00    -0.354 OA
HETATM    3  C10 UNL     1      20.882  41.449  22.078  1.00  0.00     0.175 C 
HETATM    4  C16 UNL     1      20.574  42.863  22.601  1.00  0.00     0.175 C 
HETATM    5  C17 UNL     1      20.757  43.447  21.155  1.00  0.00     0.155 C 
ENDROOT
BRANCH   1   6
HETATM    6  N4  UNL     1      19.670  42.570  19.082  1.00  0.00    -0.221 N 
HETATM    7  C8  UNL     1      18.684  43.161  18.400  1.00  0.00     0.334 A 
HETATM    8  N3  UNL     1      18.575  43.112  17.061  1.00  0.00    -0.297 N 
HETATM    9  O1  UNL     1      17.831  43.783  19.034  1.00  0.00    -0.246 OA
HETATM   10  C7  UNL     1      19.485  42.446  16.362  1.00  0.00     0.088 A 
ATOM     11  H3  UNL     1      17.802  43.580  16.588  1.00  0.00     0.172 HD
HETATM   12  N12 UNL     1      20.486  41.840  16.994  1.00  0.00    -0.297 N 
HETATM   13  C18 UNL     1      20.579  41.902  18.351  1.00  0.00     0.334 A 
ATOM     14  H12 UNL     1      21.187  41.327  16.459  1.00  0.00     0.172 HD
HETATM   15  O5  UNL     1      21.564  41.294  18.843  1.00  0.00    -0.246 OA
BRANCH  10  16
HETATM   16  C6  UNL     1      19.327  42.415  14.863  1.00  0.00     0.078 C 
BRANCH  16  17
HETATM   17  C5  UNL     1      17.959  42.849  14.450  1.00  0.00     0.029 C 
BRANCH  17  18
HETATM   18  C4  UNL     1      17.042  41.681  14.310  1.00  0.00     0.148 C 
BRANCH  18  19
HETATM   19  N2  UNL     1      15.666  41.952  14.580  1.00  0.00    -0.302 N 
HETATM   20  C3  UNL     1      15.156  42.966  15.298  1.00  0.00     0.114 A 
HETATM   21  C2  UNL     1      13.782  42.857  15.311  1.00  0.00     0.068 A 
HETATM   22  C1  UNL     1      13.484  41.725  14.567  1.00  0.00     0.114 A 
HETATM   23  N13 UNL     1      14.645  41.235  14.163  1.00  0.00    -0.284 N 
ATOM     24  H13 UNL     1      14.738  40.396  13.592  1.00  0.00     0.188 HD
BRANCH  22  25
HETATM   25  N1  UNL     1      12.295  41.256  14.326  1.00  0.00    -0.384 N 
ATOM     26  H12 UNL     1      12.023  40.583  13.610  1.00  0.00     0.157 HD
ATOM     27  H11 UNL     1      11.441  41.497  14.827  1.00  0.00     0.157 HD
ENDBRANCH  22  25
ENDBRANCH  18  19
ENDBRANCH  17  18
ENDBRANCH  16  17
ENDBRANCH  10  16
ENDBRANCH   1   6
BRANCH   5  28
HETATM   28  N11 UNL     1      22.061  43.570  20.741  1.00  0.00    -0.420 N 
ATOM     29 2H11 UNL     1      22.307  44.483  20.360  1.00  0.00     0.150 HD
ATOM     30 1H11 UNL     1      22.868  43.444  21.352  1.00  0.00     0.150 HD
ENDBRANCH   5  28
BRANCH   3  31
HETATM   31  C11 UNL     1      20.462  40.423  23.072  1.00  0.00     0.187 C 
BRANCH  31  32
HETATM   32  N5  UNL     1      19.214  39.772  22.812  1.00  0.00    -0.257 N 
HETATM   33  N6  UNL     1      18.023  40.216  23.263  1.00  0.00    -0.238 N 
HETATM   34  N7  UNL     1      17.046  39.453  22.835  1.00  0.00    -0.278 N 
ATOM     35  H6  UNL     1      17.899  41.035  23.857  1.00  0.00     0.208 HD
HETATM   36  C12 UNL     1      17.604  38.479  22.083  1.00  0.00     0.164 A 
ATOM     37  H7  UNL     1      16.053  39.571  23.033  1.00  0.00     0.189 HD
HETATM   38  C13 UNL     1      17.083  37.402  21.397  1.00  0.00     0.291 A 
HETATM   39  C15 UNL     1      18.973  38.701  22.084  1.00  0.00     0.173 A 
HETATM   40  O3  UNL     1      15.825  37.240  21.423  1.00  0.00    -0.265 OA
HETATM   41  N8  UNL     1      17.838  36.532  20.713  1.00  0.00    -0.154 N 
HETATM   42  C14 UNL     1      19.169  36.763  20.726  1.00  0.00     0.680 A 
ATOM     43  H8  UNL     1      17.432  35.741  20.212  1.00  0.00     0.187 HD
HETATM   44  N10 UNL     1      19.701  37.804  21.386  1.00  0.00    -0.173 N 
ATOM     45  H10 UNL     1      20.713  37.923  21.358  1.00  0.00     0.186 HD
BRANCH  42  46
HETATM   46  N9  UNL     1      19.926  35.933  20.071  1.00  0.00    -0.234 N 
ATOM     47  H92 UNL     1      19.529  35.110  19.618  1.00  0.00     0.174 HD
ATOM     48  H91 UNL     1      20.923  36.142  20.030  1.00  0.00     0.174 HD
ENDBRANCH  42  46
ENDBRANCH  31  32
ENDBRANCH   3  31
BRANCH   4  49
HETATM   49  O4  UNL     1      19.251  43.026  22.946  1.00  0.00    -0.391 OA
ATOM     50  H4  UNL     1      19.086  42.838  23.862  1.00  0.00     0.210 HD
ENDBRANCH   4  49
TORSDOF 11
ENDMDL
