MODEL 1
REMARK VINA RESULT: -4.450543334      0.000      0.000
REMARK  3 active torsions:
REMARK  status: ('A' for Active; 'I' for Inactive)
REMARK    1  A    between atoms: C3_6  and  C5_8 
REMARK    2  A    between atoms: C5_8  and  C6_9 
REMARK    3  A    between atoms: C6_9  and  O1_10 
ROOT
HETATM    1  C1  UNL     1      -6.149   5.842  -3.311  1.00  0.00     0.041 C 
HETATM    2  C2  UNL     1      -6.496   6.775  -4.431  1.00  0.00     0.201 C 
HETATM    3  N1  UNL     1      -6.778   8.113  -4.028  1.00  0.00    -0.061 N 
ATOM      4  H11 UNL     1      -6.801   8.219  -3.014  1.00  0.00     0.278 HD
ATOM      5  H12 UNL     1      -7.742   8.385  -4.219  1.00  0.00     0.278 HD
HETATM    6  C3  UNL     1      -5.820   8.992  -4.656  1.00  0.00     0.126 C 
HETATM    7  C4  UNL     1      -6.432  10.284  -5.089  1.00  0.00     0.046 C 
HETATM    8  C7  UNL     1      -5.424   8.241  -5.911  1.00  0.00     0.060 C 
HETATM    9  C8  UNL     1      -5.324   6.825  -5.395  1.00  0.00     0.114 C 
HETATM   10 CL1  UNL     1      -5.688   5.699  -6.717  1.00  0.00    -0.123 Cl
ENDROOT
BRANCH   6  11
HETATM   11  C5  UNL     1      -4.659   9.153  -3.714  1.00  0.00     0.064 C 
BRANCH  11  12
HETATM   12  C6  UNL     1      -4.077  10.526  -3.701  1.00  0.00     0.166 C 
BRANCH  12  13
HETATM   13  O1  UNL     1      -2.739  10.546  -4.046  1.00  0.00    -0.401 OA
ATOM     14  H1  UNL     1      -2.374  11.424  -4.062  1.00  0.00     0.209 HD
ENDBRANCH  12  13
ENDBRANCH  11  12
ENDBRANCH   6  11
TORSDOF 3
ENDMDL
MODEL 2
REMARK VINA RESULT: -4.401364418      2.019      2.730
REMARK  3 active torsions:
REMARK  status: ('A' for Active; 'I' for Inactive)
REMARK    1  A    between atoms: C3_6  and  C5_8 
REMARK    2  A    between atoms: C5_8  and  C6_9 
REMARK    3  A    between atoms: C6_9  and  O1_10 
ROOT
HETATM    1  C1  UNL     1      -4.399   5.134  -6.848  1.00  0.00     0.041 C 
HETATM    2  C2  UNL     1      -5.411   5.267  -5.752  1.00  0.00     0.201 C 
HETATM    3  N1  UNL     1      -5.041   6.159  -4.703  1.00  0.00    -0.061 N 
ATOM      4  H11 UNL     1      -4.087   6.505  -4.803  1.00  0.00     0.278 HD
ATOM      5  H12 UNL     1      -4.925   5.685  -3.807  1.00  0.00     0.278 HD
HETATM    6  C3  UNL     1      -6.014   7.225  -4.643  1.00  0.00     0.126 C 
HETATM    7  C4  UNL     1      -6.319   7.637  -3.241  1.00  0.00     0.046 C 
HETATM    8  C7  UNL     1      -7.268   6.587  -5.206  1.00  0.00     0.060 C 
HETATM    9  C8  UNL     1      -6.707   5.781  -6.353  1.00  0.00     0.114 C 
HETATM   10 CL1  UNL     1      -7.746   4.370  -6.633  1.00  0.00    -0.123 Cl
ENDROOT
BRANCH   6  11
HETATM   11  C5  UNL     1      -5.520   8.345  -5.515  1.00  0.00     0.064 C 
BRANCH  11  12
HETATM   12  C6  UNL     1      -5.512   9.676  -4.842  1.00  0.00     0.166 C 
BRANCH  12  13
HETATM   13  O1  UNL     1      -6.253  10.626  -5.520  1.00  0.00    -0.401 OA
ATOM     14  H1  UNL     1      -7.109  10.774  -5.133  1.00  0.00     0.209 HD
ENDBRANCH  12  13
ENDBRANCH  11  12
ENDBRANCH   6  11
TORSDOF 3
ENDMDL
MODEL 3
REMARK VINA RESULT: -4.396303830      2.021      2.634
REMARK  3 active torsions:
REMARK  status: ('A' for Active; 'I' for Inactive)
REMARK    1  A    between atoms: C3_6  and  C5_8 
REMARK    2  A    between atoms: C5_8  and  C6_9 
REMARK    3  A    between atoms: C6_9  and  O1_10 
ROOT
HETATM    1  C1  UNL     1      -6.673   6.138  -6.183  1.00  0.00     0.041 C 
HETATM    2  C2  UNL     1      -5.726   6.559  -5.102  1.00  0.00     0.201 C 
HETATM    3  N1  UNL     1      -5.075   7.807  -5.332  1.00  0.00    -0.061 N 
ATOM      4  H11 UNL     1      -5.276   8.188  -6.257  1.00  0.00     0.278 HD
ATOM      5  H12 UNL     1      -4.065   7.709  -5.438  1.00  0.00     0.278 HD
HETATM    6  C3  UNL     1      -5.435   8.715  -4.268  1.00  0.00     0.126 C 
HETATM    7  C4  UNL     1      -4.293   9.581  -3.849  1.00  0.00     0.046 C 
HETATM    8  C7  UNL     1      -5.747   7.790  -3.109  1.00  0.00     0.060 C 
HETATM    9  C8  UNL     1      -6.501   6.682  -3.803  1.00  0.00     0.114 C 
HETATM   10 CL1  UNL     1      -6.260   5.168  -2.908  1.00  0.00    -0.123 Cl
ENDROOT
BRANCH   6  11
HETATM   11  C5  UNL     1      -6.650   9.481  -4.712  1.00  0.00     0.064 C 
BRANCH  11  12
HETATM   12  C6  UNL     1      -6.572  10.946  -4.442  1.00  0.00     0.166 C 
BRANCH  12  13
HETATM   13  O1  UNL     1      -6.224  11.681  -5.560  1.00  0.00    -0.401 OA
ATOM     14  H1  UNL     1      -5.340  12.029  -5.513  1.00  0.00     0.209 HD
ENDBRANCH  12  13
ENDBRANCH  11  12
ENDBRANCH   6  11
TORSDOF 3
ENDMDL
MODEL 4
REMARK VINA RESULT: -4.268970461      3.298      4.358
REMARK  3 active torsions:
REMARK  status: ('A' for Active; 'I' for Inactive)
REMARK    1  A    between atoms: C3_6  and  C5_8 
REMARK    2  A    between atoms: C5_8  and  C6_9 
REMARK    3  A    between atoms: C6_9  and  O1_10 
ROOT
HETATM    1  C1  UNL     1      -6.182   6.797  -2.239  1.00  0.00     0.041 C 
HETATM    2  C2  UNL     1      -5.388   6.968  -3.497  1.00  0.00     0.201 C 
HETATM    3  N1  UNL     1      -5.485   5.881  -4.416  1.00  0.00    -0.061 N 
ATOM      4  H11 UNL     1      -6.006   5.092  -4.035  1.00  0.00     0.278 HD
ATOM      5  H12 UNL     1      -4.593   5.405  -4.555  1.00  0.00     0.278 HD
HETATM    6  C3  UNL     1      -6.048   6.374  -5.651  1.00  0.00     0.126 C 
HETATM    7  C4  UNL     1      -5.423   5.745  -6.852  1.00  0.00     0.046 C 
HETATM    8  C7  UNL     1      -5.656   7.838  -5.656  1.00  0.00     0.060 C 
HETATM    9  C8  UNL     1      -5.880   8.214  -4.211  1.00  0.00     0.114 C 
HETATM   10 CL1  UNL     1      -4.774   9.532  -3.777  1.00  0.00    -0.123 Cl
ENDROOT
BRANCH   6  11
HETATM   11  C5  UNL     1      -7.539   6.197  -5.576  1.00  0.00     0.064 C 
BRANCH  11  12
HETATM   12  C6  UNL     1      -7.968   4.799  -5.285  1.00  0.00     0.166 C 
BRANCH  12  13
HETATM   13  O1  UNL     1      -8.297   4.602  -3.957  1.00  0.00    -0.401 OA
ATOM     14  H1  UNL     1      -7.570   4.270  -3.441  1.00  0.00     0.209 HD
ENDBRANCH  12  13
ENDBRANCH  11  12
ENDBRANCH   6  11
TORSDOF 3
ENDMDL
MODEL 5
REMARK VINA RESULT: -4.214523137      2.748      3.885
REMARK  3 active torsions:
REMARK  status: ('A' for Active; 'I' for Inactive)
REMARK    1  A    between atoms: C3_6  and  C5_8 
REMARK    2  A    between atoms: C5_8  and  C6_9 
REMARK    3  A    between atoms: C6_9  and  O1_10 
ROOT
HETATM    1  C1  UNL     1      -6.496   6.035  -6.219  1.00  0.00     0.041 C 
HETATM    2  C2  UNL     1      -6.916   6.658  -4.923  1.00  0.00     0.201 C 
HETATM    3  N1  UNL     1      -7.080   5.739  -3.845  1.00  0.00    -0.061 N 
ATOM      4  H11 UNL     1      -6.985   4.768  -4.142  1.00  0.00     0.278 HD
ATOM      5  H12 UNL     1      -8.045   5.690  -3.515  1.00  0.00     0.278 HD
HETATM    6  C3  UNL     1      -6.153   6.092  -2.796  1.00  0.00     0.126 C 
HETATM    7  C4  UNL     1      -6.741   5.915  -1.434  1.00  0.00     0.046 C 
HETATM    8  C7  UNL     1      -5.939   7.578  -3.002  1.00  0.00     0.060 C 
HETATM    9  C8  UNL     1      -5.857   7.664  -4.508  1.00  0.00     0.114 C 
HETATM   10 CL1  UNL     1      -6.424   9.262  -5.029  1.00  0.00    -0.123 Cl
ENDROOT
BRANCH   6  11
HETATM   11  C5  UNL     1      -4.889   5.310  -3.020  1.00  0.00     0.064 C 
BRANCH  11  12
HETATM   12  C6  UNL     1      -4.115   5.042  -1.774  1.00  0.00     0.166 C 
BRANCH  12  13
HETATM   13  O1  UNL     1      -2.802   5.468  -1.854  1.00  0.00    -0.401 OA
ATOM     14  H1  UNL     1      -2.401   5.592  -1.001  1.00  0.00     0.209 HD
ENDBRANCH  12  13
ENDBRANCH  11  12
ENDBRANCH   6  11
TORSDOF 3
ENDMDL
