MODEL 1
REMARK VINA RESULT: -4.701582342      0.000      0.000
REMARK  4 active torsions:
REMARK  status: ('A' for Active; 'I' for Inactive)
REMARK    1  A    between atoms: N1_1  and  C1_5 
REMARK    2  A    between atoms: C1_5  and  C2_6 
REMARK    3  A    between atoms: C2_6  and  N2_7 
REMARK    4  A    between atoms: N2_7  and  N3_9 
ROOT
HETATM    1  N3  UNL     1      44.302  -8.002  -5.830  1.00  0.00    -0.290 N 
ATOM      2  H3  UNL     1      45.016  -7.375  -6.204  1.00  0.00     0.188 HD
HETATM    3  C3  UNL     1      43.879  -7.864  -4.614  1.00  0.00     0.121 A 
HETATM    4  C4  UNL     1      44.408  -6.852  -3.821  1.00  0.00     0.067 A 
HETATM    5  C5  UNL     1      43.960  -6.705  -2.530  1.00  0.00     0.092 A 
HETATM    6  N4  UNL     1      43.019  -7.555  -2.084  1.00  0.00    -0.362 N 
ATOM      7  H4  UNL     1      42.672  -7.462  -1.129  1.00  0.00     0.165 HD
HETATM    8  C6  UNL     1      42.525  -8.525  -2.874  1.00  0.00     0.181 A 
HETATM    9  N5  UNL     1      42.940  -8.697  -4.140  1.00  0.00    -0.338 N 
ATOM     10  H5  UNL     1      42.554  -9.439  -4.724  1.00  0.00     0.168 HD
ENDROOT
BRANCH   1  11
HETATM   11  N2  UNL     1      43.772  -9.013  -6.619  1.00  0.00    -0.333 N 
ATOM     12  H2  UNL     1      42.757  -9.074  -6.706  1.00  0.00     0.180 HD
BRANCH  11  13
HETATM   13  C2  UNL     1      44.577  -9.985  -7.324  1.00  0.00     0.166 C 
BRANCH  13  14
HETATM   14  C1  UNL     1      45.663  -9.278  -8.105  1.00  0.00     0.250 C 
BRANCH  14  15
HETATM   15  N1  UNL     1      45.077  -8.670  -9.261  1.00  0.00    -0.078 N 
ATOM     16  H13 UNL     1      44.095  -8.921  -9.379  1.00  0.00     0.274 HD
ATOM     17  H12 UNL     1      44.953  -7.664  -9.152  1.00  0.00     0.274 HD
ATOM     18  H11 UNL     1      45.640  -8.907 -10.077  1.00  0.00     0.274 HD
ENDBRANCH  14  15
ENDBRANCH  13  14
ENDBRANCH  11  13
ENDBRANCH   1  11
TORSDOF 4
ENDMDL
MODEL 2
REMARK VINA RESULT: -4.670019199      0.899      1.030
REMARK  4 active torsions:
REMARK  status: ('A' for Active; 'I' for Inactive)
REMARK    1  A    between atoms: N1_1  and  C1_5 
REMARK    2  A    between atoms: C1_5  and  C2_6 
REMARK    3  A    between atoms: C2_6  and  N2_7 
REMARK    4  A    between atoms: N2_7  and  N3_9 
ROOT
HETATM    1  N3  UNL     1      44.229  -7.353  -5.954  1.00  0.00    -0.290 N 
ATOM      2  H3  UNL     1      44.795  -6.569  -6.284  1.00  0.00     0.188 HD
HETATM    3  C3  UNL     1      43.864  -7.422  -4.714  1.00  0.00     0.121 A 
HETATM    4  C4  UNL     1      44.249  -6.418  -3.834  1.00  0.00     0.067 A 
HETATM    5  C5  UNL     1      43.862  -6.490  -2.517  1.00  0.00     0.092 A 
HETATM    6  N4  UNL     1      43.118  -7.542  -2.132  1.00  0.00    -0.362 N 
ATOM      7  H4  UNL     1      42.820  -7.614  -1.159  1.00  0.00     0.165 HD
HETATM    8  C6  UNL     1      42.760  -8.500  -3.005  1.00  0.00     0.181 A 
HETATM    9  N5  UNL     1      43.121  -8.460  -4.298  1.00  0.00    -0.338 N 
ATOM     10  H5  UNL     1      42.839  -9.196  -4.946  1.00  0.00     0.168 HD
ENDROOT
BRANCH   1  11
HETATM   11  N2  UNL     1      43.842  -8.358  -6.829  1.00  0.00    -0.333 N 
ATOM     12  H2  UNL     1      42.857  -8.621  -6.854  1.00  0.00     0.180 HD
BRANCH  11  13
HETATM   13  C2  UNL     1      44.757  -9.052  -7.708  1.00  0.00     0.166 C 
BRANCH  13  14
HETATM   14  C1  UNL     1      44.398 -10.521  -7.759  1.00  0.00     0.250 C 
BRANCH  14  15
HETATM   15  N1  UNL     1      44.202 -10.900  -9.126  1.00  0.00    -0.078 N 
ATOM     16  H13 UNL     1      43.267 -11.270  -9.297  1.00  0.00     0.274 HD
ATOM     17  H12 UNL     1      44.152 -10.095  -9.750  1.00  0.00     0.274 HD
ATOM     18  H11 UNL     1      44.935 -11.556  -9.393  1.00  0.00     0.274 HD
ENDBRANCH  14  15
ENDBRANCH  13  14
ENDBRANCH  11  13
ENDBRANCH   1  11
TORSDOF 4
ENDMDL
MODEL 3
REMARK VINA RESULT: -4.603475685      1.294      1.530
REMARK  4 active torsions:
REMARK  status: ('A' for Active; 'I' for Inactive)
REMARK    1  A    between atoms: N1_1  and  C1_5 
REMARK    2  A    between atoms: C1_5  and  C2_6 
REMARK    3  A    between atoms: C2_6  and  N2_7 
REMARK    4  A    between atoms: N2_7  and  N3_9 
ROOT
HETATM    1  N3  UNL     1      45.642  -7.575  -5.411  1.00  0.00    -0.290 N 
ATOM      2  H3  UNL     1      46.596  -7.298  -5.648  1.00  0.00     0.188 HD
HETATM    3  C3  UNL     1      45.100  -7.180  -4.303  1.00  0.00     0.121 A 
HETATM    4  C4  UNL     1      45.831  -6.373  -3.439  1.00  0.00     0.067 A 
HETATM    5  C5  UNL     1      45.257  -5.953  -2.262  1.00  0.00     0.092 A 
HETATM    6  N4  UNL     1      43.999  -6.344  -1.995  1.00  0.00    -0.362 N 
ATOM      7  H4  UNL     1      43.554  -6.043  -1.128  1.00  0.00     0.165 HD
HETATM    8  C6  UNL     1      43.315  -7.125  -2.851  1.00  0.00     0.181 A 
HETATM    9  N5  UNL     1      43.845  -7.554  -4.008  1.00  0.00    -0.338 N 
ATOM     10  H5  UNL     1      43.311  -8.146  -4.644  1.00  0.00     0.168 HD
ENDROOT
BRANCH   1  11
HETATM   11  N2  UNL     1      44.909  -8.380  -6.272  1.00  0.00    -0.333 N 
ATOM     12  H2  UNL     1      43.893  -8.291  -6.265  1.00  0.00     0.180 HD
BRANCH  11  13
HETATM   13  C2  UNL     1      45.505  -9.337  -7.177  1.00  0.00     0.166 C 
BRANCH  13  14
HETATM   14  C1  UNL     1      44.478 -10.376  -7.569  1.00  0.00     0.250 C 
BRANCH  14  15
HETATM   15  N1  UNL     1      44.406 -10.437  -8.997  1.00  0.00    -0.078 N 
ATOM     16  H13 UNL     1      45.322 -10.356  -9.438  1.00  0.00     0.274 HD
ATOM     17  H12 UNL     1      44.168 -11.369  -9.336  1.00  0.00     0.274 HD
ATOM     18  H11 UNL     1      43.753  -9.725  -9.323  1.00  0.00     0.274 HD
ENDBRANCH  14  15
ENDBRANCH  13  14
ENDBRANCH  11  13
ENDBRANCH   1  11
TORSDOF 4
ENDMDL
MODEL 4
REMARK VINA RESULT: -4.539549669      1.158      5.110
REMARK  4 active torsions:
REMARK  status: ('A' for Active; 'I' for Inactive)
REMARK    1  A    between atoms: N1_1  and  C1_5 
REMARK    2  A    between atoms: C1_5  and  C2_6 
REMARK    3  A    between atoms: C2_6  and  N2_7 
REMARK    4  A    between atoms: N2_7  and  N3_9 
ROOT
HETATM    1  N3  UNL     1      44.002  -7.654  -5.529  1.00  0.00    -0.290 N 
ATOM      2  H3  UNL     1      44.289  -6.682  -5.407  1.00  0.00     0.188 HD
HETATM    3  C3  UNL     1      44.324  -8.304  -6.601  1.00  0.00     0.121 A 
HETATM    4  C4  UNL     1      45.067  -7.663  -7.587  1.00  0.00     0.067 A 
HETATM    5  C5  UNL     1      45.410  -8.351  -8.727  1.00  0.00     0.092 A 
HETATM    6  N4  UNL     1      45.008  -9.629  -8.840  1.00  0.00    -0.362 N 
ATOM      7  H4  UNL     1      45.253 -10.157  -9.678  1.00  0.00     0.165 HD
HETATM    8  C6  UNL     1      44.290 -10.224  -7.871  1.00  0.00     0.181 A 
HETATM    9  N5  UNL     1      43.938  -9.581  -6.745  1.00  0.00    -0.338 N 
ATOM     10  H5  UNL     1      43.393 -10.049  -6.021  1.00  0.00     0.168 HD
ENDROOT
BRANCH   1  11
HETATM   11  N2  UNL     1      43.261  -8.298  -4.547  1.00  0.00    -0.333 N 
ATOM     12  H2  UNL     1      42.681  -9.090  -4.824  1.00  0.00     0.180 HD
BRANCH  11  13
HETATM   13  C2  UNL     1      43.264  -7.906  -3.155  1.00  0.00     0.166 C 
BRANCH  13  14
HETATM   14  C1  UNL     1      43.940  -6.561  -3.006  1.00  0.00     0.250 C 
BRANCH  14  15
HETATM   15  N1  UNL     1      43.930  -6.191  -1.623  1.00  0.00    -0.078 N 
ATOM     16  H13 UNL     1      43.188  -5.527  -1.402  1.00  0.00     0.274 HD
ATOM     17  H12 UNL     1      43.622  -6.953  -1.018  1.00  0.00     0.274 HD
ATOM     18  H11 UNL     1      44.854  -5.841  -1.370  1.00  0.00     0.274 HD
ENDBRANCH  14  15
ENDBRANCH  13  14
ENDBRANCH  11  13
ENDBRANCH   1  11
TORSDOF 4
ENDMDL
MODEL 5
REMARK VINA RESULT: -4.529886944      1.240      5.074
REMARK  4 active torsions:
REMARK  status: ('A' for Active; 'I' for Inactive)
REMARK    1  A    between atoms: N1_1  and  C1_5 
REMARK    2  A    between atoms: C1_5  and  C2_6 
REMARK    3  A    between atoms: C2_6  and  N2_7 
REMARK    4  A    between atoms: N2_7  and  N3_9 
ROOT
HETATM    1  N3  UNL     1      44.237  -7.602  -5.933  1.00  0.00    -0.290 N 
ATOM      2  H3  UNL     1      44.612  -6.653  -5.911  1.00  0.00     0.188 HD
HETATM    3  C3  UNL     1      44.488  -8.384  -6.933  1.00  0.00     0.121 A 
HETATM    4  C4  UNL     1      45.278  -7.918  -7.979  1.00  0.00     0.067 A 
HETATM    5  C5  UNL     1      45.546  -8.748  -9.042  1.00  0.00     0.092 A 
HETATM    6  N4  UNL     1      45.028  -9.988  -9.025  1.00  0.00    -0.362 N 
ATOM      7  H4  UNL     1      45.215 -10.619  -9.804  1.00  0.00     0.165 HD
HETATM    8  C6  UNL     1      44.267 -10.412  -8.000  1.00  0.00     0.181 A 
HETATM    9  N5  UNL     1      43.986  -9.629  -6.946  1.00  0.00    -0.338 N 
ATOM     10  H5  UNL     1      43.407  -9.968  -6.178  1.00  0.00     0.168 HD
ENDROOT
BRANCH   1  11
HETATM   11  N2  UNL     1      43.449  -8.071  -4.891  1.00  0.00    -0.333 N 
ATOM     12  H2  UNL     1      42.672  -8.692  -5.117  1.00  0.00     0.180 HD
BRANCH  11  13
HETATM   13  C2  UNL     1      43.667  -7.727  -3.503  1.00  0.00     0.166 C 
BRANCH  13  14
HETATM   14  C1  UNL     1      42.700  -8.495  -2.630  1.00  0.00     0.250 C 
BRANCH  14  15
HETATM   15  N1  UNL     1      41.962  -9.407  -3.451  1.00  0.00    -0.078 N 
ATOM     16  H13 UNL     1      41.076  -9.684  -3.028  1.00  0.00     0.274 HD
ATOM     17  H12 UNL     1      41.585  -8.961  -4.288  1.00  0.00     0.274 HD
ATOM     18  H11 UNL     1      42.556 -10.206  -3.670  1.00  0.00     0.274 HD
ENDBRANCH  14  15
ENDBRANCH  13  14
ENDBRANCH  11  13
ENDBRANCH   1  11
TORSDOF 4
ENDMDL
