MODEL 1
REMARK VINA RESULT: -5.811724684      0.000      0.000
REMARK  4 active torsions:
REMARK  status: ('A' for Active; 'I' for Inactive)
REMARK    1  A    between atoms: O1_1  and  N1_3 
REMARK    2  A    between atoms: C1_8  and  N4_9 
REMARK    3  A    between atoms: N4_9  and  N5_11 
REMARK    4  A    between atoms: N5_11  and  C2_13 
ROOT
HETATM    1  N4  UNL     1      38.354  -4.467  -8.451  1.00  0.00    -0.113 N 
ATOM      2  H4  UNL     1      39.308  -4.753  -8.676  1.00  0.00     0.206 HD
ENDROOT
BRANCH   1   3
HETATM    3  C1  UNL     1      37.517  -3.982  -9.479  1.00  0.00     0.756 A 
HETATM    4  N1  UNL     1      36.304  -3.439  -9.644  1.00  0.00     0.034 N 
HETATM    5  N2  UNL     1      36.459  -3.337 -10.957  1.00  0.00    -0.186 N 
HETATM    6  N3  UNL     1      37.650  -3.867 -10.822  1.00  0.00    -0.110 N 
ATOM      7  H2  UNL     1      35.894  -2.995 -11.734  1.00  0.00     0.212 HD
ATOM      8  H3  UNL     1      38.393  -4.102 -11.479  1.00  0.00     0.207 HD
BRANCH   4   9
HETATM    9  O1  UNL     1      35.302  -3.124  -8.724  1.00  0.00    -0.253 OA
ATOM     10  H1  UNL     1      35.089  -2.379  -8.174  1.00  0.00     0.247 HD
ENDBRANCH   4   9
ENDBRANCH   1   3
BRANCH   1  11
HETATM   11  N5  UNL     1      37.899  -4.564  -7.117  1.00  0.00    -0.116 N 
ATOM     12  H5  UNL     1      37.639  -5.474  -6.736  1.00  0.00     0.206 HD
BRANCH  11  13
HETATM   13  C2  UNL     1      37.799  -3.408  -6.306  1.00  0.00     0.712 A 
HETATM   14  N6  UNL     1      36.711  -2.671  -6.130  1.00  0.00    -0.130 N 
HETATM   15  N7  UNL     1      37.009  -1.663  -5.316  1.00  0.00    -0.281 N 
ATOM     16  H6  UNL     1      35.797  -2.848  -6.550  1.00  0.00     0.205 HD
HETATM   17  C3  UNL     1      38.311  -1.744  -4.955  1.00  0.00     0.215 A 
ATOM     18  H7  UNL     1      36.357  -0.940  -5.010  1.00  0.00     0.188 HD
HETATM   19  N8  UNL     1      38.773  -2.837  -5.585  1.00  0.00    -0.184 N 
ATOM     20  H8  UNL     1      39.730  -3.183  -5.524  1.00  0.00     0.185 HD
ENDBRANCH  11  13
ENDBRANCH   1  11
TORSDOF 4
ENDMDL
MODEL 2
REMARK VINA RESULT: -5.536512650      1.916      4.824
REMARK  4 active torsions:
REMARK  status: ('A' for Active; 'I' for Inactive)
REMARK    1  A    between atoms: O1_1  and  N1_3 
REMARK    2  A    between atoms: C1_8  and  N4_9 
REMARK    3  A    between atoms: N4_9  and  N5_11 
REMARK    4  A    between atoms: N5_11  and  C2_13 
ROOT
HETATM    1  N4  UNL     1      38.300  -4.383  -7.210  1.00  0.00    -0.113 N 
ATOM      2  H4  UNL     1      38.164  -5.349  -6.912  1.00  0.00     0.206 HD
ENDROOT
BRANCH   1   3
HETATM    3  C1  UNL     1      37.797  -3.335  -6.409  1.00  0.00     0.756 A 
HETATM    4  N1  UNL     1      38.205  -2.481  -5.462  1.00  0.00     0.034 N 
HETATM    5  N2  UNL     1      37.011  -1.912  -5.370  1.00  0.00    -0.186 N 
HETATM    6  N3  UNL     1      36.587  -2.737  -6.296  1.00  0.00    -0.110 N 
ATOM      7  H2  UNL     1      36.601  -1.159  -4.819  1.00  0.00     0.212 HD
ATOM      8  H3  UNL     1      35.688  -2.876  -6.756  1.00  0.00     0.207 HD
BRANCH   4   9
HETATM    9  O1  UNL     1      39.448  -2.310  -4.847  1.00  0.00    -0.253 OA
ATOM     10  H1  UNL     1      40.239  -1.817  -5.032  1.00  0.00     0.247 HD
ENDBRANCH   4   9
ENDBRANCH   1   3
BRANCH   1  11
HETATM   11  N5  UNL     1      38.987  -4.120  -8.416  1.00  0.00    -0.116 N 
ATOM     12  H5  UNL     1      39.978  -3.878  -8.391  1.00  0.00     0.206 HD
BRANCH  11  13
HETATM   13  C2  UNL     1      38.312  -4.189  -9.658  1.00  0.00     0.712 A 
HETATM   14  N6  UNL     1      37.163  -3.597  -9.953  1.00  0.00    -0.130 N 
HETATM   15  N7  UNL     1      36.837  -3.906 -11.205  1.00  0.00    -0.281 N 
ATOM     16  H6  UNL     1      36.619  -3.004  -9.326  1.00  0.00     0.205 HD
HETATM   17  C3  UNL     1      37.787  -4.711 -11.734  1.00  0.00     0.215 A 
ATOM     18  H7  UNL     1      36.000  -3.586 -11.692  1.00  0.00     0.188 HD
HETATM   19  N8  UNL     1      38.688  -4.868 -10.749  1.00  0.00    -0.184 N 
ATOM     20  H8  UNL     1      39.539  -5.425 -10.823  1.00  0.00     0.185 HD
ENDBRANCH  11  13
ENDBRANCH   1  11
TORSDOF 4
ENDMDL
MODEL 3
REMARK VINA RESULT: -5.482828318      1.387      4.718
REMARK  4 active torsions:
REMARK  status: ('A' for Active; 'I' for Inactive)
REMARK    1  A    between atoms: O1_1  and  N1_3 
REMARK    2  A    between atoms: C1_8  and  N4_9 
REMARK    3  A    between atoms: N4_9  and  N5_11 
REMARK    4  A    between atoms: N5_11  and  C2_13 
ROOT
HETATM    1  N4  UNL     1      38.360  -4.749  -8.019  1.00  0.00    -0.113 N 
ATOM      2  H4  UNL     1      38.576  -5.718  -7.781  1.00  0.00     0.206 HD
ENDROOT
BRANCH   1   3
HETATM    3  C1  UNL     1      37.527  -3.995  -7.165  1.00  0.00     0.756 A 
HETATM    4  N1  UNL     1      36.307  -3.443  -7.146  1.00  0.00     0.034 N 
HETATM    5  N2  UNL     1      36.469  -2.975  -5.916  1.00  0.00    -0.186 N 
HETATM    6  N3  UNL     1      37.667  -3.507  -5.909  1.00  0.00    -0.110 N 
ATOM      7  H2  UNL     1      35.905  -2.436  -5.260  1.00  0.00     0.212 HD
ATOM      8  H3  UNL     1      38.418  -3.540  -5.221  1.00  0.00     0.207 HD
BRANCH   4   9
HETATM    9  O1  UNL     1      35.293  -3.414  -8.106  1.00  0.00    -0.253 OA
ATOM     10  H1  UNL     1      34.853  -4.053  -8.654  1.00  0.00     0.247 HD
ENDBRANCH   4   9
ENDBRANCH   1   3
BRANCH   1  11
HETATM   11  N5  UNL     1      38.901  -4.189  -9.199  1.00  0.00    -0.116 N 
ATOM     12  H5  UNL     1      39.780  -3.674  -9.158  1.00  0.00     0.206 HD
BRANCH  11  13
HETATM   13  C2  UNL     1      38.231  -4.338 -10.437  1.00  0.00     0.712 A 
HETATM   14  N6  UNL     1      37.107  -3.730 -10.793  1.00  0.00    -0.130 N 
HETATM   15  N7  UNL     1      36.778  -4.132 -12.017  1.00  0.00    -0.281 N 
ATOM     16  H6  UNL     1      36.583  -3.066 -10.223  1.00  0.00     0.205 HD
HETATM   17  C3  UNL     1      37.700  -5.015 -12.467  1.00  0.00     0.215 A 
ATOM     18  H7  UNL     1      35.956  -3.823 -12.537  1.00  0.00     0.188 HD
HETATM   19  N8  UNL     1      38.588  -5.121 -11.463  1.00  0.00    -0.184 N 
ATOM     20  H8  UNL     1      39.417  -5.714 -11.481  1.00  0.00     0.185 HD
ENDBRANCH  11  13
ENDBRANCH   1  11
TORSDOF 4
ENDMDL
MODEL 4
REMARK VINA RESULT: -5.372658392      2.075      5.392
REMARK  4 active torsions:
REMARK  status: ('A' for Active; 'I' for Inactive)
REMARK    1  A    between atoms: O1_1  and  N1_3 
REMARK    2  A    between atoms: C1_8  and  N4_9 
REMARK    3  A    between atoms: N4_9  and  N5_11 
REMARK    4  A    between atoms: N5_11  and  C2_13 
ROOT
HETATM    1  N4  UNL     1      38.222  -4.195  -9.048  1.00  0.00    -0.113 N 
ATOM      2  H4  UNL     1      39.120  -4.675  -8.976  1.00  0.00     0.206 HD
ENDROOT
BRANCH   1   3
HETATM    3  C1  UNL     1      37.557  -3.793  -7.870  1.00  0.00     0.756 A 
HETATM    4  N1  UNL     1      36.327  -3.480  -7.441  1.00  0.00     0.034 N 
HETATM    5  N2  UNL     1      36.747  -3.254  -6.204  1.00  0.00    -0.186 N 
HETATM    6  N3  UNL     1      37.960  -3.555  -6.598  1.00  0.00    -0.110 N 
ATOM      7  H2  UNL     1      36.314  -2.969  -5.326  1.00  0.00     0.212 HD
ATOM      8  H3  UNL     1      38.863  -3.595  -6.128  1.00  0.00     0.207 HD
BRANCH   4   9
HETATM    9  O1  UNL     1      35.101  -3.435  -8.109  1.00  0.00    -0.253 OA
ATOM     10  H1  UNL     1      34.195  -3.291  -7.863  1.00  0.00     0.247 HD
ENDBRANCH   4   9
ENDBRANCH   1   3
BRANCH   1  11
HETATM   11  N5  UNL     1      37.668  -3.948 -10.324  1.00  0.00    -0.116 N 
ATOM     12  H5  UNL     1      37.225  -3.050 -10.519  1.00  0.00     0.206 HD
BRANCH  11  13
HETATM   13  C2  UNL     1      37.724  -4.938 -11.335  1.00  0.00     0.712 A 
HETATM   14  N6  UNL     1      38.409  -6.072 -11.278  1.00  0.00    -0.130 N 
HETATM   15  N7  UNL     1      38.230  -6.733 -12.418  1.00  0.00    -0.281 N 
ATOM     16  H6  UNL     1      38.979  -6.385 -10.491  1.00  0.00     0.205 HD
HETATM   17  C3  UNL     1      37.416  -6.020 -13.231  1.00  0.00     0.215 A 
ATOM     18  H7  UNL     1      38.642  -7.638 -12.645  1.00  0.00     0.188 HD
HETATM   19  N8  UNL     1      37.119  -4.912 -12.530  1.00  0.00    -0.184 N 
ATOM     20  H8  UNL     1      36.518  -4.158 -12.861  1.00  0.00     0.185 HD
ENDBRANCH  11  13
ENDBRANCH   1  11
TORSDOF 4
ENDMDL
MODEL 5
REMARK VINA RESULT: -5.353715668      2.734      6.051
REMARK  4 active torsions:
REMARK  status: ('A' for Active; 'I' for Inactive)
REMARK    1  A    between atoms: O1_1  and  N1_3 
REMARK    2  A    between atoms: C1_8  and  N4_9 
REMARK    3  A    between atoms: N4_9  and  N5_11 
REMARK    4  A    between atoms: N5_11  and  C2_13 
ROOT
HETATM    1  N4  UNL     1      36.773  -3.579 -11.079  1.00  0.00    -0.113 N 
ATOM      2  H4  UNL     1      35.962  -3.035 -11.377  1.00  0.00     0.206 HD
ENDROOT
BRANCH   1   3
HETATM    3  C1  UNL     1      37.037  -3.729  -9.701  1.00  0.00     0.756 A 
HETATM    4  N1  UNL     1      36.405  -3.666  -8.522  1.00  0.00     0.034 N 
HETATM    5  N2  UNL     1      37.504  -3.965  -7.844  1.00  0.00    -0.186 N 
HETATM    6  N3  UNL     1      38.146  -4.033  -8.985  1.00  0.00    -0.110 N 
ATOM      7  H2  UNL     1      37.745  -4.088  -6.861  1.00  0.00     0.212 HD
ATOM      8  H3  UNL     1      39.113  -4.237  -9.237  1.00  0.00     0.207 HD
BRANCH   4   9
HETATM    9  O1  UNL     1      35.074  -3.385  -8.203  1.00  0.00    -0.253 OA
ATOM     10  H1  UNL     1      34.615  -2.699  -7.732  1.00  0.00     0.247 HD
ENDBRANCH   4   9
ENDBRANCH   1   3
BRANCH   1  11
HETATM   11  N5  UNL     1      37.609  -4.167 -12.055  1.00  0.00    -0.116 N 
ATOM     12  H5  UNL     1      38.543  -3.789 -12.216  1.00  0.00     0.206 HD
BRANCH  11  13
HETATM   13  C2  UNL     1      37.160  -5.275 -12.813  1.00  0.00     0.712 A 
HETATM   14  N6  UNL     1      36.054  -5.322 -13.544  1.00  0.00    -0.130 N 
HETATM   15  N7  UNL     1      35.961  -6.530 -14.093  1.00  0.00    -0.281 N 
ATOM     16  H6  UNL     1      35.386  -4.560 -13.664  1.00  0.00     0.205 HD
HETATM   17  C3  UNL     1      37.021  -7.281 -13.715  1.00  0.00     0.215 A 
ATOM     18  H7  UNL     1      35.207  -6.842 -14.705  1.00  0.00     0.188 HD
HETATM   19  N8  UNL     1      37.746  -6.474 -12.922  1.00  0.00    -0.184 N 
ATOM     20  H8  UNL     1      38.619  -6.738 -12.466  1.00  0.00     0.185 HD
ENDBRANCH  11  13
ENDBRANCH   1  11
TORSDOF 4
ENDMDL
