MODEL 1
REMARK VINA RESULT: -4.716777683      0.000      0.000
REMARK  5 active torsions:
REMARK  status: ('A' for Active; 'I' for Inactive)
REMARK    1  A    between atoms: C2_2  and  C3_3 
REMARK    2  A    between atoms: C2_2  and  N3_12 
REMARK    3  A    between atoms: C3_3  and  N1_4 
REMARK    4  A    between atoms: C3_3  and  N2_8 
REMARK    5  A    between atoms: C5_16  and  N5_17 
ROOT
HETATM    1  C1  UNL     1      42.921  -7.803  -2.698  1.00  0.00     0.038 C 
HETATM    2  C2  UNL     1      44.238  -7.196  -3.112  1.00  0.00     0.163 C 
ENDROOT
BRANCH   2   3
HETATM    3  C3  UNL     1      44.100  -5.670  -3.083  1.00  0.00     0.402 C 
BRANCH   3   4
HETATM    4  N1  UNL     1      45.168  -5.142  -2.272  1.00  0.00    -0.048 N 
ATOM      5  H13 UNL     1      45.811  -5.864  -1.948  1.00  0.00     0.276 HD
ATOM      6  H12 UNL     1      45.838  -4.593  -2.810  1.00  0.00     0.276 HD
ATOM      7  H11 UNL     1      44.750  -4.614  -1.506  1.00  0.00     0.276 HD
ENDBRANCH   3   4
BRANCH   3   8
HETATM    8  N2  UNL     1      42.798  -5.363  -2.591  1.00  0.00    -0.048 N 
ATOM      9  H23 UNL     1      42.352  -6.155  -2.128  1.00  0.00     0.276 HD
ATOM     10  H22 UNL     1      42.816  -4.731  -1.790  1.00  0.00     0.276 HD
ATOM     11  H21 UNL     1      42.250  -4.999  -3.370  1.00  0.00     0.276 HD
ENDBRANCH   3   8
ENDBRANCH   2   3
BRANCH   2  12
HETATM   12  N3  UNL     1      44.621  -7.637  -4.439  1.00  0.00    -0.265 N 
HETATM   13  C4  UNL     1      45.839  -7.664  -4.998  1.00  0.00     0.219 A 
HETATM   14  N4  UNL     1      45.749  -8.145  -6.244  1.00  0.00    -0.185 N 
HETATM   15  C5  UNL     1      44.470  -8.413  -6.444  1.00  0.00     0.691 A 
ATOM     16  H4  UNL     1      46.513  -8.279  -6.906  1.00  0.00     0.185 HD
HETATM   17  N6  UNL     1      43.783  -8.102  -5.340  1.00  0.00    -0.129 N 
ATOM     18  H6  UNL     1      42.776  -8.208  -5.216  1.00  0.00     0.206 HD
BRANCH  15  19
HETATM   19  N5  UNL     1      43.997  -8.900  -7.549  1.00  0.00    -0.233 N 
ATOM     20  H52 UNL     1      43.950  -9.883  -7.818  1.00  0.00     0.174 HD
ATOM     21  H51 UNL     1      43.604  -8.332  -8.300  1.00  0.00     0.174 HD
ENDBRANCH  15  19
ENDBRANCH   2  12
TORSDOF 5
ENDMDL
MODEL 2
REMARK VINA RESULT: -4.691384057      1.214      1.829
REMARK  5 active torsions:
REMARK  status: ('A' for Active; 'I' for Inactive)
REMARK    1  A    between atoms: C2_2  and  C3_3 
REMARK    2  A    between atoms: C2_2  and  N3_12 
REMARK    3  A    between atoms: C3_3  and  N1_4 
REMARK    4  A    between atoms: C3_3  and  N2_8 
REMARK    5  A    between atoms: C5_16  and  N5_17 
ROOT
HETATM    1  C1  UNL     1      44.173  -4.915  -3.712  1.00  0.00     0.038 C 
HETATM    2  C2  UNL     1      43.606  -6.298  -3.916  1.00  0.00     0.163 C 
ENDROOT
BRANCH   2   3
HETATM    3  C3  UNL     1      43.759  -7.082  -2.607  1.00  0.00     0.402 C 
BRANCH   3   4
HETATM    4  N1  UNL     1      42.555  -7.848  -2.406  1.00  0.00    -0.048 N 
ATOM      5  H13 UNL     1      42.119  -8.136  -3.281  1.00  0.00     0.276 HD
ATOM      6  H12 UNL     1      42.738  -8.780  -2.033  1.00  0.00     0.276 HD
ATOM      7  H11 UNL     1      41.930  -7.302  -1.814  1.00  0.00     0.276 HD
ENDBRANCH   3   4
BRANCH   3   8
HETATM    8  N2  UNL     1      44.024  -6.143  -1.568  1.00  0.00    -0.048 N 
ATOM      9  H23 UNL     1      43.325  -5.402  -1.516  1.00  0.00     0.276 HD
ATOM     10  H22 UNL     1      43.879  -6.532  -0.636  1.00  0.00     0.276 HD
ATOM     11  H21 UNL     1      44.969  -5.787  -1.707  1.00  0.00     0.276 HD
ENDBRANCH   3   8
ENDBRANCH   2   3
BRANCH   2  12
HETATM   12  N3  UNL     1      44.287  -6.987  -4.993  1.00  0.00    -0.265 N 
HETATM   13  C4  UNL     1      45.504  -7.551  -4.995  1.00  0.00     0.219 A 
HETATM   14  N4  UNL     1      45.748  -8.082  -6.200  1.00  0.00    -0.185 N 
HETATM   15  C5  UNL     1      44.676  -7.841  -6.934  1.00  0.00     0.691 A 
ATOM     16  H4  UNL     1      46.592  -8.574  -6.492  1.00  0.00     0.185 HD
HETATM   17  N6  UNL     1      43.785  -7.172  -6.194  1.00  0.00    -0.129 N 
ATOM     18  H6  UNL     1      42.867  -6.857  -6.509  1.00  0.00     0.206 HD
BRANCH  15  19
HETATM   19  N5  UNL     1      44.547  -8.211  -8.170  1.00  0.00    -0.233 N 
ATOM     20  H52 UNL     1      44.536  -7.611  -8.994  1.00  0.00     0.174 HD
ATOM     21  H51 UNL     1      44.437  -9.181  -8.466  1.00  0.00     0.174 HD
ENDBRANCH  15  19
ENDBRANCH   2  12
TORSDOF 5
ENDMDL
MODEL 3
REMARK VINA RESULT: -4.613367230      1.547      4.186
REMARK  5 active torsions:
REMARK  status: ('A' for Active; 'I' for Inactive)
REMARK    1  A    between atoms: C2_2  and  C3_3 
REMARK    2  A    between atoms: C2_2  and  N3_12 
REMARK    3  A    between atoms: C3_3  and  N1_4 
REMARK    4  A    between atoms: C3_3  and  N2_8 
REMARK    5  A    between atoms: C5_16  and  N5_17 
ROOT
HETATM    1  C1  UNL     1      44.795  -5.947  -6.206  1.00  0.00     0.038 C 
HETATM    2  C2  UNL     1      45.040  -7.260  -5.506  1.00  0.00     0.163 C 
ENDROOT
BRANCH   2   3
HETATM    3  C3  UNL     1      44.643  -8.397  -6.455  1.00  0.00     0.402 C 
BRANCH   3   4
HETATM    4  N1  UNL     1      45.840  -9.114  -6.814  1.00  0.00    -0.048 N 
ATOM      5  H13 UNL     1      45.943  -9.991  -6.304  1.00  0.00     0.276 HD
ATOM      6  H12 UNL     1      45.797  -9.508  -7.754  1.00  0.00     0.276 HD
ATOM      7  H11 UNL     1      46.634  -8.488  -6.685  1.00  0.00     0.276 HD
ENDBRANCH   3   4
BRANCH   3   8
HETATM    8  N2  UNL     1      43.964  -7.816  -7.566  1.00  0.00    -0.048 N 
ATOM      9  H23 UNL     1      43.074  -8.271  -7.767  1.00  0.00     0.276 HD
ATOM     10  H22 UNL     1      43.599  -6.886  -7.364  1.00  0.00     0.276 HD
ATOM     11  H21 UNL     1      44.604  -7.828  -8.359  1.00  0.00     0.276 HD
ENDBRANCH   3   8
ENDBRANCH   2   3
BRANCH   2  12
HETATM   12  N3  UNL     1      44.277  -7.346  -4.277  1.00  0.00    -0.265 N 
HETATM   13  C4  UNL     1      44.466  -6.694  -3.121  1.00  0.00     0.219 A 
HETATM   14  N4  UNL     1      43.533  -7.069  -2.238  1.00  0.00    -0.185 N 
HETATM   15  C5  UNL     1      42.770  -7.952  -2.859  1.00  0.00     0.691 A 
ATOM     16  H4  UNL     1      43.429  -6.738  -1.278  1.00  0.00     0.185 HD
HETATM   17  N6  UNL     1      43.228  -8.120  -4.104  1.00  0.00    -0.129 N 
ATOM     18  H6  UNL     1      42.828  -8.744  -4.805  1.00  0.00     0.206 HD
BRANCH  15  19
HETATM   19  N5  UNL     1      41.751  -8.540  -2.313  1.00  0.00    -0.233 N 
ATOM     20  H52 UNL     1      40.809  -8.620  -2.696  1.00  0.00     0.174 HD
ATOM     21  H51 UNL     1      41.780  -9.004  -1.405  1.00  0.00     0.174 HD
ENDBRANCH  15  19
ENDBRANCH   2  12
TORSDOF 5
ENDMDL
MODEL 4
REMARK VINA RESULT: -4.528404768      1.606      1.862
REMARK  5 active torsions:
REMARK  status: ('A' for Active; 'I' for Inactive)
REMARK    1  A    between atoms: C2_2  and  C3_3 
REMARK    2  A    between atoms: C2_2  and  N3_12 
REMARK    3  A    between atoms: C3_3  and  N1_4 
REMARK    4  A    between atoms: C3_3  and  N2_8 
REMARK    5  A    between atoms: C5_16  and  N5_17 
ROOT
HETATM    1  C1  UNL     1      45.629  -6.318  -2.543  1.00  0.00     0.038 C 
HETATM    2  C2  UNL     1      45.186  -5.589  -3.786  1.00  0.00     0.163 C 
ENDROOT
BRANCH   2   3
HETATM    3  C3  UNL     1      43.882  -4.845  -3.474  1.00  0.00     0.402 C 
BRANCH   3   4
HETATM    4  N1  UNL     1      44.216  -3.481  -3.147  1.00  0.00    -0.048 N 
ATOM      5  H13 UNL     1      45.148  -3.389  -2.744  1.00  0.00     0.276 HD
ATOM      6  H12 UNL     1      44.367  -2.903  -3.974  1.00  0.00     0.276 HD
ATOM      7  H11 UNL     1      43.485  -3.116  -2.538  1.00  0.00     0.276 HD
ENDBRANCH   3   4
BRANCH   3   8
HETATM    8  N2  UNL     1      43.226  -5.545  -2.420  1.00  0.00    -0.048 N 
ATOM      9  H23 UNL     1      43.672  -6.435  -2.199  1.00  0.00     0.276 HD
ATOM     10  H22 UNL     1      43.352  -5.101  -1.510  1.00  0.00     0.276 HD
ATOM     11  H21 UNL     1      42.246  -5.646  -2.679  1.00  0.00     0.276 HD
ENDBRANCH   3   8
ENDBRANCH   2   3
BRANCH   2  12
HETATM   12  N3  UNL     1      44.984  -6.510  -4.887  1.00  0.00    -0.265 N 
HETATM   13  C4  UNL     1      43.974  -6.561  -5.767  1.00  0.00     0.219 A 
HETATM   14  N4  UNL     1      44.176  -7.570  -6.623  1.00  0.00    -0.185 N 
HETATM   15  C5  UNL     1      45.316  -8.136  -6.263  1.00  0.00     0.691 A 
ATOM     16  H4  UNL     1      43.573  -7.846  -7.398  1.00  0.00     0.185 HD
HETATM   17  N6  UNL     1      45.806  -7.486  -5.202  1.00  0.00    -0.129 N 
ATOM     18  H6  UNL     1      46.675  -7.710  -4.717  1.00  0.00     0.206 HD
BRANCH  15  19
HETATM   19  N5  UNL     1      45.840  -9.156  -6.868  1.00  0.00    -0.233 N 
ATOM     20  H52 UNL     1      46.180 -10.017  -6.440  1.00  0.00     0.174 HD
ATOM     21  H51 UNL     1      45.976  -9.211  -7.877  1.00  0.00     0.174 HD
ENDBRANCH  15  19
ENDBRANCH   2  12
TORSDOF 5
ENDMDL
MODEL 5
REMARK VINA RESULT: -4.495757339      2.118      2.959
REMARK  5 active torsions:
REMARK  status: ('A' for Active; 'I' for Inactive)
REMARK    1  A    between atoms: C2_2  and  C3_3 
REMARK    2  A    between atoms: C2_2  and  N3_12 
REMARK    3  A    between atoms: C3_3  and  N1_4 
REMARK    4  A    between atoms: C3_3  and  N2_8 
REMARK    5  A    between atoms: C5_16  and  N5_17 
ROOT
HETATM    1  C1  UNL     1      45.180  -6.022  -2.212  1.00  0.00     0.038 C 
HETATM    2  C2  UNL     1      44.662  -6.507  -3.542  1.00  0.00     0.163 C 
ENDROOT
BRANCH   2   3
HETATM    3  C3  UNL     1      44.029  -5.321  -4.278  1.00  0.00     0.402 C 
BRANCH   3   4
HETATM    4  N1  UNL     1      44.983  -4.836  -5.244  1.00  0.00    -0.048 N 
ATOM      5  H13 UNL     1      45.186  -5.517  -5.974  1.00  0.00     0.276 HD
ATOM      6  H12 UNL     1      44.601  -4.104  -5.843  1.00  0.00     0.276 HD
ATOM      7  H11 UNL     1      45.817  -4.537  -4.739  1.00  0.00     0.276 HD
ENDBRANCH   3   4
BRANCH   3   8
HETATM    8  N2  UNL     1      43.657  -4.353  -3.300  1.00  0.00    -0.048 N 
ATOM      9  H23 UNL     1      44.243  -4.388  -2.466  1.00  0.00     0.276 HD
ATOM     10  H22 UNL     1      43.880  -3.398  -3.582  1.00  0.00     0.276 HD
ATOM     11  H21 UNL     1      42.667  -4.484  -3.096  1.00  0.00     0.276 HD
ENDBRANCH   3   8
ENDBRANCH   2   3
BRANCH   2  12
HETATM   12  N3  UNL     1      43.687  -7.564  -3.368  1.00  0.00    -0.265 N 
HETATM   13  C4  UNL     1      42.958  -7.867  -2.284  1.00  0.00     0.219 A 
HETATM   14  N4  UNL     1      42.178  -8.921  -2.550  1.00  0.00    -0.185 N 
HETATM   15  C5  UNL     1      42.432  -9.262  -3.801  1.00  0.00     0.691 A 
ATOM     16  H4  UNL     1      41.519  -9.371  -1.914  1.00  0.00     0.185 HD
HETATM   17  N6  UNL     1      43.354  -8.432  -4.298  1.00  0.00    -0.129 N 
ATOM     18  H6  UNL     1      43.737  -8.464  -5.244  1.00  0.00     0.206 HD
BRANCH  15  19
HETATM   19  N5  UNL     1      41.857 -10.251  -4.413  1.00  0.00    -0.233 N 
ATOM     20  H52 UNL     1      41.060 -10.202  -5.048  1.00  0.00     0.174 HD
ATOM     21  H51 UNL     1      42.149 -11.224  -4.323  1.00  0.00     0.174 HD
ENDBRANCH  15  19
ENDBRANCH   2  12
TORSDOF 5
ENDMDL
