MODEL 1
REMARK VINA RESULT: -8.170177102      0.000      0.000
REMARK  8 active torsions:
REMARK  status: ('A' for Active; 'I' for Inactive)
REMARK    1  A    between atoms: C3_3  and  C4_4 
REMARK    2  A    between atoms: C4_4  and  N1_5 
REMARK    3  A    between atoms: N1_5  and  C5_6 
REMARK    4  A    between atoms: N1_5  and  C13_15 
REMARK    5  A    between atoms: C5_6  and  C6_7 
REMARK    6  A    between atoms: C9_10  and  O1_11 
REMARK    7  A    between atoms: N2_20  and  C18_22 
REMARK    8  A    between atoms: C21_27  and  N4_28 
REMARK       I    between atoms: N4_28  and  C22_30 
ROOT
HETATM    1  C1  UNL     1      46.658 -46.164  52.522  1.00  0.00     0.112 C 
HETATM    2  C2  UNL     1      47.631 -46.796  51.631  1.00  0.00    -0.109 C 
HETATM    3  C3  UNL     1      48.444 -47.318  50.909  1.00  0.00    -0.087 C 
ENDROOT
BRANCH   3   4
HETATM    4  C4  UNL     1      49.450 -47.959  50.045  1.00  0.00     0.217 C 
BRANCH   4   5
HETATM    5  N1  UNL     1      49.871 -47.057  48.992  1.00  0.00    -0.366 N 
BRANCH   5   6
HETATM    6  C5  UNL     1      50.687 -47.683  47.961  1.00  0.00     0.162 C 
BRANCH   6   7
HETATM    7  C6  UNL     1      51.800 -46.794  47.542  1.00  0.00    -0.040 A 
HETATM    8  C7  UNL     1      52.897 -46.577  48.344  1.00  0.00     0.011 A 
HETATM    9  C8  UNL     1      53.902 -45.740  47.922  1.00  0.00     0.037 A 
HETATM   10  C9  UNL     1      53.854 -45.098  46.702  1.00  0.00     0.068 A 
HETATM   11  C11 UNL     1      52.768 -45.309  45.899  1.00  0.00     0.037 A 
HETATM   12  C12 UNL     1      51.759 -46.150  46.326  1.00  0.00     0.011 A 
BRANCH  10  13
HETATM   13  O1  UNL     1      54.914 -44.273  46.362  1.00  0.00    -0.356 OA
HETATM   14  C10 UNL     1      55.536 -44.307  45.093  1.00  0.00     0.210 C 
ENDBRANCH  10  13
ENDBRANCH   6   7
ENDBRANCH   5   6
BRANCH   5  15
HETATM   15  C13 UNL     1      49.508 -45.698  48.976  1.00  0.00     0.033 A 
HETATM   16  C14 UNL     1      50.168 -44.751  49.707  1.00  0.00     0.030 A 
HETATM   17  C15 UNL     1      49.816 -43.410  49.673  1.00  0.00     0.020 A 
HETATM   18  C16 UNL     1      48.784 -42.968  48.902  1.00  0.00     0.035 A 
HETATM   19  C17 UNL     1      48.427 -41.624  48.861  1.00  0.00     0.119 A 
HETATM   20  C25 UNL     1      48.104 -43.901  48.157  1.00  0.00     0.049 A 
HETATM   21  N2  UNL     1      49.126 -40.830  49.592  1.00  0.00    -0.342 N 
HETATM   22  N7  UNL     1      47.404 -41.235  48.085  1.00  0.00    -0.338 N 
ATOM     23  H2  UNL     1      49.881 -41.239  50.142  1.00  0.00     0.167 HD
HETATM   24  C24 UNL     1      46.754 -42.165  47.366  1.00  0.00     0.182 A 
ATOM     25  H7  UNL     1      47.126 -40.255  48.041  1.00  0.00     0.168 HD
HETATM   26  N8  UNL     1      47.084 -43.468  47.392  1.00  0.00    -0.351 N 
ATOM     27  H8  UNL     1      46.557 -44.134  46.827  1.00  0.00     0.166 HD
HETATM   28  C26 UNL     1      48.463 -45.245  48.197  1.00  0.00     0.059 A 
BRANCH  21  29
HETATM   29  C18 UNL     1      48.927 -39.429  49.692  1.00  0.00     0.038 A 
HETATM   30  C19 UNL     1      49.626 -38.566  48.893  1.00  0.00     0.046 A 
HETATM   31  C20 UNL     1      49.398 -37.201  49.021  1.00  0.00     0.092 A 
HETATM   32  N3  UNL     1      48.521 -36.674  49.892  1.00  0.00    -0.352 N 
HETATM   33  C21 UNL     1      47.828 -37.523  50.684  1.00  0.00     0.109 A 
ATOM     34  H3  UNL     1      48.383 -35.666  49.954  1.00  0.00     0.166 HD
HETATM   35  C23 UNL     1      48.027 -38.900  50.589  1.00  0.00     0.078 A 
BRANCH  33  36
HETATM   36  N4  UNL     1      46.965 -37.109  51.547  1.00  0.00    -0.317 N 
HETATM   37  C22 UNL     1      46.691 -35.765  51.829  1.00  0.00     0.187 C 
HETATM   38  N5  UNL     1      45.545 -35.285  51.483  1.00  0.00    -0.373 N 
HETATM   39  N6  UNL     1      47.621 -34.939  52.473  1.00  0.00    -0.064 NA
ATOM     40  H52 UNL     1      44.867 -35.887  51.015  1.00  0.00     0.158 HD
ATOM     41  H51 UNL     1      45.344 -34.306  51.689  1.00  0.00     0.158 HD
ATOM     42  H4  UNL     1      46.443 -37.814  52.066  1.00  0.00     0.170 HD
ENDBRANCH  33  36
ENDBRANCH  21  29
ENDBRANCH   5  15
ENDBRANCH   4   5
ENDBRANCH   3   4
TORSDOF 8
ENDMDL
MODEL 2
REMARK VINA RESULT: -7.997046644      2.305      4.991
REMARK  8 active torsions:
REMARK  status: ('A' for Active; 'I' for Inactive)
REMARK    1  A    between atoms: C3_3  and  C4_4 
REMARK    2  A    between atoms: C4_4  and  N1_5 
REMARK    3  A    between atoms: N1_5  and  C5_6 
REMARK    4  A    between atoms: N1_5  and  C13_15 
REMARK    5  A    between atoms: C5_6  and  C6_7 
REMARK    6  A    between atoms: C9_10  and  O1_11 
REMARK    7  A    between atoms: N2_20  and  C18_22 
REMARK    8  A    between atoms: C21_27  and  N4_28 
REMARK       I    between atoms: N4_28  and  C22_30 
ROOT
HETATM    1  C1  UNL     1      54.189 -46.329  47.728  1.00  0.00     0.112 C 
HETATM    2  C2  UNL     1      52.802 -46.794  47.769  1.00  0.00    -0.109 C 
HETATM    3  C3  UNL     1      51.664 -47.190  47.812  1.00  0.00    -0.087 C 
ENDROOT
BRANCH   3   4
HETATM    4  C4  UNL     1      50.280 -47.691  47.878  1.00  0.00     0.217 C 
BRANCH   4   5
HETATM    5  N1  UNL     1      49.557 -47.056  48.961  1.00  0.00    -0.366 N 
BRANCH   5   6
HETATM    6  C5  UNL     1      49.187 -47.959  50.042  1.00  0.00     0.162 C 
BRANCH   6   7
HETATM    7  C6  UNL     1      47.877 -47.584  50.633  1.00  0.00    -0.040 A 
HETATM    8  C7  UNL     1      47.788 -46.844  51.789  1.00  0.00     0.011 A 
HETATM    9  C8  UNL     1      46.556 -46.526  52.308  1.00  0.00     0.037 A 
HETATM   10  C9  UNL     1      45.383 -46.927  51.703  1.00  0.00     0.068 A 
HETATM   11  C11 UNL     1      45.464 -47.662  50.553  1.00  0.00     0.037 A 
HETATM   12  C12 UNL     1      46.703 -47.981  50.034  1.00  0.00     0.011 A 
BRANCH  10  13
HETATM   13  O1  UNL     1      44.188 -46.558  52.300  1.00  0.00    -0.356 OA
HETATM   14  C10 UNL     1      43.044 -46.184  51.558  1.00  0.00     0.210 C 
ENDBRANCH  10  13
ENDBRANCH   6   7
ENDBRANCH   5   6
BRANCH   5  15
HETATM   15  C13 UNL     1      49.251 -45.682  48.958  1.00  0.00     0.033 A 
HETATM   16  C14 UNL     1      49.945 -44.772  49.704  1.00  0.00     0.030 A 
HETATM   17  C15 UNL     1      49.649 -43.417  49.683  1.00  0.00     0.020 A 
HETATM   18  C16 UNL     1      48.642 -42.924  48.910  1.00  0.00     0.035 A 
HETATM   19  C17 UNL     1      48.342 -41.565  48.882  1.00  0.00     0.119 A 
HETATM   20  C25 UNL     1      47.929 -43.819  48.150  1.00  0.00     0.049 A 
HETATM   21  N2  UNL     1      49.068 -40.810  49.627  1.00  0.00    -0.342 N 
HETATM   22  N7  UNL     1      47.342 -41.126  48.103  1.00  0.00    -0.338 N 
ATOM     23  H2  UNL     1      49.801 -41.256  50.177  1.00  0.00     0.167 HD
HETATM   24  C24 UNL     1      46.659 -42.020  47.369  1.00  0.00     0.182 A 
ATOM     25  H7  UNL     1      47.105 -40.134  48.069  1.00  0.00     0.168 HD
HETATM   26  N8  UNL     1      46.934 -43.335  47.383  1.00  0.00    -0.351 N 
ATOM     27  H8  UNL     1      46.384 -43.973  46.806  1.00  0.00     0.166 HD
HETATM   28  C26 UNL     1      48.232 -45.178  48.176  1.00  0.00     0.059 A 
BRANCH  21  29
HETATM   29  C18 UNL     1      48.927 -39.403  49.742  1.00  0.00     0.038 A 
HETATM   30  C19 UNL     1      49.675 -38.561  48.965  1.00  0.00     0.046 A 
HETATM   31  C20 UNL     1      49.502 -37.189  49.107  1.00  0.00     0.092 A 
HETATM   32  N3  UNL     1      48.634 -36.636  49.971  1.00  0.00    -0.352 N 
HETATM   33  C21 UNL     1      47.892 -37.465  50.740  1.00  0.00     0.109 A 
ATOM     34  H3  UNL     1      48.538 -35.623  50.044  1.00  0.00     0.166 HD
HETATM   35  C23 UNL     1      48.034 -38.847  50.630  1.00  0.00     0.078 A 
BRANCH  33  36
HETATM   36  N4  UNL     1      47.034 -37.024  51.595  1.00  0.00    -0.317 N 
HETATM   37  C22 UNL     1      46.838 -35.676  51.917  1.00  0.00     0.187 C 
HETATM   38  N5  UNL     1      45.735 -35.111  51.558  1.00  0.00    -0.373 N 
HETATM   39  N6  UNL     1      47.800 -34.934  52.614  1.00  0.00    -0.064 NA
ATOM     40  H52 UNL     1      45.034 -35.652  51.050  1.00  0.00     0.158 HD
ATOM     41  H51 UNL     1      45.592 -34.129  51.792  1.00  0.00     0.158 HD
ATOM     42  H4  UNL     1      46.453 -37.711  52.074  1.00  0.00     0.170 HD
ENDBRANCH  33  36
ENDBRANCH  21  29
ENDBRANCH   5  15
ENDBRANCH   4   5
ENDBRANCH   3   4
TORSDOF 8
ENDMDL
MODEL 3
REMARK VINA RESULT: -7.932820318      3.084      4.974
REMARK  8 active torsions:
REMARK  status: ('A' for Active; 'I' for Inactive)
REMARK    1  A    between atoms: C3_3  and  C4_4 
REMARK    2  A    between atoms: C4_4  and  N1_5 
REMARK    3  A    between atoms: N1_5  and  C5_6 
REMARK    4  A    between atoms: N1_5  and  C13_15 
REMARK    5  A    between atoms: C5_6  and  C6_7 
REMARK    6  A    between atoms: C9_10  and  O1_11 
REMARK    7  A    between atoms: N2_20  and  C18_22 
REMARK    8  A    between atoms: C21_27  and  N4_28 
REMARK       I    between atoms: N4_28  and  C22_30 
ROOT
HETATM    1  C1  UNL     1      45.989 -46.557  52.878  1.00  0.00     0.112 C 
HETATM    2  C2  UNL     1      46.859 -45.433  52.528  1.00  0.00    -0.109 C 
HETATM    3  C3  UNL     1      47.589 -44.516  52.247  1.00  0.00    -0.087 C 
ENDROOT
BRANCH   3   4
HETATM    4  C4  UNL     1      48.498 -43.406  51.910  1.00  0.00     0.217 C 
BRANCH   4   5
HETATM    5  N1  UNL     1      48.427 -43.097  50.496  1.00  0.00    -0.366 N 
BRANCH   5   6
HETATM    6  C5  UNL     1      48.278 -44.263  49.637  1.00  0.00     0.162 C 
BRANCH   6   7
HETATM    7  C6  UNL     1      49.580 -44.945  49.421  1.00  0.00    -0.040 A 
HETATM    8  C7  UNL     1      49.836 -46.197  49.929  1.00  0.00     0.011 A 
HETATM    9  C8  UNL     1      51.057 -46.789  49.713  1.00  0.00     0.037 A 
HETATM   10  C9  UNL     1      52.055 -46.165  48.993  1.00  0.00     0.068 A 
HETATM   11  C11 UNL     1      51.807 -44.920  48.485  1.00  0.00     0.037 A 
HETATM   12  C12 UNL     1      50.579 -44.327  48.704  1.00  0.00     0.011 A 
BRANCH  10  13
HETATM   13  O1  UNL     1      53.254 -46.840  48.828  1.00  0.00    -0.356 OA
HETATM   14  C10 UNL     1      54.206 -46.483  47.846  1.00  0.00     0.210 C 
ENDBRANCH  10  13
ENDBRANCH   6   7
ENDBRANCH   5   6
BRANCH   5  15
HETATM   15  C13 UNL     1      48.491 -41.778  50.011  1.00  0.00     0.033 A 
HETATM   16  C14 UNL     1      48.875 -41.481  48.733  1.00  0.00     0.030 A 
HETATM   17  C15 UNL     1      48.920 -40.180  48.256  1.00  0.00     0.020 A 
HETATM   18  C16 UNL     1      48.580 -39.125  49.046  1.00  0.00     0.035 A 
HETATM   19  C17 UNL     1      48.619 -37.816  48.573  1.00  0.00     0.119 A 
HETATM   20  C25 UNL     1      48.190 -39.396  50.335  1.00  0.00     0.049 A 
HETATM   21  N2  UNL     1      48.995 -37.667  47.353  1.00  0.00    -0.342 N 
HETATM   22  N7  UNL     1      48.273 -36.808  49.388  1.00  0.00    -0.338 N 
ATOM     23  H2  UNL     1      49.235 -38.508  46.828  1.00  0.00     0.167 HD
HETATM   24  C24 UNL     1      47.896 -37.098  50.643  1.00  0.00     0.182 A 
ATOM     25  H7  UNL     1      48.296 -35.842  49.060  1.00  0.00     0.168 HD
HETATM   26  N8  UNL     1      47.851 -38.355  51.119  1.00  0.00    -0.351 N 
ATOM     27  H8  UNL     1      47.557 -38.521  52.081  1.00  0.00     0.166 HD
HETATM   28  C26 UNL     1      48.148 -40.705  50.807  1.00  0.00     0.059 A 
BRANCH  21  29
HETATM   29  C18 UNL     1      49.103 -36.422  46.681  1.00  0.00     0.038 A 
HETATM   30  C19 UNL     1      48.217 -36.083  45.695  1.00  0.00     0.046 A 
HETATM   31  C20 UNL     1      48.356 -34.851  45.064  1.00  0.00     0.092 A 
HETATM   32  N3  UNL     1      49.319 -33.966  45.371  1.00  0.00    -0.352 N 
HETATM   33  C21 UNL     1      50.196 -34.297  46.345  1.00  0.00     0.109 A 
ATOM     34  H3  UNL     1      49.386 -33.073  44.884  1.00  0.00     0.166 HD
HETATM   35  C23 UNL     1      50.093 -35.522  47.002  1.00  0.00     0.078 A 
BRANCH  33  36
HETATM   36  N4  UNL     1      51.151 -33.511  46.707  1.00  0.00    -0.317 N 
HETATM   37  C22 UNL     1      52.105 -32.955  45.847  1.00  0.00     0.187 C 
HETATM   38  N5  UNL     1      52.072 -31.685  45.628  1.00  0.00    -0.373 N 
HETATM   39  N6  UNL     1      53.087 -33.738  45.226  1.00  0.00    -0.064 NA
ATOM     40  H52 UNL     1      51.357 -31.114  46.080  1.00  0.00     0.158 HD
ATOM     41  H51 UNL     1      52.768 -31.280  45.001  1.00  0.00     0.158 HD
ATOM     42  H4  UNL     1      51.216 -33.274  47.697  1.00  0.00     0.170 HD
ENDBRANCH  33  36
ENDBRANCH  21  29
ENDBRANCH   5  15
ENDBRANCH   4   5
ENDBRANCH   3   4
TORSDOF 8
ENDMDL
MODEL 4
REMARK VINA RESULT: -7.804080478      2.874      5.684
REMARK  8 active torsions:
REMARK  status: ('A' for Active; 'I' for Inactive)
REMARK    1  A    between atoms: C3_3  and  C4_4 
REMARK    2  A    between atoms: C4_4  and  N1_5 
REMARK    3  A    between atoms: N1_5  and  C5_6 
REMARK    4  A    between atoms: N1_5  and  C13_15 
REMARK    5  A    between atoms: C5_6  and  C6_7 
REMARK    6  A    between atoms: C9_10  and  O1_11 
REMARK    7  A    between atoms: N2_20  and  C18_22 
REMARK    8  A    between atoms: C21_27  and  N4_28 
REMARK       I    between atoms: N4_28  and  C22_30 
ROOT
HETATM    1  C1  UNL     1      53.997 -46.161  48.222  1.00  0.00     0.112 C 
HETATM    2  C2  UNL     1      52.602 -46.568  48.388  1.00  0.00    -0.109 C 
HETATM    3  C3  UNL     1      51.457 -46.919  48.529  1.00  0.00    -0.087 C 
ENDROOT
BRANCH   3   4
HETATM    4  C4  UNL     1      50.065 -47.366  48.711  1.00  0.00     0.217 C 
BRANCH   4   5
HETATM    5  N1  UNL     1      49.379 -46.528  49.673  1.00  0.00    -0.366 N 
BRANCH   5   6
HETATM    6  C5  UNL     1      48.996 -47.214  50.899  1.00  0.00     0.162 C 
BRANCH   6   7
HETATM    7  C6  UNL     1      47.557 -47.013  51.203  1.00  0.00    -0.040 A 
HETATM    8  C7  UNL     1      47.137 -46.142  52.181  1.00  0.00     0.011 A 
HETATM    9  C8  UNL     1      45.795 -45.991  52.437  1.00  0.00     0.037 A 
HETATM   10  C9  UNL     1      44.834 -46.692  51.738  1.00  0.00     0.068 A 
HETATM   11  C11 UNL     1      45.244 -47.560  50.764  1.00  0.00     0.037 A 
HETATM   12  C12 UNL     1      46.593 -47.710  50.509  1.00  0.00     0.011 A 
BRANCH  10  13
HETATM   13  O1  UNL     1      43.506 -46.474  52.067  1.00  0.00    -0.356 OA
HETATM   14  C10 UNL     1      42.497 -46.283  51.095  1.00  0.00     0.210 C 
ENDBRANCH  10  13
ENDBRANCH   6   7
ENDBRANCH   5   6
BRANCH   5  15
HETATM   15  C13 UNL     1      49.118 -45.166  49.432  1.00  0.00     0.033 A 
HETATM   16  C14 UNL     1      49.904 -44.166  49.931  1.00  0.00     0.030 A 
HETATM   17  C15 UNL     1      49.650 -42.826  49.676  1.00  0.00     0.020 A 
HETATM   18  C16 UNL     1      48.594 -42.440  48.909  1.00  0.00     0.035 A 
HETATM   19  C17 UNL     1      48.336 -41.098  48.646  1.00  0.00     0.119 A 
HETATM   20  C25 UNL     1      47.788 -43.426  48.394  1.00  0.00     0.049 A 
HETATM   21  N2  UNL     1      49.149 -40.252  49.171  1.00  0.00    -0.342 N 
HETATM   22  N7  UNL     1      47.284 -40.765  47.882  1.00  0.00    -0.338 N 
ATOM     23  H2  UNL     1      49.914 -40.621  49.734  1.00  0.00     0.167 HD
HETATM   24  C24 UNL     1      46.511 -41.746  47.391  1.00  0.00     0.182 A 
ATOM     25  H7  UNL     1      47.077 -39.787  47.679  1.00  0.00     0.168 HD
HETATM   26  N8  UNL     1      46.744 -43.048  47.633  1.00  0.00    -0.351 N 
ATOM     27  H8  UNL     1      46.125 -43.755  47.236  1.00  0.00     0.166 HD
HETATM   28  C26 UNL     1      48.049 -44.769  48.655  1.00  0.00     0.059 A 
BRANCH  21  29
HETATM   29  C18 UNL     1      49.063 -38.843  49.026  1.00  0.00     0.038 A 
HETATM   30  C19 UNL     1      48.562 -38.067  50.035  1.00  0.00     0.046 A 
HETATM   31  C20 UNL     1      48.499 -36.690  49.854  1.00  0.00     0.092 A 
HETATM   32  N3  UNL     1      48.908 -36.071  48.733  1.00  0.00    -0.352 N 
HETATM   33  C21 UNL     1      49.404 -36.834  47.733  1.00  0.00     0.109 A 
ATOM     34  H3  UNL     1      48.845 -35.057  48.640  1.00  0.00     0.166 HD
HETATM   35  C23 UNL     1      49.484 -38.218  47.874  1.00  0.00     0.078 A 
BRANCH  33  36
HETATM   36  N4  UNL     1      49.821 -36.327  46.624  1.00  0.00    -0.317 N 
HETATM   37  C22 UNL     1      50.023 -34.962  46.389  1.00  0.00     0.187 C 
HETATM   38  N5  UNL     1      51.231 -34.535  46.236  1.00  0.00    -0.373 N 
HETATM   39  N6  UNL     1      48.956 -34.057  46.314  1.00  0.00    -0.064 NA
ATOM     40  H52 UNL     1      52.008 -35.195  46.290  1.00  0.00     0.158 HD
ATOM     41  H51 UNL     1      51.379 -33.541  46.065  1.00  0.00     0.158 HD
ATOM     42  H4  UNL     1      50.018 -36.970  45.858  1.00  0.00     0.170 HD
ENDBRANCH  33  36
ENDBRANCH  21  29
ENDBRANCH   5  15
ENDBRANCH   4   5
ENDBRANCH   3   4
TORSDOF 8
ENDMDL
MODEL 5
REMARK VINA RESULT: -7.605219160      3.843      9.303
REMARK  8 active torsions:
REMARK  status: ('A' for Active; 'I' for Inactive)
REMARK    1  A    between atoms: C3_3  and  C4_4 
REMARK    2  A    between atoms: C4_4  and  N1_5 
REMARK    3  A    between atoms: N1_5  and  C5_6 
REMARK    4  A    between atoms: N1_5  and  C13_15 
REMARK    5  A    between atoms: C5_6  and  C6_7 
REMARK    6  A    between atoms: C9_10  and  O1_11 
REMARK    7  A    between atoms: N2_20  and  C18_22 
REMARK    8  A    between atoms: C21_27  and  N4_28 
REMARK       I    between atoms: N4_28  and  C22_30 
ROOT
HETATM    1  C1  UNL     1      49.889 -34.980  53.056  1.00  0.00     0.112 C 
HETATM    2  C2  UNL     1      49.193 -35.684  51.979  1.00  0.00    -0.109 C 
HETATM    3  C3  UNL     1      48.624 -36.253  51.080  1.00  0.00    -0.087 C 
ENDROOT
BRANCH   3   4
HETATM    4  C4  UNL     1      47.937 -36.932  49.969  1.00  0.00     0.217 C 
BRANCH   4   5
HETATM    5  N1  UNL     1      48.769 -37.981  49.416  1.00  0.00    -0.366 N 
BRANCH   5   6
HETATM    6  C5  UNL     1      49.899 -37.497  48.633  1.00  0.00     0.162 C 
BRANCH   6   7
HETATM    7  C6  UNL     1      49.443 -36.753  47.432  1.00  0.00    -0.040 A 
HETATM    8  C7  UNL     1      49.739 -35.423  47.246  1.00  0.00     0.011 A 
HETATM    9  C8  UNL     1      49.291 -34.769  46.124  1.00  0.00     0.037 A 
HETATM   10  C9  UNL     1      48.541 -35.407  45.157  1.00  0.00     0.068 A 
HETATM   11  C11 UNL     1      48.244 -36.729  45.334  1.00  0.00     0.037 A 
HETATM   12  C12 UNL     1      48.695 -37.384  46.463  1.00  0.00     0.011 A 
BRANCH  10  13
HETATM   13  O1  UNL     1      48.134 -34.665  44.060  1.00  0.00    -0.356 OA
HETATM   14  C10 UNL     1      48.262 -35.129  42.731  1.00  0.00     0.210 C 
ENDBRANCH  10  13
ENDBRANCH   6   7
ENDBRANCH   5   6
BRANCH   5  15
HETATM   15  C13 UNL     1      48.502 -39.345  49.631  1.00  0.00     0.033 A 
HETATM   16  C14 UNL     1      48.460 -39.900  50.879  1.00  0.00     0.030 A 
HETATM   17  C15 UNL     1      48.180 -41.243  51.084  1.00  0.00     0.020 A 
HETATM   18  C16 UNL     1      47.930 -42.081  50.042  1.00  0.00     0.035 A 
HETATM   19  C17 UNL     1      47.645 -43.429  50.241  1.00  0.00     0.119 A 
HETATM   20  C25 UNL     1      47.967 -41.549  48.776  1.00  0.00     0.049 A 
HETATM   21  N2  UNL     1      47.633 -43.830  51.462  1.00  0.00    -0.342 N 
HETATM   22  N7  UNL     1      47.404 -44.217  49.182  1.00  0.00    -0.338 N 
ATOM     23  H2  UNL     1      47.831 -43.140  52.186  1.00  0.00     0.167 HD
HETATM   24  C24 UNL     1      47.445 -43.673  47.954  1.00  0.00     0.182 A 
ATOM     25  H7  UNL     1      47.194 -45.207  49.306  1.00  0.00     0.168 HD
HETATM   26  N8  UNL     1      47.719 -42.375  47.742  1.00  0.00    -0.351 N 
ATOM     27  H8  UNL     1      47.738 -42.011  46.789  1.00  0.00     0.166 HD
HETATM   28  C26 UNL     1      48.249 -40.200  48.577  1.00  0.00     0.059 A 
BRANCH  21  29
HETATM   29  C18 UNL     1      47.364 -45.159  51.879  1.00  0.00     0.038 A 
HETATM   30  C19 UNL     1      46.132 -45.503  52.363  1.00  0.00     0.046 A 
HETATM   31  C20 UNL     1      45.910 -46.818  52.758  1.00  0.00     0.092 A 
HETATM   32  N3  UNL     1      46.845 -47.781  52.689  1.00  0.00    -0.352 N 
HETATM   33  C21 UNL     1      48.065 -47.445  52.210  1.00  0.00     0.109 A 
ATOM     34  H3  UNL     1      46.642 -48.734  52.988  1.00  0.00     0.166 HD
HETATM   35  C23 UNL     1      48.330 -46.138  51.805  1.00  0.00     0.078 A 
BRANCH  33  36
HETATM   36  N4  UNL     1      49.022 -48.302  52.106  1.00  0.00    -0.317 N 
HETATM   37  C22 UNL     1      50.064 -48.235  51.173  1.00  0.00     0.187 C 
HETATM   38  N5  UNL     1      51.257 -47.990  51.598  1.00  0.00    -0.373 N 
HETATM   39  N6  UNL     1      49.844 -48.428  49.803  1.00  0.00    -0.064 NA
ATOM     40  H52 UNL     1      51.417 -47.850  52.596  1.00  0.00     0.158 HD
ATOM     41  H51 UNL     1      52.016 -47.942  50.919  1.00  0.00     0.158 HD
ATOM     42  H4  UNL     1      49.021 -49.089  52.754  1.00  0.00     0.170 HD
ENDBRANCH  33  36
ENDBRANCH  21  29
ENDBRANCH   5  15
ENDBRANCH   4   5
ENDBRANCH   3   4
TORSDOF 8
ENDMDL
