MODEL 1
REMARK VINA RESULT: -6.053374494      0.000      0.000
REMARK  10 active torsions:
REMARK  status: ('A' for Active; 'I' for Inactive)
REMARK    1  A    between atoms: C2_2  and  C3_3 
REMARK    2  A    between atoms: C2_2  and  C6_8 
REMARK    3  A    between atoms: C3_3  and  C4_4 
REMARK    4  A    between atoms: C4_4  and  C5_5 
REMARK    5  A    between atoms: C5_5  and  O1_6 
REMARK    6  A    between atoms: C12_14  and  C13_15 
REMARK    7  A    between atoms: C13_15  and  O2_16 
REMARK    8  A    between atoms: C22_26  and  O3_27 
REMARK    9  A    between atoms: C25_31  and  O4_32 
REMARK   10  A    between atoms: C27_34  and  O5_35 
ROOT
HETATM    1  C6  UNL     1      47.575 -43.509  48.690  1.00  0.00     0.025 C 
HETATM    2  C7  UNL     1      48.483 -44.225  47.814  1.00  0.00    -0.009 C 
HETATM    3  C8  UNL     1      49.855 -43.700  47.547  1.00  0.00     0.011 C 
HETATM    4  C9  UNL     1      48.561 -45.622  48.387  1.00  0.00     0.022 C 
HETATM    5  C10 UNL     1      47.407 -45.858  49.318  1.00  0.00     0.023 C 
HETATM    6  C11 UNL     1      46.168 -46.147  48.558  1.00  0.00    -0.055 C 
HETATM    7  C12 UNL     1      46.005 -46.992  47.393  1.00  0.00    -0.035 C 
HETATM    8  C14 UNL     1      44.653 -46.983  47.191  1.00  0.00    -0.012 C 
HETATM    9  C15 UNL     1      43.901 -46.172  48.166  1.00  0.00     0.013 C 
HETATM   10  C16 UNL     1      42.570 -46.746  48.422  1.00  0.00     0.015 C 
HETATM   11  C17 UNL     1      44.869 -46.208  49.333  1.00  0.00     0.023 C 
HETATM   12  C18 UNL     1      44.570 -47.374  50.152  1.00  0.00     0.010 C 
HETATM   13  C19 UNL     1      45.680 -48.054  50.825  1.00  0.00     0.015 C 
HETATM   14  C20 UNL     1      46.770 -47.255  51.368  1.00  0.00     0.015 C 
HETATM   15  C21 UNL     1      47.501 -48.237  52.316  1.00  0.00     0.021 C 
HETATM   16  C22 UNL     1      46.506 -46.061  52.184  1.00  0.00     0.136 C 
HETATM   17  C23 UNL     1      47.776 -45.295  52.092  1.00  0.00     0.047 C 
HETATM   18  C24 UNL     1      48.737 -46.181  51.405  1.00  0.00     0.050 C 
HETATM   19  C25 UNL     1      47.834 -46.829  50.332  1.00  0.00     0.082 C 
HETATM   20  C27 UNL     1      47.641 -44.071  51.173  1.00  0.00     0.130 C 
HETATM   21  C28 UNL     1      47.208 -44.403  49.823  1.00  0.00     0.039 C 
ENDROOT
BRANCH   1  22
HETATM   22  C2  UNL     1      47.933 -42.115  48.891  1.00  0.00    -0.084 C 
HETATM   23  C1  UNL     1      47.147 -41.273  48.181  1.00  0.00     0.015 C 
BRANCH  22  24
HETATM   24  C3  UNL     1      48.957 -41.486  49.714  1.00  0.00     0.036 C 
BRANCH  24  25
HETATM   25  C4  UNL     1      48.600 -40.231  50.475  1.00  0.00     0.030 C 
BRANCH  25  26
HETATM   26  C5  UNL     1      49.442 -39.047  50.113  1.00  0.00     0.164 C 
BRANCH  26  27
HETATM   27  O1  UNL     1      50.784 -39.434  50.058  1.00  0.00    -0.401 OA
ATOM     28  H1  UNL     1      51.263 -39.004  50.757  1.00  0.00     0.209 HD
ENDBRANCH  26  27
ENDBRANCH  25  26
ENDBRANCH  24  25
ENDBRANCH  22  24
ENDBRANCH   1  22
BRANCH  20  29
HETATM   29  O5  UNL     1      46.796 -43.269  51.933  1.00  0.00    -0.395 OA
ATOM     30  H5  UNL     1      46.437 -42.703  51.260  1.00  0.00     0.210 HD
ENDBRANCH  20  29
BRANCH  19  31
HETATM   31  O4  UNL     1      48.426 -47.959  50.012  1.00  0.00    -0.383 OA
HETATM   32  C26 UNL     1      49.655 -48.359  49.906  1.00  0.00     0.202 C 
ENDBRANCH  19  31
BRANCH   7  33
HETATM   33  C13 UNL     1      46.787 -47.760  46.401  1.00  0.00     0.202 C 
BRANCH  33  34
HETATM   34  O2  UNL     1      47.895 -48.433  46.846  1.00  0.00    -0.396 OA
ATOM     35  H2  UNL     1      47.942 -49.366  46.677  1.00  0.00     0.209 HD
ENDBRANCH  33  34
ENDBRANCH   7  33
BRANCH  16  36
HETATM   36  O3  UNL     1      46.312 -46.360  53.555  1.00  0.00    -0.394 OA
ATOM     37  H3  UNL     1      46.707 -45.718  54.135  1.00  0.00     0.210 HD
ENDBRANCH  16  36
TORSDOF 10
ENDMDL
MODEL 2
REMARK VINA RESULT: -6.020183099      3.102      6.424
REMARK  10 active torsions:
REMARK  status: ('A' for Active; 'I' for Inactive)
REMARK    1  A    between atoms: C2_2  and  C3_3 
REMARK    2  A    between atoms: C2_2  and  C6_8 
REMARK    3  A    between atoms: C3_3  and  C4_4 
REMARK    4  A    between atoms: C4_4  and  C5_5 
REMARK    5  A    between atoms: C5_5  and  O1_6 
REMARK    6  A    between atoms: C12_14  and  C13_15 
REMARK    7  A    between atoms: C13_15  and  O2_16 
REMARK    8  A    between atoms: C22_26  and  O3_27 
REMARK    9  A    between atoms: C25_31  and  O4_32 
REMARK   10  A    between atoms: C27_34  and  O5_35 
ROOT
HETATM    1  C6  UNL     1      49.277 -40.051  49.355  1.00  0.00     0.025 C 
HETATM    2  C7  UNL     1      47.988 -40.282  49.982  1.00  0.00    -0.009 C 
HETATM    3  C8  UNL     1      47.113 -39.136  50.367  1.00  0.00     0.011 C 
HETATM    4  C9  UNL     1      47.254 -41.206  49.036  1.00  0.00     0.022 C 
HETATM    5  C10 UNL     1      48.227 -41.851  48.093  1.00  0.00     0.023 C 
HETATM    6  C11 UNL     1      48.945 -42.963  48.757  1.00  0.00    -0.055 C 
HETATM    7  C12 UNL     1      48.409 -43.980  49.638  1.00  0.00    -0.035 C 
HETATM    8  C14 UNL     1      49.481 -44.801  49.852  1.00  0.00    -0.012 C 
HETATM    9  C15 UNL     1      50.712 -44.382  49.156  1.00  0.00     0.013 C 
HETATM   10  C16 UNL     1      51.525 -45.545  48.766  1.00  0.00     0.015 C 
HETATM   11  C17 UNL     1      50.106 -43.591  48.014  1.00  0.00     0.023 C 
HETATM   12  C18 UNL     1      49.849 -44.496  46.902  1.00  0.00     0.010 C 
HETATM   13  C19 UNL     1      48.685 -44.237  46.050  1.00  0.00     0.015 C 
HETATM   14  C20 UNL     1      48.331 -42.858  45.740  1.00  0.00     0.015 C 
HETATM   15  C21 UNL     1      47.358 -42.995  44.543  1.00  0.00     0.021 C 
HETATM   16  C22 UNL     1      49.348 -41.893  45.298  1.00  0.00     0.136 C 
HETATM   17  C23 UNL     1      48.719 -40.578  45.585  1.00  0.00     0.047 C 
HETATM   18  C24 UNL     1      47.327 -40.870  45.982  1.00  0.00     0.050 C 
HETATM   19  C25 UNL     1      47.518 -42.140  46.840  1.00  0.00     0.082 C 
HETATM   20  C27 UNL     1      49.345 -39.900  46.814  1.00  0.00     0.130 C 
HETATM   21  C28 UNL     1      49.279 -40.712  48.022  1.00  0.00     0.039 C 
ENDROOT
BRANCH   1  22
HETATM   22  C2  UNL     1      49.789 -38.704  49.552  1.00  0.00    -0.084 C 
HETATM   23  C1  UNL     1      50.104 -38.456  50.844  1.00  0.00     0.015 C 
BRANCH  22  24
HETATM   24  C3  UNL     1      50.027 -37.612  48.618  1.00  0.00     0.036 C 
BRANCH  24  25
HETATM   25  C4  UNL     1      48.909 -36.631  48.357  1.00  0.00     0.030 C 
BRANCH  25  26
HETATM   26  C5  UNL     1      48.888 -36.100  46.957  1.00  0.00     0.164 C 
BRANCH  26  27
HETATM   27  O1  UNL     1      50.025 -36.545  46.277  1.00  0.00    -0.401 OA
ATOM     28  H1  UNL     1      50.119 -37.481  46.402  1.00  0.00     0.209 HD
ENDBRANCH  26  27
ENDBRANCH  25  26
ENDBRANCH  24  25
ENDBRANCH  22  24
ENDBRANCH   1  22
BRANCH  20  29
HETATM   29  O5  UNL     1      50.609 -39.590  46.323  1.00  0.00    -0.395 OA
ATOM     30  H5  UNL     1      50.593 -38.643  46.379  1.00  0.00     0.210 HD
ENDBRANCH  20  29
BRANCH  19  31
HETATM   31  O4  UNL     1      46.356 -42.755  46.819  1.00  0.00    -0.383 OA
HETATM   32  C26 UNL     1      45.155 -42.446  46.441  1.00  0.00     0.202 C 
ENDBRANCH  19  31
BRANCH   7  33
HETATM   33  C13 UNL     1      47.175 -44.352  50.362  1.00  0.00     0.202 C 
BRANCH  33  34
HETATM   34  O2  UNL     1      46.840 -43.615  51.469  1.00  0.00    -0.396 OA
ATOM     35  H2  UNL     1      46.145 -42.973  51.378  1.00  0.00     0.209 HD
ENDBRANCH  33  34
ENDBRANCH   7  33
BRANCH  16  36
HETATM   36  O3  UNL     1      49.580 -41.934  43.901  1.00  0.00    -0.394 OA
ATOM     37  H3  UNL     1      48.883 -42.368  43.421  1.00  0.00     0.210 HD
ENDBRANCH  16  36
TORSDOF 10
ENDMDL
MODEL 3
REMARK VINA RESULT: -5.955858148      1.918      3.425
REMARK  10 active torsions:
REMARK  status: ('A' for Active; 'I' for Inactive)
REMARK    1  A    between atoms: C2_2  and  C3_3 
REMARK    2  A    between atoms: C2_2  and  C6_8 
REMARK    3  A    between atoms: C3_3  and  C4_4 
REMARK    4  A    between atoms: C4_4  and  C5_5 
REMARK    5  A    between atoms: C5_5  and  O1_6 
REMARK    6  A    between atoms: C12_14  and  C13_15 
REMARK    7  A    between atoms: C13_15  and  O2_16 
REMARK    8  A    between atoms: C22_26  and  O3_27 
REMARK    9  A    between atoms: C25_31  and  O4_32 
REMARK   10  A    between atoms: C27_34  and  O5_35 
ROOT
HETATM    1  C6  UNL     1      47.508 -42.710  48.923  1.00  0.00     0.025 C 
HETATM    2  C7  UNL     1      46.649 -43.033  47.799  1.00  0.00    -0.009 C 
HETATM    3  C8  UNL     1      46.688 -42.213  46.552  1.00  0.00     0.011 C 
HETATM    4  C9  UNL     1      46.948 -44.481  47.482  1.00  0.00     0.022 C 
HETATM    5  C10 UNL     1      47.641 -45.127  48.646  1.00  0.00     0.023 C 
HETATM    6  C11 UNL     1      46.671 -45.471  49.711  1.00  0.00    -0.055 C 
HETATM    7  C12 UNL     1      45.353 -46.057  49.571  1.00  0.00    -0.035 C 
HETATM    8  C14 UNL     1      44.965 -46.260  50.867  1.00  0.00    -0.012 C 
HETATM    9  C15 UNL     1      45.961 -45.838  51.869  1.00  0.00     0.013 C 
HETATM   10  C16 UNL     1      45.909 -46.694  53.065  1.00  0.00     0.015 C 
HETATM   11  C17 UNL     1      47.225 -45.944  51.039  1.00  0.00     0.023 C 
HETATM   12  C18 UNL     1      47.753 -47.295  51.162  1.00  0.00     0.010 C 
HETATM   13  C19 UNL     1      48.434 -47.883  50.005  1.00  0.00     0.015 C 
HETATM   14  C20 UNL     1      49.271 -47.031  49.172  1.00  0.00     0.015 C 
HETATM   15  C21 UNL     1      50.107 -48.040  48.348  1.00  0.00     0.021 C 
HETATM   16  C22 UNL     1      50.255 -46.115  49.767  1.00  0.00     0.136 C 
HETATM   17  C23 UNL     1      50.496 -45.122  48.688  1.00  0.00     0.047 C 
HETATM   18  C24 UNL     1      49.795 -45.640  47.495  1.00  0.00     0.050 C 
HETATM   19  C25 UNL     1      48.499 -46.197  48.125  1.00  0.00     0.082 C 
HETATM   20  C27 UNL     1      49.820 -43.776  48.988  1.00  0.00     0.130 C 
HETATM   21  C28 UNL     1      48.383 -43.881  49.202  1.00  0.00     0.039 C 
ENDROOT
BRANCH   1  22
HETATM   22  C2  UNL     1      48.023 -41.350  48.893  1.00  0.00    -0.084 C 
HETATM   23  C1  UNL     1      47.412 -40.547  49.796  1.00  0.00     0.015 C 
BRANCH  22  24
HETATM   24  C3  UNL     1      49.065 -40.726  48.090  1.00  0.00     0.036 C 
BRANCH  24  25
HETATM   25  C4  UNL     1      49.840 -39.574  48.685  1.00  0.00     0.030 C 
BRANCH  25  26
HETATM   26  C5  UNL     1      49.681 -38.289  47.933  1.00  0.00     0.164 C 
BRANCH  26  27
HETATM   27  O1  UNL     1      50.784 -37.468  48.182  1.00  0.00    -0.401 OA
ATOM     28  H1  UNL     1      51.518 -37.759  47.654  1.00  0.00     0.209 HD
ENDBRANCH  26  27
ENDBRANCH  25  26
ENDBRANCH  24  25
ENDBRANCH  22  24
ENDBRANCH   1  22
BRANCH  20  29
HETATM   29  O5  UNL     1      50.591 -43.332  50.058  1.00  0.00    -0.395 OA
ATOM     30  H5  UNL     1      51.437 -43.233  49.638  1.00  0.00     0.210 HD
ENDBRANCH  20  29
BRANCH  19  31
HETATM   31  O4  UNL     1      48.056 -47.098  47.276  1.00  0.00    -0.383 OA
HETATM   32  C26 UNL     1      48.031 -47.215  45.985  1.00  0.00     0.202 C 
ENDBRANCH  19  31
BRANCH   7  33
HETATM   33  C13 UNL     1      44.354 -46.429  48.547  1.00  0.00     0.202 C 
BRANCH  33  34
HETATM   34  O2  UNL     1      43.133 -45.809  48.594  1.00  0.00    -0.396 OA
ATOM     35  H2  UNL     1      42.369 -46.349  48.760  1.00  0.00     0.209 HD
ENDBRANCH  33  34
ENDBRANCH   7  33
BRANCH  16  36
HETATM   36  O3  UNL     1      51.501 -46.737  50.030  1.00  0.00    -0.394 OA
ATOM     37  H3  UNL     1      51.445 -47.418  50.690  1.00  0.00     0.210 HD
ENDBRANCH  16  36
TORSDOF 10
ENDMDL
MODEL 4
REMARK VINA RESULT: -5.837283666      2.926      5.181
REMARK  10 active torsions:
REMARK  status: ('A' for Active; 'I' for Inactive)
REMARK    1  A    between atoms: C2_2  and  C3_3 
REMARK    2  A    between atoms: C2_2  and  C6_8 
REMARK    3  A    between atoms: C3_3  and  C4_4 
REMARK    4  A    between atoms: C4_4  and  C5_5 
REMARK    5  A    between atoms: C5_5  and  O1_6 
REMARK    6  A    between atoms: C12_14  and  C13_15 
REMARK    7  A    between atoms: C13_15  and  O2_16 
REMARK    8  A    between atoms: C22_26  and  O3_27 
REMARK    9  A    between atoms: C25_31  and  O4_32 
REMARK   10  A    between atoms: C27_34  and  O5_35 
ROOT
HETATM    1  C6  UNL     1      51.105 -45.671  48.077  1.00  0.00     0.025 C 
HETATM    2  C7  UNL     1      50.269 -45.679  46.890  1.00  0.00    -0.009 C 
HETATM    3  C8  UNL     1      50.667 -46.465  45.685  1.00  0.00     0.011 C 
HETATM    4  C9  UNL     1      48.906 -46.117  47.374  1.00  0.00     0.022 C 
HETATM    5  C10 UNL     1      48.817 -45.959  48.865  1.00  0.00     0.023 C 
HETATM    6  C11 UNL     1      48.586 -44.543  49.231  1.00  0.00    -0.055 C 
HETATM    7  C12 UNL     1      47.691 -43.588  48.609  1.00  0.00    -0.035 C 
HETATM    8  C14 UNL     1      47.797 -42.491  49.419  1.00  0.00    -0.012 C 
HETATM    9  C15 UNL     1      48.720 -42.666  50.555  1.00  0.00     0.013 C 
HETATM   10  C16 UNL     1      48.271 -41.900  51.729  1.00  0.00     0.015 C 
HETATM   11  C17 UNL     1      48.673 -44.174  50.697  1.00  0.00     0.023 C 
HETATM   12  C18 UNL     1      47.584 -44.526  51.597  1.00  0.00     0.010 C 
HETATM   13  C19 UNL     1      46.856 -45.775  51.354  1.00  0.00     0.015 C 
HETATM   14  C20 UNL     1      47.595 -46.941  50.890  1.00  0.00     0.015 C 
HETATM   15  C21 UNL     1      46.613 -48.113  51.137  1.00  0.00     0.021 C 
HETATM   16  C22 UNL     1      48.851 -47.353  51.534  1.00  0.00     0.136 C 
HETATM   17  C23 UNL     1      49.506 -48.196  50.500  1.00  0.00     0.047 C 
HETATM   18  C24 UNL     1      48.508 -48.371  49.426  1.00  0.00     0.050 C 
HETATM   19  C25 UNL     1      47.874 -46.964  49.370  1.00  0.00     0.082 C 
HETATM   20  C27 UNL     1      50.682 -47.469  49.830  1.00  0.00     0.130 C 
HETATM   21  C28 UNL     1      50.310 -46.201  49.218  1.00  0.00     0.039 C 
ENDROOT
BRANCH   1  22
HETATM   22  C2  UNL     1      52.476 -46.089  47.830  1.00  0.00    -0.084 C 
HETATM   23  C1  UNL     1      53.375 -45.141  48.183  1.00  0.00     0.015 C 
BRANCH  22  24
HETATM   24  C3  UNL     1      53.030 -47.325  47.295  1.00  0.00     0.036 C 
BRANCH  24  25
HETATM   25  C4  UNL     1      54.517 -47.395  47.039  1.00  0.00     0.030 C 
BRANCH  25  26
HETATM   26  C5  UNL     1      54.893 -47.166  45.608  1.00  0.00     0.164 C 
BRANCH  26  27
HETATM   27  O1  UNL     1      55.656 -45.999  45.511  1.00  0.00    -0.401 OA
ATOM     28  H1  UNL     1      55.656 -45.698  44.611  1.00  0.00     0.209 HD
ENDBRANCH  26  27
ENDBRANCH  25  26
ENDBRANCH  24  25
ENDBRANCH  22  24
ENDBRANCH   1  22
BRANCH  20  29
HETATM   29  O5  UNL     1      51.592 -47.424  50.882  1.00  0.00    -0.395 OA
ATOM     30  H5  UNL     1      51.011 -47.246  51.611  1.00  0.00     0.210 HD
ENDBRANCH  20  29
BRANCH  19  31
HETATM   31  O4  UNL     1      46.684 -47.136  48.839  1.00  0.00    -0.383 OA
HETATM   32  C26 UNL     1      46.193 -47.883  47.899  1.00  0.00     0.202 C 
ENDBRANCH  19  31
BRANCH   7  33
HETATM   33  C13 UNL     1      46.808 -43.424  47.435  1.00  0.00     0.202 C 
BRANCH  33  34
HETATM   34  O2  UNL     1      45.862 -44.391  47.209  1.00  0.00    -0.396 OA
ATOM     35  H2  UNL     1      45.010 -44.278  47.614  1.00  0.00     0.209 HD
ENDBRANCH  33  34
ENDBRANCH   7  33
BRANCH  16  36
HETATM   36  O3  UNL     1      48.647 -48.183  52.664  1.00  0.00    -0.394 OA
ATOM     37  H3  UNL     1      48.276 -49.029  52.440  1.00  0.00     0.210 HD
ENDBRANCH  16  36
TORSDOF 10
ENDMDL
MODEL 5
REMARK VINA RESULT: -5.637099804      2.609      5.358
REMARK  10 active torsions:
REMARK  status: ('A' for Active; 'I' for Inactive)
REMARK    1  A    between atoms: C2_2  and  C3_3 
REMARK    2  A    between atoms: C2_2  and  C6_8 
REMARK    3  A    between atoms: C3_3  and  C4_4 
REMARK    4  A    between atoms: C4_4  and  C5_5 
REMARK    5  A    between atoms: C5_5  and  O1_6 
REMARK    6  A    between atoms: C12_14  and  C13_15 
REMARK    7  A    between atoms: C13_15  and  O2_16 
REMARK    8  A    between atoms: C22_26  and  O3_27 
REMARK    9  A    between atoms: C25_31  and  O4_32 
REMARK   10  A    between atoms: C27_34  and  O5_35 
ROOT
HETATM    1  C6  UNL     1      49.868 -46.577  48.386  1.00  0.00     0.025 C 
HETATM    2  C7  UNL     1      49.428 -46.934  49.722  1.00  0.00    -0.009 C 
HETATM    3  C8  UNL     1      50.409 -47.398  50.748  1.00  0.00     0.011 C 
HETATM    4  C9  UNL     1      48.680 -45.720  50.225  1.00  0.00     0.022 C 
HETATM    5  C10 UNL     1      48.312 -44.832  49.072  1.00  0.00     0.023 C 
HETATM    6  C11 UNL     1      47.133 -45.366  48.352  1.00  0.00    -0.055 C 
HETATM    7  C12 UNL     1      45.921 -45.932  48.908  1.00  0.00    -0.035 C 
HETATM    8  C14 UNL     1      45.143 -46.145  47.804  1.00  0.00    -0.012 C 
HETATM    9  C15 UNL     1      45.777 -45.749  46.533  1.00  0.00     0.013 C 
HETATM   10  C16 UNL     1      44.776 -45.268  45.566  1.00  0.00     0.015 C 
HETATM   11  C17 UNL     1      46.751 -44.706  47.044  1.00  0.00     0.023 C 
HETATM   12  C18 UNL     1      46.087 -43.411  47.055  1.00  0.00     0.010 C 
HETATM   13  C19 UNL     1      46.445 -42.454  48.106  1.00  0.00     0.015 C 
HETATM   14  C20 UNL     1      47.833 -42.373  48.541  1.00  0.00     0.015 C 
HETATM   15  C21 UNL     1      47.890 -41.035  49.318  1.00  0.00     0.021 C 
HETATM   16  C22 UNL     1      48.932 -42.298  47.569  1.00  0.00     0.136 C 
HETATM   17  C23 UNL     1      50.115 -42.738  48.354  1.00  0.00     0.047 C 
HETATM   18  C24 UNL     1      49.657 -42.844  49.754  1.00  0.00     0.050 C 
HETATM   19  C25 UNL     1      48.250 -43.452  49.566  1.00  0.00     0.082 C 
HETATM   20  C27 UNL     1      50.556 -44.160  47.975  1.00  0.00     0.130 C 
HETATM   21  C28 UNL     1      49.505 -45.157  48.132  1.00  0.00     0.039 C 
ENDROOT
BRANCH   1  22
HETATM   22  C2  UNL     1      51.173 -47.116  48.037  1.00  0.00    -0.084 C 
HETATM   23  C1  UNL     1      51.104 -48.028  47.039  1.00  0.00     0.015 C 
BRANCH  22  24
HETATM   24  C3  UNL     1      52.506 -46.839  48.553  1.00  0.00     0.036 C 
BRANCH  24  25
HETATM   25  C4  UNL     1      53.559 -46.336  47.595  1.00  0.00     0.030 C 
BRANCH  25  26
HETATM   26  C5  UNL     1      54.248 -45.089  48.057  1.00  0.00     0.164 C 
BRANCH  26  27
HETATM   27  O1  UNL     1      55.282 -45.430  48.933  1.00  0.00    -0.401 OA
ATOM     28  H1  UNL     1      55.815 -44.662  49.102  1.00  0.00     0.209 HD
ENDBRANCH  26  27
ENDBRANCH  25  26
ENDBRANCH  24  25
ENDBRANCH  22  24
ENDBRANCH   1  22
BRANCH  20  29
HETATM   29  O5  UNL     1      51.042 -43.947  46.689  1.00  0.00    -0.395 OA
ATOM     30  H5  UNL     1      51.583 -43.179  46.829  1.00  0.00     0.210 HD
ENDBRANCH  20  29
BRANCH  19  31
HETATM   31  O4  UNL     1      47.580 -43.126  50.649  1.00  0.00    -0.383 OA
HETATM   32  C26 UNL     1      47.843 -43.084  51.919  1.00  0.00     0.202 C 
ENDBRANCH  19  31
BRANCH   7  33
HETATM   33  C13 UNL     1      45.327 -46.364  50.191  1.00  0.00     0.202 C 
BRANCH  33  34
HETATM   34  O2  UNL     1      45.387 -45.491  51.247  1.00  0.00    -0.396 OA
ATOM     35  H2  UNL     1      44.806 -44.739  51.232  1.00  0.00     0.209 HD
ENDBRANCH  33  34
ENDBRANCH   7  33
BRANCH  16  36
HETATM   36  O3  UNL     1      49.202 -40.975  47.139  1.00  0.00    -0.394 OA
ATOM     37  H3  UNL     1      48.508 -40.364  47.360  1.00  0.00     0.210 HD
ENDBRANCH  16  36
TORSDOF 10
ENDMDL
