MODEL 1
REMARK VINA RESULT: -9.027087244      0.000      0.000
REMARK  7 active torsions:
REMARK  status: ('A' for Active; 'I' for Inactive)
REMARK    1  A    between atoms: C5_15  and  N6_16 
REMARK    2  A    between atoms: N7_19  and  C6_20 
REMARK    3  A    between atoms: C6_20  and  C7_21 
REMARK    4  A    between atoms: C7_21  and  O1_22 
REMARK    5  A    between atoms: C7_21  and  C8_24 
REMARK    6  A    between atoms: C8_24  and  O2_25 
REMARK    7  A    between atoms: C9_27  and  N8_28 
ROOT
HETATM    1  C1  UNL     1      31.449  22.020  -3.724  1.00  0.00     0.074 C 
HETATM    2  C2  UNL     1      31.092  20.736  -3.073  1.00  0.00     0.067 A 
HETATM    3  N1  UNL     1      29.951  20.623  -2.417  1.00  0.00    -0.287 N 
ATOM      4  H1  UNL     1      29.335  21.436  -2.374  1.00  0.00     0.187 HD
HETATM    5  N2  UNL     1      29.565  19.516  -1.814  1.00  0.00    -0.130 N 
ATOM      6  H2  UNL     1      28.672  19.485  -1.321  1.00  0.00     0.205 HD
HETATM    7  C3  UNL     1      30.366  18.407  -1.853  1.00  0.00     0.736 A 
HETATM    8  N3  UNL     1      31.511  18.498  -2.503  1.00  0.00     0.042 N 
HETATM    9  C4  UNL     1      32.377  17.458  -2.571  1.00  0.00     0.713 A 
HETATM   10  N4  UNL     1      33.453  17.465  -3.150  1.00  0.00    -0.233 N 
ATOM     11  H41 UNL     1      34.105  16.682  -3.202  1.00  0.00     0.174 HD
ATOM     12  H42 UNL     1      33.747  18.314  -3.632  1.00  0.00     0.174 HD
HETATM   13  N5  UNL     1      31.981  16.313  -1.921  1.00  0.00    -0.021 N 
ATOM     14  H5  UNL     1      32.597  15.500  -1.940  1.00  0.00     0.203 HD
HETATM   15  C5  UNL     1      30.833  16.226  -1.273  1.00  0.00     0.707 A 
HETATM   16  N7  UNL     1      30.005  17.281  -1.233  1.00  0.00    -0.009 N 
HETATM   17  C9  UNL     1      31.942  19.620  -3.134  1.00  0.00     0.164 A 
ENDROOT
BRANCH  16  18
HETATM   18  C6  UNL     1      28.741  17.154  -0.573  1.00  0.00     0.200 C 
BRANCH  18  19
HETATM   19  C7  UNL     1      27.538  16.980  -1.427  1.00  0.00     0.161 C 
BRANCH  19  20
HETATM   20  O1  UNL     1      26.318  17.155  -0.722  1.00  0.00    -0.392 OA
ATOM     21  H1  UNL     1      25.991  16.353  -0.332  1.00  0.00     0.210 HD
ENDBRANCH  19  20
BRANCH  19  22
HETATM   22  C8  UNL     1      27.385  15.671  -2.136  1.00  0.00     0.197 C 
BRANCH  22  23
HETATM   23  O2  UNL     1      27.648  14.590  -1.262  1.00  0.00    -0.398 OA
ATOM     24  H2  UNL     1      27.538  13.759  -1.709  1.00  0.00     0.209 HD
ENDBRANCH  22  23
ENDBRANCH  19  22
ENDBRANCH  18  19
ENDBRANCH  16  18
BRANCH  15  25
HETATM   25  N6  UNL     1      30.551  15.122  -0.674  1.00  0.00    -0.233 N 
ATOM     26  H62 UNL     1      29.670  14.634  -0.835  1.00  0.00     0.174 HD
ATOM     27  H61 UNL     1      31.228  14.744  -0.010  1.00  0.00     0.174 HD
ENDBRANCH  15  25
BRANCH  17  28
HETATM   28  N8  UNL     1      32.984  19.698  -3.726  1.00  0.00    -0.382 N 
ATOM     29  H82 UNL     1      33.855  20.025  -3.306  1.00  0.00     0.157 HD
ATOM     30  H81 UNL     1      33.029  19.424  -4.708  1.00  0.00     0.157 HD
ENDBRANCH  17  28
TORSDOF 7
ENDMDL
MODEL 2
REMARK VINA RESULT: -8.664056369      0.685      1.076
REMARK  7 active torsions:
REMARK  status: ('A' for Active; 'I' for Inactive)
REMARK    1  A    between atoms: C5_15  and  N6_16 
REMARK    2  A    between atoms: N7_19  and  C6_20 
REMARK    3  A    between atoms: C6_20  and  C7_21 
REMARK    4  A    between atoms: C7_21  and  O1_22 
REMARK    5  A    between atoms: C7_21  and  C8_24 
REMARK    6  A    between atoms: C8_24  and  O2_25 
REMARK    7  A    between atoms: C9_27  and  N8_28 
ROOT
HETATM    1  C1  UNL     1      31.372  21.983  -3.766  1.00  0.00     0.074 C 
HETATM    2  C2  UNL     1      31.046  20.700  -3.095  1.00  0.00     0.067 A 
HETATM    3  N1  UNL     1      29.913  20.574  -2.427  1.00  0.00    -0.287 N 
ATOM      4  H1  UNL     1      29.283  21.375  -2.389  1.00  0.00     0.187 HD
HETATM    5  N2  UNL     1      29.555  19.467  -1.807  1.00  0.00    -0.130 N 
ATOM      6  H2  UNL     1      28.668  19.426  -1.305  1.00  0.00     0.205 HD
HETATM    7  C3  UNL     1      30.377  18.374  -1.839  1.00  0.00     0.736 A 
HETATM    8  N3  UNL     1      31.514  18.479  -2.501  1.00  0.00     0.042 N 
HETATM    9  C4  UNL     1      32.399  17.455  -2.564  1.00  0.00     0.713 A 
HETATM   10  N4  UNL     1      33.469  17.475  -3.153  1.00  0.00    -0.233 N 
ATOM     11  H41 UNL     1      34.136  16.704  -3.201  1.00  0.00     0.174 HD
ATOM     12  H42 UNL     1      33.743  18.323  -3.648  1.00  0.00     0.174 HD
HETATM   13  N5  UNL     1      32.032  16.310  -1.896  1.00  0.00    -0.021 N 
ATOM     14  H5  UNL     1      32.663  15.510  -1.910  1.00  0.00     0.203 HD
HETATM   15  C5  UNL     1      30.891  16.210  -1.235  1.00  0.00     0.707 A 
HETATM   16  N7  UNL     1      30.044  17.249  -1.201  1.00  0.00    -0.009 N 
HETATM   17  C9  UNL     1      31.917  19.601  -3.150  1.00  0.00     0.164 A 
ENDROOT
BRANCH  16  18
HETATM   18  C6  UNL     1      28.788  17.107  -0.528  1.00  0.00     0.200 C 
BRANCH  18  19
HETATM   19  C7  UNL     1      27.702  16.395  -1.249  1.00  0.00     0.161 C 
BRANCH  19  20
HETATM   20  O1  UNL     1      27.671  15.001  -0.985  1.00  0.00    -0.392 OA
ATOM     21  H1  UNL     1      28.105  14.761  -0.174  1.00  0.00     0.210 HD
ENDBRANCH  19  20
BRANCH  19  22
HETATM   22  C8  UNL     1      27.687  16.501  -2.742  1.00  0.00     0.197 C 
BRANCH  22  23
HETATM   23  O2  UNL     1      27.210  17.768  -3.153  1.00  0.00    -0.398 OA
ATOM     24  H2  UNL     1      27.577  18.010  -3.995  1.00  0.00     0.209 HD
ENDBRANCH  22  23
ENDBRANCH  19  22
ENDBRANCH  18  19
ENDBRANCH  16  18
BRANCH  15  25
HETATM   25  N6  UNL     1      30.637  15.108  -0.620  1.00  0.00    -0.233 N 
ATOM     26  H62 UNL     1      30.128  14.347  -1.070  1.00  0.00     0.174 HD
ATOM     27  H61 UNL     1      30.943  15.012   0.349  1.00  0.00     0.174 HD
ENDBRANCH  15  25
BRANCH  17  28
HETATM   28  N8  UNL     1      32.952  19.691  -3.753  1.00  0.00    -0.382 N 
ATOM     29  H82 UNL     1      33.358  20.575  -4.060  1.00  0.00     0.157 HD
ATOM     30  H81 UNL     1      33.478  18.847  -3.982  1.00  0.00     0.157 HD
ENDBRANCH  17  28
TORSDOF 7
ENDMDL
MODEL 3
REMARK VINA RESULT: -8.299670858      3.304      5.676
REMARK  7 active torsions:
REMARK  status: ('A' for Active; 'I' for Inactive)
REMARK    1  A    between atoms: C5_15  and  N6_16 
REMARK    2  A    between atoms: N7_19  and  C6_20 
REMARK    3  A    between atoms: C6_20  and  C7_21 
REMARK    4  A    between atoms: C7_21  and  O1_22 
REMARK    5  A    between atoms: C7_21  and  C8_24 
REMARK    6  A    between atoms: C8_24  and  O2_25 
REMARK    7  A    between atoms: C9_27  and  N8_28 
ROOT
HETATM    1  C1  UNL     1      26.188  14.628  -4.985  1.00  0.00     0.074 C 
HETATM    2  C2  UNL     1      27.156  15.405  -4.172  1.00  0.00     0.067 A 
HETATM    3  N1  UNL     1      28.324  15.748  -4.687  1.00  0.00    -0.287 N 
ATOM      4  H1  UNL     1      28.532  15.464  -5.644  1.00  0.00     0.187 HD
HETATM    5  N2  UNL     1      29.234  16.437  -4.027  1.00  0.00    -0.130 N 
ATOM      6  H2  UNL     1      30.120  16.674  -4.474  1.00  0.00     0.205 HD
HETATM    7  C3  UNL     1      28.986  16.833  -2.742  1.00  0.00     0.736 A 
HETATM    8  N3  UNL     1      27.826  16.501  -2.208  1.00  0.00     0.042 N 
HETATM    9  C4  UNL     1      27.506  16.829  -0.933  1.00  0.00     0.713 A 
HETATM   10  N4  UNL     1      26.457  16.558  -0.370  1.00  0.00    -0.233 N 
ATOM     11  H41 UNL     1      26.216  16.805   0.590  1.00  0.00     0.174 HD
ATOM     12  H42 UNL     1      25.743  16.040  -0.882  1.00  0.00     0.174 HD
HETATM   13  N5  UNL     1      28.468  17.528  -0.242  1.00  0.00    -0.021 N 
ATOM     14  H5  UNL     1      28.279  17.799   0.723  1.00  0.00     0.203 HD
HETATM   15  C5  UNL     1      29.629  17.860  -0.780  1.00  0.00     0.707 A 
HETATM   16  N7  UNL     1      29.901  17.515  -2.048  1.00  0.00    -0.009 N 
HETATM   17  C9  UNL     1      26.865  15.792  -2.855  1.00  0.00     0.164 A 
ENDROOT
BRANCH  16  18
HETATM   18  C6  UNL     1      31.140  17.928  -2.635  1.00  0.00     0.200 C 
BRANCH  18  19
HETATM   19  C7  UNL     1      31.125  19.158  -3.468  1.00  0.00     0.161 C 
BRANCH  19  20
HETATM   20  O1  UNL     1      31.163  18.893  -4.862  1.00  0.00    -0.392 OA
ATOM     21  H1  UNL     1      30.324  18.625  -5.217  1.00  0.00     0.210 HD
ENDBRANCH  19  20
BRANCH  19  22
HETATM   22  C8  UNL     1      32.218  20.154  -3.239  1.00  0.00     0.197 C 
BRANCH  22  23
HETATM   23  O2  UNL     1      33.483  19.590  -3.528  1.00  0.00    -0.398 OA
ATOM     24  H2  UNL     1      33.700  19.700  -4.446  1.00  0.00     0.209 HD
ENDBRANCH  22  23
ENDBRANCH  19  22
ENDBRANCH  18  19
ENDBRANCH  16  18
BRANCH  15  25
HETATM   25  N6  UNL     1      30.480  18.495  -0.053  1.00  0.00    -0.233 N 
ATOM     26  H62 UNL     1      31.250  18.016   0.413  1.00  0.00     0.174 HD
ATOM     27  H61 UNL     1      30.361  19.502   0.065  1.00  0.00     0.174 HD
ENDBRANCH  15  25
BRANCH  17  28
HETATM   28  N8  UNL     1      25.810  15.493  -2.366  1.00  0.00    -0.382 N 
ATOM     29  H82 UNL     1      25.249  14.694  -2.665  1.00  0.00     0.157 HD
ATOM     30  H81 UNL     1      25.429  16.054  -1.603  1.00  0.00     0.157 HD
ENDBRANCH  17  28
TORSDOF 7
ENDMDL
MODEL 4
REMARK VINA RESULT: -8.292085697      3.033      5.344
REMARK  7 active torsions:
REMARK  status: ('A' for Active; 'I' for Inactive)
REMARK    1  A    between atoms: C5_15  and  N6_16 
REMARK    2  A    between atoms: N7_19  and  C6_20 
REMARK    3  A    between atoms: C6_20  and  C7_21 
REMARK    4  A    between atoms: C7_21  and  O1_22 
REMARK    5  A    between atoms: C7_21  and  C8_24 
REMARK    6  A    between atoms: C8_24  and  O2_25 
REMARK    7  A    between atoms: C9_27  and  N8_28 
ROOT
HETATM    1  C1  UNL     1      26.514  14.912  -5.115  1.00  0.00     0.074 C 
HETATM    2  C2  UNL     1      27.512  15.629  -4.283  1.00  0.00     0.067 A 
HETATM    3  N1  UNL     1      28.682  15.963  -4.799  1.00  0.00    -0.287 N 
ATOM      4  H1  UNL     1      28.871  15.716  -5.770  1.00  0.00     0.187 HD
HETATM    5  N2  UNL     1      29.618  16.600  -4.123  1.00  0.00    -0.130 N 
ATOM      6  H2  UNL     1      30.504  16.833  -4.572  1.00  0.00     0.205 HD
HETATM    7  C3  UNL     1      29.396  16.948  -2.819  1.00  0.00     0.736 A 
HETATM    8  N3  UNL     1      28.235  16.622  -2.284  1.00  0.00     0.042 N 
HETATM    9  C4  UNL     1      27.940  16.904  -0.992  1.00  0.00     0.713 A 
HETATM   10  N4  UNL     1      26.891  16.636  -0.426  1.00  0.00    -0.233 N 
ATOM     11  H41 UNL     1      26.669  16.849   0.546  1.00  0.00     0.174 HD
ATOM     12  H42 UNL     1      26.158  16.158  -0.950  1.00  0.00     0.174 HD
HETATM   13  N5  UNL     1      28.929  17.548  -0.285  1.00  0.00    -0.021 N 
ATOM     14  H5  UNL     1      28.759  17.783   0.693  1.00  0.00     0.203 HD
HETATM   15  C5  UNL     1      30.090  17.873  -0.825  1.00  0.00     0.707 A 
HETATM   16  N7  UNL     1      30.338  17.575  -2.110  1.00  0.00    -0.009 N 
HETATM   17  C9  UNL     1      27.248  15.966  -2.947  1.00  0.00     0.164 A 
ENDROOT
BRANCH  16  18
HETATM   18  C6  UNL     1      31.579  17.982  -2.695  1.00  0.00     0.200 C 
BRANCH  18  19
HETATM   19  C7  UNL     1      31.685  19.386  -3.169  1.00  0.00     0.161 C 
BRANCH  19  20
HETATM   20  O1  UNL     1      32.198  20.273  -2.187  1.00  0.00    -0.392 OA
ATOM     21  H1  UNL     1      31.563  20.913  -1.889  1.00  0.00     0.210 HD
ENDBRANCH  19  20
BRANCH  19  22
HETATM   22  C8  UNL     1      30.430  20.041  -3.656  1.00  0.00     0.197 C 
BRANCH  22  23
HETATM   23  O2  UNL     1      30.125  19.627  -4.974  1.00  0.00    -0.398 OA
ATOM     24  H2  UNL     1      29.185  19.587  -5.107  1.00  0.00     0.209 HD
ENDBRANCH  22  23
ENDBRANCH  19  22
ENDBRANCH  18  19
ENDBRANCH  16  18
BRANCH  15  25
HETATM   25  N6  UNL     1      30.967  18.455  -0.084  1.00  0.00    -0.233 N 
ATOM     26  H62 UNL     1      31.817  17.978   0.217  1.00  0.00     0.174 HD
ATOM     27  H61 UNL     1      30.788  19.413   0.218  1.00  0.00     0.174 HD
ENDBRANCH  15  25
BRANCH  17  28
HETATM   28  N8  UNL     1      26.191  15.674  -2.457  1.00  0.00    -0.382 N 
ATOM     29  H82 UNL     1      25.469  15.137  -2.938  1.00  0.00     0.157 HD
ATOM     30  H81 UNL     1      25.979  15.966  -1.502  1.00  0.00     0.157 HD
ENDBRANCH  17  28
TORSDOF 7
ENDMDL
MODEL 5
REMARK VINA RESULT: -8.190046163      2.479      3.355
REMARK  7 active torsions:
REMARK  status: ('A' for Active; 'I' for Inactive)
REMARK    1  A    between atoms: C5_15  and  N6_16 
REMARK    2  A    between atoms: N7_19  and  C6_20 
REMARK    3  A    between atoms: C6_20  and  C7_21 
REMARK    4  A    between atoms: C7_21  and  O1_22 
REMARK    5  A    between atoms: C7_21  and  C8_24 
REMARK    6  A    between atoms: C8_24  and  O2_25 
REMARK    7  A    between atoms: C9_27  and  N8_28 
ROOT
HETATM    1  C1  UNL     1      30.846  19.248   0.815  1.00  0.00     0.074 C 
HETATM    2  C2  UNL     1      30.345  18.476  -0.349  1.00  0.00     0.067 A 
HETATM    3  N1  UNL     1      29.532  17.452  -0.161  1.00  0.00    -0.287 N 
ATOM      4  H1  UNL     1      29.266  17.215   0.795  1.00  0.00     0.187 HD
HETATM    5  N2  UNL     1      29.046  16.719  -1.144  1.00  0.00    -0.130 N 
ATOM      6  H2  UNL     1      28.422  15.938  -0.940  1.00  0.00     0.205 HD
HETATM    7  C3  UNL     1      29.382  17.010  -2.437  1.00  0.00     0.736 A 
HETATM    8  N3  UNL     1      30.194  18.029  -2.648  1.00  0.00     0.042 N 
HETATM    9  C4  UNL     1      30.600  18.372  -3.894  1.00  0.00     0.713 A 
HETATM   10  N4  UNL     1      31.348  19.298  -4.170  1.00  0.00    -0.233 N 
ATOM     11  H41 UNL     1      31.653  19.557  -5.108  1.00  0.00     0.174 HD
ATOM     12  H42 UNL     1      31.712  19.878  -3.414  1.00  0.00     0.174 HD
HETATM   13  N5  UNL     1      30.109  17.591  -4.914  1.00  0.00    -0.021 N 
ATOM     14  H5  UNL     1      30.384  17.806  -5.873  1.00  0.00     0.203 HD
HETATM   15  C5  UNL     1      29.295  16.572  -4.699  1.00  0.00     0.707 A 
HETATM   16  N7  UNL     1      28.918  16.270  -3.447  1.00  0.00    -0.009 N 
HETATM   17  C9  UNL     1      30.715  18.805  -1.663  1.00  0.00     0.164 A 
ENDROOT
BRANCH  16  18
HETATM   18  C6  UNL     1      27.994  15.198  -3.235  1.00  0.00     0.200 C 
BRANCH  18  19
HETATM   19  C7  UNL     1      26.571  15.442  -3.584  1.00  0.00     0.161 C 
BRANCH  19  20
HETATM   20  O1  UNL     1      25.766  15.774  -2.462  1.00  0.00    -0.392 OA
ATOM     21  H1  UNL     1      24.834  15.708  -2.635  1.00  0.00     0.210 HD
ENDBRANCH  19  20
BRANCH  19  22
HETATM   22  C8  UNL     1      25.833  14.335  -4.268  1.00  0.00     0.197 C 
BRANCH  22  23
HETATM   23  O2  UNL     1      26.292  14.170  -5.597  1.00  0.00    -0.398 OA
ATOM     24  H2  UNL     1      26.030  14.905  -6.138  1.00  0.00     0.209 HD
ENDBRANCH  22  23
ENDBRANCH  19  22
ENDBRANCH  18  19
ENDBRANCH  16  18
BRANCH  15  25
HETATM   25  N6  UNL     1      28.901  15.881  -5.710  1.00  0.00    -0.233 N 
ATOM     26  H62 UNL     1      29.563  15.451  -6.357  1.00  0.00     0.174 HD
ATOM     27  H61 UNL     1      27.898  15.781  -5.868  1.00  0.00     0.174 HD
ENDBRANCH  15  25
BRANCH  17  28
HETATM   28  N8  UNL     1      31.452  19.732  -1.859  1.00  0.00    -0.382 N 
ATOM     29  H82 UNL     1      31.269  20.684  -1.539  1.00  0.00     0.157 HD
ATOM     30  H81 UNL     1      32.322  19.587  -2.373  1.00  0.00     0.157 HD
ENDBRANCH  17  28
TORSDOF 7
ENDMDL
