MODEL 1
REMARK VINA RESULT: -9.184072691      0.000      0.000
REMARK  6 active torsions:
REMARK  status: ('A' for Active; 'I' for Inactive)
REMARK    1  A    between atoms: N1_1  and  N2_4 
REMARK       I    between atoms: N2_4  and  C1_6 
REMARK    2  A    between atoms: C1_6  and  C2_8 
REMARK    3  A    between atoms: C2_8  and  O2_9 
REMARK    4  A    between atoms: C2_8  and  N3_11 
REMARK       I    between atoms: N3_11  and  C3_13 
REMARK       I    between atoms: C3_13  and  N4_15 
REMARK    5  A    between atoms: N4_15  and  N5_17 
REMARK    6  A    between atoms: N5_17  and  C4_19 
ROOT
HETATM    1  N3  UNL     1      28.282  15.642  -2.576  1.00  0.00    -0.307 N 
ATOM      2  H3  UNL     1      29.045  15.116  -2.999  1.00  0.00     0.167 HD
HETATM    3  C3  UNL     1      28.493  16.970  -2.140  1.00  0.00     0.337 C 
HETATM    4  O3  UNL     1      27.562  17.619  -1.621  1.00  0.00    -0.246 OA
HETATM    5  N4  UNL     1      29.756  17.572  -2.287  1.00  0.00    -0.250 N 
ATOM      6  H4  UNL     1      30.523  17.049  -2.710  1.00  0.00     0.192 HD
ENDROOT
BRANCH   1   7
HETATM    7  C2  UNL     1      26.977  15.032  -2.420  1.00  0.00     0.317 C 
BRANCH   7   8
HETATM    8  C1  UNL     1      26.451  14.759  -3.791  1.00  0.00     0.284 C 
HETATM    9  N2  UNL     1      27.160  15.123  -4.960  1.00  0.00    -0.273 N 
ATOM     10  H2  UNL     1      28.064  15.588  -4.888  1.00  0.00     0.189 HD
HETATM   11  O1  UNL     1      25.329  14.181  -3.848  1.00  0.00    -0.267 OA
BRANCH   9  12
HETATM   12  N1  UNL     1      26.616  14.842  -6.198  1.00  0.00    -0.342 N 
ATOM     13  H12 UNL     1      27.105  14.202  -6.825  1.00  0.00     0.176 HD
ATOM     14  H11 UNL     1      25.734  15.277  -6.469  1.00  0.00     0.176 HD
ENDBRANCH   9  12
ENDBRANCH   7   8
BRANCH   7  15
HETATM   15  O2  UNL     1      27.085  13.786  -1.768  1.00  0.00    -0.368 OA
ATOM     16  H2  UNL     1      26.553  13.839  -0.983  1.00  0.00     0.212 HD
ENDBRANCH   7  15
ENDBRANCH   1   7
BRANCH   5  17
HETATM   17  N5  UNL     1      29.959  18.876  -1.857  1.00  0.00    -0.280 N 
ATOM     18  H5  UNL     1      29.477  19.227  -1.030  1.00  0.00     0.188 HD
BRANCH  17  19
HETATM   19  C4  UNL     1      30.758  19.631  -2.511  1.00  0.00     0.141 A 
HETATM   20  C5  UNL     1      31.993  19.144  -2.865  1.00  0.00     0.157 A 
HETATM   21  N6  UNL     1      32.826  19.969  -3.561  1.00  0.00    -0.304 N 
HETATM   22  N7  UNL     1      32.408  21.182  -3.857  1.00  0.00    -0.252 N 
ATOM     23  H6  UNL     1      33.753  19.653  -3.847  1.00  0.00     0.186 HD
HETATM   24  C6  UNL     1      31.203  21.667  -3.515  1.00  0.00     0.340 A 
ATOM     25  H7  UNL     1      33.039  21.791  -4.378  1.00  0.00     0.191 HD
HETATM   26  O4  UNL     1      30.826  22.821  -3.805  1.00  0.00    -0.245 OA
HETATM   27  N8  UNL     1      30.345  20.876  -2.821  1.00  0.00    -0.291 N 
ATOM     28  H8  UNL     1      29.423  21.212  -2.545  1.00  0.00     0.172 HD
ENDBRANCH  17  19
ENDBRANCH   5  17
TORSDOF 6
ENDMDL
MODEL 2
REMARK VINA RESULT: -9.004936857      1.916      2.062
REMARK  6 active torsions:
REMARK  status: ('A' for Active; 'I' for Inactive)
REMARK    1  A    between atoms: N1_1  and  N2_4 
REMARK       I    between atoms: N2_4  and  C1_6 
REMARK    2  A    between atoms: C1_6  and  C2_8 
REMARK    3  A    between atoms: C2_8  and  O2_9 
REMARK    4  A    between atoms: C2_8  and  N3_11 
REMARK       I    between atoms: N3_11  and  C3_13 
REMARK       I    between atoms: C3_13  and  N4_15 
REMARK    5  A    between atoms: N4_15  and  N5_17 
REMARK    6  A    between atoms: N5_17  and  C4_19 
ROOT
HETATM    1  N3  UNL     1      27.781  17.006  -1.235  1.00  0.00    -0.307 N 
ATOM      2  H3  UNL     1      27.903  16.144  -0.705  1.00  0.00     0.167 HD
HETATM    3  C3  UNL     1      28.796  17.989  -1.233  1.00  0.00     0.337 C 
HETATM    4  O3  UNL     1      28.652  19.046  -1.879  1.00  0.00    -0.246 OA
HETATM    5  N4  UNL     1      29.980  17.782  -0.502  1.00  0.00    -0.250 N 
ATOM      6  H4  UNL     1      30.108  16.921   0.029  1.00  0.00     0.192 HD
ENDROOT
BRANCH   1   7
HETATM    7  C2  UNL     1      26.566  17.228  -1.991  1.00  0.00     0.317 C 
BRANCH   7   8
HETATM    8  C1  UNL     1      26.473  16.138  -3.008  1.00  0.00     0.284 C 
HETATM    9  N2  UNL     1      25.692  14.977  -2.802  1.00  0.00    -0.273 N 
ATOM     10  H2  UNL     1      25.165  14.858  -1.938  1.00  0.00     0.189 HD
HETATM   11  O1  UNL     1      27.137  16.313  -4.068  1.00  0.00    -0.267 OA
BRANCH   9  12
HETATM   12  N1  UNL     1      25.651  14.004  -3.783  1.00  0.00    -0.342 N 
ATOM     13  H12 UNL     1      24.754  13.588  -4.036  1.00  0.00     0.176 HD
ATOM     14  H11 UNL     1      26.516  13.716  -4.240  1.00  0.00     0.176 HD
ENDBRANCH   9  12
ENDBRANCH   7   8
BRANCH   7  15
HETATM   15  O2  UNL     1      25.433  17.109  -1.159  1.00  0.00    -0.368 OA
ATOM     16  H2  UNL     1      25.443  17.854  -0.571  1.00  0.00     0.212 HD
ENDBRANCH   7  15
ENDBRANCH   1   7
BRANCH   5  17
HETATM   17  N5  UNL     1      30.976  18.750  -0.502  1.00  0.00    -0.280 N 
ATOM     18  H5  UNL     1      31.204  19.255   0.354  1.00  0.00     0.188 HD
BRANCH  17  19
HETATM   19  C4  UNL     1      31.602  19.000  -1.589  1.00  0.00     0.141 A 
HETATM   20  C5  UNL     1      32.374  18.014  -2.154  1.00  0.00     0.157 A 
HETATM   21  N6  UNL     1      33.032  18.307  -3.312  1.00  0.00    -0.304 N 
HETATM   22  N7  UNL     1      32.896  19.510  -3.827  1.00  0.00    -0.252 N 
ATOM     23  H6  UNL     1      33.617  17.607  -3.770  1.00  0.00     0.186 HD
HETATM   24  C6  UNL     1      32.144  20.481  -3.281  1.00  0.00     0.340 A 
ATOM     25  H7  UNL     1      33.392  19.719  -4.694  1.00  0.00     0.191 HD
HETATM   26  O4  UNL     1      32.029  21.617  -3.787  1.00  0.00    -0.245 OA
HETATM   27  N8  UNL     1      31.474  20.229  -2.128  1.00  0.00    -0.291 N 
ATOM     28  H8  UNL     1      30.894  20.942  -1.687  1.00  0.00     0.172 HD
ENDBRANCH  17  19
ENDBRANCH   5  17
TORSDOF 6
ENDMDL
MODEL 3
REMARK VINA RESULT: -8.993541311      1.680      1.990
REMARK  6 active torsions:
REMARK  status: ('A' for Active; 'I' for Inactive)
REMARK    1  A    between atoms: N1_1  and  N2_4 
REMARK       I    between atoms: N2_4  and  C1_6 
REMARK    2  A    between atoms: C1_6  and  C2_8 
REMARK    3  A    between atoms: C2_8  and  O2_9 
REMARK    4  A    between atoms: C2_8  and  N3_11 
REMARK       I    between atoms: N3_11  and  C3_13 
REMARK       I    between atoms: C3_13  and  N4_15 
REMARK    5  A    between atoms: N4_15  and  N5_17 
REMARK    6  A    between atoms: N5_17  and  C4_19 
ROOT
HETATM    1  N3  UNL     1      27.249  16.977  -2.908  1.00  0.00    -0.307 N 
ATOM      2  H3  UNL     1      26.747  17.337  -3.719  1.00  0.00     0.167 HD
HETATM    3  C3  UNL     1      28.240  17.766  -2.281  1.00  0.00     0.337 C 
HETATM    4  O3  UNL     1      28.857  17.330  -1.288  1.00  0.00    -0.246 OA
HETATM    5  N4  UNL     1      28.539  19.050  -2.772  1.00  0.00    -0.250 N 
ATOM      6  H4  UNL     1      28.039  19.414  -3.583  1.00  0.00     0.192 HD
ENDROOT
BRANCH   1   7
HETATM    7  C2  UNL     1      26.949  15.656  -2.395  1.00  0.00     0.317 C 
BRANCH   7   8
HETATM    8  C1  UNL     1      26.307  14.888  -3.504  1.00  0.00     0.284 C 
HETATM    9  N2  UNL     1      26.780  14.942  -4.835  1.00  0.00    -0.273 N 
ATOM     10  H2  UNL     1      27.588  15.518  -5.070  1.00  0.00     0.189 HD
HETATM   11  O1  UNL     1      25.308  14.182  -3.181  1.00  0.00    -0.267 OA
BRANCH   9  12
HETATM   12  N1  UNL     1      26.139  14.207  -5.814  1.00  0.00    -0.342 N 
ATOM     13  H12 UNL     1      26.302  14.433  -6.795  1.00  0.00     0.176 HD
ATOM     14  H11 UNL     1      25.513  13.449  -5.542  1.00  0.00     0.176 HD
ENDBRANCH   9  12
ENDBRANCH   7   8
BRANCH   7  15
HETATM   15  O2  UNL     1      28.135  14.972  -2.057  1.00  0.00    -0.368 OA
ATOM     16  H2  UNL     1      28.444  15.343  -1.239  1.00  0.00     0.212 HD
ENDBRANCH   7  15
ENDBRANCH   1   7
BRANCH   5  17
HETATM   17  N5  UNL     1      29.513  19.821  -2.153  1.00  0.00    -0.280 N 
ATOM     18  H5  UNL     1      29.297  20.337  -1.299  1.00  0.00     0.188 HD
BRANCH  17  19
HETATM   19  C4  UNL     1      30.683  19.878  -2.666  1.00  0.00     0.141 A 
HETATM   20  C5  UNL     1      31.092  21.046  -3.262  1.00  0.00     0.157 A 
HETATM   21  N6  UNL     1      32.344  21.080  -3.801  1.00  0.00    -0.304 N 
HETATM   22  N7  UNL     1      33.093  20.001  -3.724  1.00  0.00    -0.252 N 
ATOM     23  H6  UNL     1      32.693  21.925  -4.255  1.00  0.00     0.186 HD
HETATM   24  C6  UNL     1      32.701  18.854  -3.143  1.00  0.00     0.340 A 
ATOM     25  H7  UNL     1      34.028  20.037  -4.130  1.00  0.00     0.191 HD
HETATM   26  O4  UNL     1      33.428  17.841  -3.081  1.00  0.00    -0.245 OA
HETATM   27  N8  UNL     1      31.462  18.780  -2.595  1.00  0.00    -0.291 N 
ATOM     28  H8  UNL     1      31.132  17.926  -2.146  1.00  0.00     0.172 HD
ENDBRANCH  17  19
ENDBRANCH   5  17
TORSDOF 6
ENDMDL
MODEL 4
REMARK VINA RESULT: -8.990450136      1.481      1.831
REMARK  6 active torsions:
REMARK  status: ('A' for Active; 'I' for Inactive)
REMARK    1  A    between atoms: N1_1  and  N2_4 
REMARK       I    between atoms: N2_4  and  C1_6 
REMARK    2  A    between atoms: C1_6  and  C2_8 
REMARK    3  A    between atoms: C2_8  and  O2_9 
REMARK    4  A    between atoms: C2_8  and  N3_11 
REMARK       I    between atoms: N3_11  and  C3_13 
REMARK       I    between atoms: C3_13  and  N4_15 
REMARK    5  A    between atoms: N4_15  and  N5_17 
REMARK    6  A    between atoms: N5_17  and  C4_19 
ROOT
HETATM    1  N3  UNL     1      28.303  14.832  -2.675  1.00  0.00    -0.307 N 
ATOM      2  H3  UNL     1      28.894  14.294  -3.308  1.00  0.00     0.167 HD
HETATM    3  C3  UNL     1      28.862  15.871  -1.896  1.00  0.00     0.337 C 
HETATM    4  O3  UNL     1      28.143  16.533  -1.120  1.00  0.00    -0.246 OA
HETATM    5  N4  UNL     1      30.233  16.167  -1.990  1.00  0.00    -0.250 N 
ATOM      6  H4  UNL     1      30.828  15.631  -2.622  1.00  0.00     0.192 HD
ENDROOT
BRANCH   1   7
HETATM    7  C2  UNL     1      26.889  14.536  -2.571  1.00  0.00     0.317 C 
BRANCH   7   8
HETATM    8  C1  UNL     1      26.339  14.519  -3.960  1.00  0.00     0.284 C 
HETATM    9  N2  UNL     1      27.090  14.952  -5.077  1.00  0.00    -0.273 N 
ATOM     10  H2  UNL     1      28.044  15.291  -4.954  1.00  0.00     0.189 HD
HETATM   11  O1  UNL     1      25.155  14.093  -4.080  1.00  0.00    -0.267 OA
BRANCH   9  12
HETATM   12  N1  UNL     1      26.521  14.911  -6.335  1.00  0.00    -0.342 N 
ATOM     13  H12 UNL     1      26.734  15.652  -7.003  1.00  0.00     0.176 HD
ATOM     14  H11 UNL     1      25.897  14.142  -6.578  1.00  0.00     0.176 HD
ENDBRANCH   9  12
ENDBRANCH   7   8
BRANCH   7  15
HETATM   15  O2  UNL     1      26.689  13.246  -2.037  1.00  0.00    -0.368 OA
ATOM     16  H2  UNL     1      27.543  12.835  -1.982  1.00  0.00     0.212 HD
ENDBRANCH   7  15
ENDBRANCH   1   7
BRANCH   5  17
HETATM   17  N5  UNL     1      30.779  17.188  -1.223  1.00  0.00    -0.280 N 
ATOM     18  H5  UNL     1      30.971  17.042  -0.232  1.00  0.00     0.188 HD
BRANCH  17  19
HETATM   19  C4  UNL     1      31.037  18.313  -1.774  1.00  0.00     0.141 A 
HETATM   20  C5  UNL     1      30.112  19.325  -1.686  1.00  0.00     0.157 A 
HETATM   21  N6  UNL     1      30.412  20.514  -2.283  1.00  0.00    -0.304 N 
HETATM   22  N7  UNL     1      31.564  20.632  -2.908  1.00  0.00    -0.252 N 
ATOM     23  H6  UNL     1      29.757  21.295  -2.245  1.00  0.00     0.186 HD
HETATM   24  C6  UNL     1      32.474  19.648  -3.000  1.00  0.00     0.340 A 
ATOM     25  H7  UNL     1      31.778  21.526  -3.351  1.00  0.00     0.191 HD
HETATM   26  O4  UNL     1      33.562  19.781  -3.599  1.00  0.00    -0.245 OA
HETATM   27  N8  UNL     1      32.213  18.449  -2.420  1.00  0.00    -0.291 N 
ATOM     28  H8  UNL     1      32.881  17.681  -2.470  1.00  0.00     0.172 HD
ENDBRANCH  17  19
ENDBRANCH   5  17
TORSDOF 6
ENDMDL
MODEL 5
REMARK VINA RESULT: -8.926467060      1.543      1.781
REMARK  6 active torsions:
REMARK  status: ('A' for Active; 'I' for Inactive)
REMARK    1  A    between atoms: N1_1  and  N2_4 
REMARK       I    between atoms: N2_4  and  C1_6 
REMARK    2  A    between atoms: C1_6  and  C2_8 
REMARK    3  A    between atoms: C2_8  and  O2_9 
REMARK    4  A    between atoms: C2_8  and  N3_11 
REMARK       I    between atoms: N3_11  and  C3_13 
REMARK       I    between atoms: C3_13  and  N4_15 
REMARK    5  A    between atoms: N4_15  and  N5_17 
REMARK    6  A    between atoms: N5_17  and  C4_19 
ROOT
HETATM    1  N3  UNL     1      28.303  16.392  -2.482  1.00  0.00    -0.307 N 
ATOM      2  H3  UNL     1      28.736  15.596  -2.015  1.00  0.00     0.167 HD
HETATM    3  C3  UNL     1      28.794  17.698  -2.257  1.00  0.00     0.337 C 
HETATM    4  O3  UNL     1      28.268  18.676  -2.825  1.00  0.00    -0.246 OA
HETATM    5  N4  UNL     1      29.881  17.906  -1.389  1.00  0.00    -0.250 N 
ATOM      6  H4  UNL     1      30.318  17.113  -0.919  1.00  0.00     0.192 HD
ENDROOT
BRANCH   1   7
HETATM    7  C2  UNL     1      27.183  16.189  -3.377  1.00  0.00     0.317 C 
BRANCH   7   8
HETATM    8  C1  UNL     1      26.669  14.807  -3.134  1.00  0.00     0.284 C 
HETATM    9  N2  UNL     1      26.973  14.083  -1.958  1.00  0.00    -0.273 N 
ATOM     10  H2  UNL     1      27.562  14.498  -1.237  1.00  0.00     0.189 HD
HETATM   11  O1  UNL     1      25.942  14.319  -4.046  1.00  0.00    -0.267 OA
BRANCH   9  12
HETATM   12  N1  UNL     1      26.466  12.808  -1.796  1.00  0.00    -0.342 N 
ATOM     13  H12 UNL     1      25.462  12.683  -1.671  1.00  0.00     0.176 HD
ATOM     14  H11 UNL     1      27.102  12.011  -1.804  1.00  0.00     0.176 HD
ENDBRANCH   9  12
ENDBRANCH   7   8
BRANCH   7  15
HETATM   15  O2  UNL     1      26.131  17.076  -3.069  1.00  0.00    -0.368 OA
ATOM     16  H2  UNL     1      26.528  17.854  -2.694  1.00  0.00     0.212 HD
ENDBRANCH   7  15
ENDBRANCH   1   7
BRANCH   5  17
HETATM   17  N5  UNL     1      30.361  19.190  -1.170  1.00  0.00    -0.280 N 
ATOM     18  H5  UNL     1      30.166  19.671  -0.291  1.00  0.00     0.188 HD
BRANCH  17  19
HETATM   19  C4  UNL     1      31.049  19.763  -2.082  1.00  0.00     0.141 A 
HETATM   20  C5  UNL     1      32.212  19.169  -2.511  1.00  0.00     0.157 A 
HETATM   21  N6  UNL     1      32.927  19.801  -3.485  1.00  0.00    -0.304 N 
HETATM   22  N7  UNL     1      32.472  20.940  -3.963  1.00  0.00    -0.252 N 
ATOM     23  H6  UNL     1      33.797  19.399  -3.836  1.00  0.00     0.186 HD
HETATM   24  C6  UNL     1      31.337  21.528  -3.550  1.00  0.00     0.340 A 
ATOM     25  H7  UNL     1      33.015  21.404  -4.691  1.00  0.00     0.191 HD
HETATM   26  O4  UNL     1      30.923  22.610  -4.017  1.00  0.00    -0.245 OA
HETATM   27  N8  UNL     1      30.597  20.931  -2.582  1.00  0.00    -0.291 N 
ATOM     28  H8  UNL     1      29.730  21.350  -2.245  1.00  0.00     0.172 HD
ENDBRANCH  17  19
ENDBRANCH   5  17
TORSDOF 6
ENDMDL
