MODEL 1
REMARK VINA RESULT: -9.141178855      0.000      0.000
REMARK  11 active torsions:
REMARK  status: ('A' for Active; 'I' for Inactive)
REMARK    1  A    between atoms: O1_1  and  C1_3 
REMARK    2  A    between atoms: C1_3  and  C2_4 
REMARK    3  A    between atoms: N1_7  and  C5_8 
REMARK    4  A    between atoms: C5_8  and  C6_9 
REMARK    5  A    between atoms: C6_9  and  C7_10 
REMARK    6  A    between atoms: C7_10  and  C8_11 
REMARK    7  A    between atoms: C8_11  and  O2_12 
REMARK    8  A    between atoms: N2_17  and  C12_18 
REMARK    9  A    between atoms: C12_18  and  C13_19 
REMARK   10  A    between atoms: C21_27  and  O3_28 
REMARK   11  A    between atoms: C31_39  and  O4_40 
ROOT
HETATM    1  C8  UNL     1      15.450  23.070  17.063  1.00  0.00     0.100 C 
HETATM    2  C9  UNL     1      16.862  22.864  16.661  1.00  0.00     0.011 C 
HETATM    3  C10 UNL     1      16.918  21.301  16.535  1.00  0.00     0.058 C 
HETATM    4  C11 UNL     1      16.919  20.600  17.857  1.00  0.00     0.064 C 
HETATM    5  N2  UNL     1      15.990  20.967  18.822  1.00  0.00    -0.366 N 
HETATM    6  C16 UNL     1      15.971  22.204  19.439  1.00  0.00     0.126 C 
HETATM    7  C17 UNL     1      17.124  22.455  20.443  1.00  0.00     0.034 C 
HETATM    8  C18 UNL     1      17.516  23.854  20.589  1.00  0.00    -0.005 A 
HETATM    9  C19 UNL     1      18.773  24.456  21.022  1.00  0.00     0.013 A 
HETATM   10  C20 UNL     1      18.774  24.056  19.718  1.00  0.00     0.025 A 
HETATM   11  C21 UNL     1      18.149  24.448  18.378  1.00  0.00     0.073 C 
HETATM   12  C22 UNL     1      19.428  24.727  17.568  1.00  0.00     0.077 C 
HETATM   13  C23 UNL     1      19.201  25.038  16.176  1.00  0.00    -0.049 A 
HETATM   14  C24 UNL     1      20.023  26.105  15.795  1.00  0.00     0.007 A 
HETATM   15  C25 UNL     1      19.964  26.555  14.502  1.00  0.00     0.001 A 
HETATM   16  C26 UNL     1      19.116  25.970  13.589  1.00  0.00     0.001 A 
HETATM   17  C27 UNL     1      18.327  24.926  14.007  1.00  0.00     0.007 A 
HETATM   18  C28 UNL     1      18.345  24.426  15.315  1.00  0.00    -0.051 A 
HETATM   19  C29 UNL     1      17.383  23.334  15.377  1.00  0.00     0.052 C 
HETATM   20  C30 UNL     1      17.398  23.286  17.923  1.00  0.00     0.072 C 
HETATM   21  C31 UNL     1      16.003  23.334  18.441  1.00  0.00     0.117 C 
ENDROOT
BRANCH   1  22
HETATM   22  C7  UNL     1      14.539  24.036  16.467  1.00  0.00     0.043 C 
BRANCH  22  23
HETATM   23  C6  UNL     1      13.484  23.802  15.515  1.00  0.00     0.033 C 
BRANCH  23  24
HETATM   24  C5  UNL     1      13.742  22.520  14.718  1.00  0.00     0.272 C 
BRANCH  24  25
HETATM   25  N1  UNL     1      12.903  22.285  13.620  1.00  0.00     0.088 N 
HETATM   26  C4  UNL     1      13.649  21.710  12.513  1.00  0.00     0.273 C 
HETATM   27  C3  UNL     1      13.893  20.243  12.718  1.00  0.00     0.037 C 
HETATM   28  C2  UNL     1      12.552  19.564  12.835  1.00  0.00     0.012 C 
HETATM   29  C33 UNL     1      11.912  20.080  14.098  1.00  0.00     0.037 C 
HETATM   30  C32 UNL     1      11.707  21.569  13.906  1.00  0.00     0.273 C 
BRANCH  28  31
HETATM   31  C1  UNL     1      12.650  18.062  12.827  1.00  0.00     0.168 C 
BRANCH  31  32
HETATM   32  O1  UNL     1      13.980  17.627  12.810  1.00  0.00    -0.400 OA
ATOM     33  H1  UNL     1      14.048  16.693  12.967  1.00  0.00     0.209 HD
ENDBRANCH  31  32
ENDBRANCH  28  31
ENDBRANCH  24  25
ENDBRANCH  23  24
ENDBRANCH  22  23
ENDBRANCH   1  22
BRANCH   1  34
HETATM   34  O2  UNL     1      14.635  21.890  17.129  1.00  0.00    -0.386 OA
ATOM     35  H2  UNL     1      14.734  21.630  18.038  1.00  0.00     0.210 HD
ENDBRANCH   1  34
BRANCH  21  36
HETATM   36  O4  UNL     1      15.414  24.499  18.810  1.00  0.00    -0.384 OA
ATOM     37  H4  UNL     1      15.946  24.802  19.537  1.00  0.00     0.210 HD
ENDBRANCH  21  36
BRANCH  11  38
HETATM   38  O3  UNL     1      17.496  25.623  18.577  1.00  0.00    -0.389 OA
ATOM     39  H3  UNL     1      17.938  26.276  18.048  1.00  0.00     0.210 HD
ENDBRANCH  11  38
BRANCH   5  40
HETATM   40  C12 UNL     1      15.424  19.859  19.484  1.00  0.00     0.068 C 
BRANCH  40  41
HETATM   41  C13 UNL     1      14.700  18.945  18.557  1.00  0.00     0.024 A 
HETATM   42  C14 UNL     1      14.341  17.582  19.055  1.00  0.00     0.010 A 
HETATM   43  C15 UNL     1      13.300  18.588  18.867  1.00  0.00     0.010 A 
ENDBRANCH  40  41
ENDBRANCH   5  40
TORSDOF 11
ENDMDL
MODEL 2
REMARK VINA RESULT: -8.628550095      1.223      1.505
REMARK  11 active torsions:
REMARK  status: ('A' for Active; 'I' for Inactive)
REMARK    1  A    between atoms: O1_1  and  C1_3 
REMARK    2  A    between atoms: C1_3  and  C2_4 
REMARK    3  A    between atoms: N1_7  and  C5_8 
REMARK    4  A    between atoms: C5_8  and  C6_9 
REMARK    5  A    between atoms: C6_9  and  C7_10 
REMARK    6  A    between atoms: C7_10  and  C8_11 
REMARK    7  A    between atoms: C8_11  and  O2_12 
REMARK    8  A    between atoms: N2_17  and  C12_18 
REMARK    9  A    between atoms: C12_18  and  C13_19 
REMARK   10  A    between atoms: C21_27  and  O3_28 
REMARK   11  A    between atoms: C31_39  and  O4_40 
ROOT
HETATM    1  C8  UNL     1      15.395  22.982  17.039  1.00  0.00     0.100 C 
HETATM    2  C9  UNL     1      16.817  22.834  16.646  1.00  0.00     0.011 C 
HETATM    3  C10 UNL     1      16.958  21.272  16.590  1.00  0.00     0.058 C 
HETATM    4  C11 UNL     1      16.992  20.631  17.941  1.00  0.00     0.064 C 
HETATM    5  N2  UNL     1      16.043  20.991  18.889  1.00  0.00    -0.366 N 
HETATM    6  C16 UNL     1      15.956  22.251  19.450  1.00  0.00     0.126 C 
HETATM    7  C17 UNL     1      17.091  22.606  20.443  1.00  0.00     0.034 C 
HETATM    8  C18 UNL     1      17.407  24.029  20.527  1.00  0.00    -0.005 A 
HETATM    9  C19 UNL     1      18.630  24.717  20.933  1.00  0.00     0.013 A 
HETATM   10  C20 UNL     1      18.655  24.261  19.648  1.00  0.00     0.025 A 
HETATM   11  C21 UNL     1      18.013  24.559  18.292  1.00  0.00     0.073 C 
HETATM   12  C22 UNL     1      19.277  24.870  17.470  1.00  0.00     0.077 C 
HETATM   13  C23 UNL     1      19.038  25.107  16.066  1.00  0.00    -0.049 A 
HETATM   14  C24 UNL     1      19.802  26.199  15.639  1.00  0.00     0.007 A 
HETATM   15  C25 UNL     1      19.723  26.587  14.327  1.00  0.00     0.001 A 
HETATM   16  C26 UNL     1      18.909  25.919  13.440  1.00  0.00     0.001 A 
HETATM   17  C27 UNL     1      18.177  24.853  13.904  1.00  0.00     0.007 A 
HETATM   18  C28 UNL     1      18.218  24.412  15.233  1.00  0.00    -0.051 A 
HETATM   19  C29 UNL     1      17.316  23.275  15.343  1.00  0.00     0.052 C 
HETATM   20  C30 UNL     1      17.326  23.339  17.889  1.00  0.00     0.072 C 
HETATM   21  C31 UNL     1      15.930  23.335  18.403  1.00  0.00     0.117 C 
ENDROOT
BRANCH   1  22
HETATM   22  C7  UNL     1      14.435  23.871  16.401  1.00  0.00     0.043 C 
BRANCH  22  23
HETATM   23  C6  UNL     1      13.421  23.545  15.431  1.00  0.00     0.033 C 
BRANCH  23  24
HETATM   24  C5  UNL     1      13.996  22.670  14.313  1.00  0.00     0.272 C 
BRANCH  24  25
HETATM   25  N1  UNL     1      13.135  21.711  13.762  1.00  0.00     0.088 N 
HETATM   26  C4  UNL     1      13.622  20.367  14.026  1.00  0.00     0.273 C 
HETATM   27  C3  UNL     1      13.306  19.934  15.429  1.00  0.00     0.037 C 
HETATM   28  C2  UNL     1      11.808  19.976  15.598  1.00  0.00     0.012 C 
HETATM   29  C33 UNL     1      11.398  21.421  15.485  1.00  0.00     0.037 C 
HETATM   30  C32 UNL     1      11.758  21.868  14.084  1.00  0.00     0.273 C 
BRANCH  28  31
HETATM   31  C1  UNL     1      11.345  19.358  16.891  1.00  0.00     0.168 C 
BRANCH  31  32
HETATM   32  O1  UNL     1      10.325  20.104  17.488  1.00  0.00    -0.400 OA
ATOM     33  H1  UNL     1       9.745  20.491  16.843  1.00  0.00     0.209 HD
ENDBRANCH  31  32
ENDBRANCH  28  31
ENDBRANCH  24  25
ENDBRANCH  23  24
ENDBRANCH  22  23
ENDBRANCH   1  22
BRANCH   1  34
HETATM   34  O2  UNL     1      14.644  21.764  17.156  1.00  0.00    -0.386 OA
ATOM     35  H2  UNL     1      15.281  21.111  16.887  1.00  0.00     0.210 HD
ENDBRANCH   1  34
BRANCH  21  36
HETATM   36  O4  UNL     1      15.279  24.482  18.721  1.00  0.00    -0.384 OA
ATOM     37  H4  UNL     1      14.467  24.182  19.112  1.00  0.00     0.210 HD
ENDBRANCH  21  36
BRANCH  11  38
HETATM   38  O3  UNL     1      17.298  25.704  18.439  1.00  0.00    -0.389 OA
ATOM     39  H3  UNL     1      17.787  26.260  19.034  1.00  0.00     0.210 HD
ENDBRANCH  11  38
BRANCH   5  40
HETATM   40  C12 UNL     1      15.535  19.884  19.599  1.00  0.00     0.068 C 
BRANCH  40  41
HETATM   41  C13 UNL     1      14.433  19.193  18.873  1.00  0.00     0.024 A 
HETATM   42  C14 UNL     1      14.468  17.699  18.803  1.00  0.00     0.010 A 
HETATM   43  C15 UNL     1      13.484  18.367  19.649  1.00  0.00     0.010 A 
ENDBRANCH  40  41
ENDBRANCH   5  40
TORSDOF 11
ENDMDL
MODEL 3
REMARK VINA RESULT: -8.410527582      0.757      1.101
REMARK  11 active torsions:
REMARK  status: ('A' for Active; 'I' for Inactive)
REMARK    1  A    between atoms: O1_1  and  C1_3 
REMARK    2  A    between atoms: C1_3  and  C2_4 
REMARK    3  A    between atoms: N1_7  and  C5_8 
REMARK    4  A    between atoms: C5_8  and  C6_9 
REMARK    5  A    between atoms: C6_9  and  C7_10 
REMARK    6  A    between atoms: C7_10  and  C8_11 
REMARK    7  A    between atoms: C8_11  and  O2_12 
REMARK    8  A    between atoms: N2_17  and  C12_18 
REMARK    9  A    between atoms: C12_18  and  C13_19 
REMARK   10  A    between atoms: C21_27  and  O3_28 
REMARK   11  A    between atoms: C31_39  and  O4_40 
ROOT
HETATM    1  C8  UNL     1      15.399  22.983  16.961  1.00  0.00     0.100 C 
HETATM    2  C9  UNL     1      16.829  22.825  16.601  1.00  0.00     0.011 C 
HETATM    3  C10 UNL     1      16.953  21.262  16.528  1.00  0.00     0.058 C 
HETATM    4  C11 UNL     1      16.948  20.604  17.871  1.00  0.00     0.064 C 
HETATM    5  N2  UNL     1      15.979  20.961  18.800  1.00  0.00    -0.366 N 
HETATM    6  C16 UNL     1      15.893  22.215  19.376  1.00  0.00     0.126 C 
HETATM    7  C17 UNL     1      17.007  22.545  20.400  1.00  0.00     0.034 C 
HETATM    8  C18 UNL     1      17.337  23.963  20.510  1.00  0.00    -0.005 A 
HETATM    9  C19 UNL     1      18.556  24.631  20.955  1.00  0.00     0.013 A 
HETATM   10  C20 UNL     1      18.608  24.191  19.665  1.00  0.00     0.025 A 
HETATM   11  C21 UNL     1      18.003  24.514  18.298  1.00  0.00     0.073 C 
HETATM   12  C22 UNL     1      19.290  24.822  17.512  1.00  0.00     0.077 C 
HETATM   13  C23 UNL     1      19.088  25.080  16.106  1.00  0.00    -0.049 A 
HETATM   14  C24 UNL     1      19.874  26.168  15.712  1.00  0.00     0.007 A 
HETATM   15  C25 UNL     1      19.831  26.575  14.404  1.00  0.00     0.001 A 
HETATM   16  C26 UNL     1      19.032  25.927  13.488  1.00  0.00     0.001 A 
HETATM   17  C27 UNL     1      18.277  24.863  13.920  1.00  0.00     0.007 A 
HETATM   18  C28 UNL     1      18.281  24.405  15.244  1.00  0.00    -0.051 A 
HETATM   19  C29 UNL     1      17.364  23.277  15.316  1.00  0.00     0.052 C 
HETATM   20  C30 UNL     1      17.313  23.308  17.862  1.00  0.00     0.072 C 
HETATM   21  C31 UNL     1      15.904  23.313  18.343  1.00  0.00     0.117 C 
ENDROOT
BRANCH   1  22
HETATM   22  C7  UNL     1      14.465  23.891  16.312  1.00  0.00     0.043 C 
BRANCH  22  23
HETATM   23  C6  UNL     1      13.204  23.582  15.687  1.00  0.00     0.033 C 
BRANCH  23  24
HETATM   24  C5  UNL     1      13.413  22.741  14.424  1.00  0.00     0.272 C 
BRANCH  24  25
HETATM   25  N1  UNL     1      13.959  21.462  14.606  1.00  0.00     0.088 N 
HETATM   26  C4  UNL     1      13.002  20.580  15.253  1.00  0.00     0.273 C 
HETATM   27  C3  UNL     1      11.978  20.070  14.279  1.00  0.00     0.037 C 
HETATM   28  C2  UNL     1      12.708  19.323  13.192  1.00  0.00     0.012 C 
HETATM   29  C33 UNL     1      13.546  20.335  12.455  1.00  0.00     0.037 C 
HETATM   30  C32 UNL     1      14.549  20.879  13.451  1.00  0.00     0.273 C 
BRANCH  28  31
HETATM   31  C1  UNL     1      11.783  18.577  12.268  1.00  0.00     0.168 C 
BRANCH  31  32
HETATM   32  O1  UNL     1      10.534  18.349  12.855  1.00  0.00    -0.400 OA
ATOM     33  H1  UNL     1      10.342  18.984  13.534  1.00  0.00     0.209 HD
ENDBRANCH  31  32
ENDBRANCH  28  31
ENDBRANCH  24  25
ENDBRANCH  23  24
ENDBRANCH  22  23
ENDBRANCH   1  22
BRANCH   1  34
HETATM   34  O2  UNL     1      14.632  21.773  17.044  1.00  0.00    -0.386 OA
ATOM     35  H2  UNL     1      13.769  22.065  16.774  1.00  0.00     0.210 HD
ENDBRANCH   1  34
BRANCH  21  36
HETATM   36  O4  UNL     1      15.258  24.463  18.660  1.00  0.00    -0.384 OA
ATOM     37  H4  UNL     1      14.787  24.247  19.456  1.00  0.00     0.210 HD
ENDBRANCH  21  36
BRANCH  11  38
HETATM   38  O3  UNL     1      17.297  25.666  18.443  1.00  0.00    -0.389 OA
ATOM     39  H3  UNL     1      17.177  26.026  17.572  1.00  0.00     0.210 HD
ENDBRANCH  11  38
BRANCH   5  40
HETATM   40  C12 UNL     1      15.442  19.851  19.482  1.00  0.00     0.068 C 
BRANCH  40  41
HETATM   41  C13 UNL     1      14.702  18.925  18.580  1.00  0.00     0.024 A 
HETATM   42  C14 UNL     1      14.336  17.575  19.109  1.00  0.00     0.010 A 
HETATM   43  C15 UNL     1      13.303  18.585  18.909  1.00  0.00     0.010 A 
ENDBRANCH  40  41
ENDBRANCH   5  40
TORSDOF 11
ENDMDL
MODEL 4
REMARK VINA RESULT: -7.875168599      2.351      5.745
REMARK  11 active torsions:
REMARK  status: ('A' for Active; 'I' for Inactive)
REMARK    1  A    between atoms: O1_1  and  C1_3 
REMARK    2  A    between atoms: C1_3  and  C2_4 
REMARK    3  A    between atoms: N1_7  and  C5_8 
REMARK    4  A    between atoms: C5_8  and  C6_9 
REMARK    5  A    between atoms: C6_9  and  C7_10 
REMARK    6  A    between atoms: C7_10  and  C8_11 
REMARK    7  A    between atoms: C8_11  and  O2_12 
REMARK    8  A    between atoms: N2_17  and  C12_18 
REMARK    9  A    between atoms: C12_18  and  C13_19 
REMARK   10  A    between atoms: C21_27  and  O3_28 
REMARK   11  A    between atoms: C31_39  and  O4_40 
ROOT
HETATM    1  C8  UNL     1      16.738  23.112  18.324  1.00  0.00     0.100 C 
HETATM    2  C9  UNL     1      17.084  22.279  17.147  1.00  0.00     0.011 C 
HETATM    3  C10 UNL     1      18.284  21.439  17.710  1.00  0.00     0.058 C 
HETATM    4  C11 UNL     1      19.546  22.229  17.850  1.00  0.00     0.064 C 
HETATM    5  N2  UNL     1      19.505  23.474  18.466  1.00  0.00    -0.366 N 
HETATM    6  C16 UNL     1      18.837  24.566  17.947  1.00  0.00     0.126 C 
HETATM    7  C17 UNL     1      19.492  25.201  16.694  1.00  0.00     0.034 C 
HETATM    8  C18 UNL     1      18.560  25.855  15.781  1.00  0.00    -0.005 A 
HETATM    9  C19 UNL     1      18.659  26.141  14.352  1.00  0.00     0.013 A 
HETATM   10  C20 UNL     1      18.286  24.860  14.634  1.00  0.00     0.025 A 
HETATM   11  C21 UNL     1      17.087  24.089  15.188  1.00  0.00     0.073 C 
HETATM   12  C22 UNL     1      16.791  23.173  13.986  1.00  0.00     0.077 C 
HETATM   13  C23 UNL     1      15.740  22.209  14.211  1.00  0.00    -0.049 A 
HETATM   14  C24 UNL     1      14.914  22.146  13.083  1.00  0.00     0.007 A 
HETATM   15  C25 UNL     1      13.851  21.281  13.090  1.00  0.00     0.001 A 
HETATM   16  C26 UNL     1      13.597  20.483  14.183  1.00  0.00     0.001 A 
HETATM   17  C27 UNL     1      14.435  20.579  15.268  1.00  0.00     0.007 A 
HETATM   18  C28 UNL     1      15.534  21.445  15.316  1.00  0.00    -0.051 A 
HETATM   19  C29 UNL     1      16.171  21.267  16.614  1.00  0.00     0.052 C 
HETATM   20  C30 UNL     1      17.566  23.384  16.370  1.00  0.00     0.072 C 
HETATM   21  C31 UNL     1      17.413  24.236  17.580  1.00  0.00     0.117 C 
ENDROOT
BRANCH   1  22
HETATM   22  C7  UNL     1      15.394  23.313  18.846  1.00  0.00     0.043 C 
BRANCH  22  23
HETATM   23  C6  UNL     1      14.335  22.346  18.986  1.00  0.00     0.033 C 
BRANCH  23  24
HETATM   24  C5  UNL     1      14.614  21.396  20.154  1.00  0.00     0.272 C 
BRANCH  24  25
HETATM   25  N1  UNL     1      15.126  20.132  19.826  1.00  0.00     0.088 N 
HETATM   26  C4  UNL     1      14.966  19.207  20.936  1.00  0.00     0.273 C 
HETATM   27  C3  UNL     1      13.561  18.684  21.018  1.00  0.00     0.037 C 
HETATM   28  C2  UNL     1      13.253  17.982  19.720  1.00  0.00     0.012 C 
HETATM   29  C33 UNL     1      13.265  19.034  18.642  1.00  0.00     0.037 C 
HETATM   30  C32 UNL     1      14.672  19.591  18.591  1.00  0.00     0.273 C 
BRANCH  28  31
HETATM   31  C1  UNL     1      11.952  17.225  19.755  1.00  0.00     0.168 C 
BRANCH  31  32
HETATM   32  O1  UNL     1      10.930  17.974  20.346  1.00  0.00    -0.400 OA
ATOM     33  H1  UNL     1      10.110  17.496  20.370  1.00  0.00     0.209 HD
ENDBRANCH  31  32
ENDBRANCH  28  31
ENDBRANCH  24  25
ENDBRANCH  23  24
ENDBRANCH  22  23
ENDBRANCH   1  22
BRANCH   1  34
HETATM   34  O2  UNL     1      17.489  22.856  19.520  1.00  0.00    -0.386 OA
ATOM     35  H2  UNL     1      17.443  23.693  19.968  1.00  0.00     0.210 HD
ENDBRANCH   1  34
BRANCH  21  36
HETATM   36  O4  UNL     1      16.512  25.250  17.635  1.00  0.00    -0.384 OA
ATOM     37  H4  UNL     1      15.715  24.829  17.934  1.00  0.00     0.210 HD
ENDBRANCH  21  36
BRANCH  11  38
HETATM   38  O3  UNL     1      16.071  24.981  15.315  1.00  0.00    -0.389 OA
ATOM     39  H3  UNL     1      15.269  24.514  15.112  1.00  0.00     0.210 HD
ENDBRANCH  11  38
BRANCH   5  40
HETATM   40  C12 UNL     1      20.585  23.681  19.348  1.00  0.00     0.068 C 
BRANCH  40  41
HETATM   41  C13 UNL     1      20.315  24.756  20.343  1.00  0.00     0.024 A 
HETATM   42  C14 UNL     1      19.748  24.358  21.669  1.00  0.00     0.010 A 
HETATM   43  C15 UNL     1      21.135  24.803  21.572  1.00  0.00     0.010 A 
ENDBRANCH  40  41
ENDBRANCH   5  40
TORSDOF 11
ENDMDL
MODEL 5
REMARK VINA RESULT: -7.459376935      1.842      5.467
REMARK  11 active torsions:
REMARK  status: ('A' for Active; 'I' for Inactive)
REMARK    1  A    between atoms: O1_1  and  C1_3 
REMARK    2  A    between atoms: C1_3  and  C2_4 
REMARK    3  A    between atoms: N1_7  and  C5_8 
REMARK    4  A    between atoms: C5_8  and  C6_9 
REMARK    5  A    between atoms: C6_9  and  C7_10 
REMARK    6  A    between atoms: C7_10  and  C8_11 
REMARK    7  A    between atoms: C8_11  and  O2_12 
REMARK    8  A    between atoms: N2_17  and  C12_18 
REMARK    9  A    between atoms: C12_18  and  C13_19 
REMARK   10  A    between atoms: C21_27  and  O3_28 
REMARK   11  A    between atoms: C31_39  and  O4_40 
ROOT
HETATM    1  C8  UNL     1      15.906  21.855  18.062  1.00  0.00     0.100 C 
HETATM    2  C9  UNL     1      16.161  23.229  18.557  1.00  0.00     0.011 C 
HETATM    3  C10 UNL     1      14.721  23.850  18.490  1.00  0.00     0.058 C 
HETATM    4  C11 UNL     1      14.271  24.153  17.097  1.00  0.00     0.064 C 
HETATM    5  N2  UNL     1      14.420  23.190  16.108  1.00  0.00    -0.366 N 
HETATM    6  C16 UNL     1      15.645  22.741  15.651  1.00  0.00     0.126 C 
HETATM    7  C17 UNL     1      16.436  23.757  14.790  1.00  0.00     0.034 C 
HETATM    8  C18 UNL     1      17.888  23.615  14.855  1.00  0.00    -0.005 A 
HETATM    9  C19 UNL     1      18.958  24.579  14.612  1.00  0.00     0.013 A 
HETATM   10  C20 UNL     1      18.396  24.679  15.850  1.00  0.00     0.025 A 
HETATM   11  C21 UNL     1      18.335  23.907  17.169  1.00  0.00     0.073 C 
HETATM   12  C22 UNL     1      18.930  24.966  18.116  1.00  0.00     0.077 C 
HETATM   13  C23 UNL     1      18.930  24.592  19.510  1.00  0.00    -0.049 A 
HETATM   14  C24 UNL     1      20.152  24.952  20.091  1.00  0.00     0.007 A 
HETATM   15  C25 UNL     1      20.354  24.687  21.421  1.00  0.00     0.001 A 
HETATM   16  C26 UNL     1      19.377  24.079  22.177  1.00  0.00     0.001 A 
HETATM   17  C27 UNL     1      18.194  23.743  21.564  1.00  0.00     0.007 A 
HETATM   18  C28 UNL     1      17.933  23.989  20.210  1.00  0.00    -0.051 A 
HETATM   19  C29 UNL     1      16.591  23.496  19.930  1.00  0.00     0.052 C 
HETATM   20  C30 UNL     1      16.928  23.618  17.408  1.00  0.00     0.072 C 
HETATM   21  C31 UNL     1      16.551  22.322  16.782  1.00  0.00     0.117 C 
ENDROOT
BRANCH   1  22
HETATM   22  C7  UNL     1      16.384  20.633  18.692  1.00  0.00     0.043 C 
BRANCH  22  23
HETATM   23  C6  UNL     1      16.150  20.169  20.036  1.00  0.00     0.033 C 
BRANCH  23  24
HETATM   24  C5  UNL     1      14.676  19.806  20.239  1.00  0.00     0.272 C 
BRANCH  24  25
HETATM   25  N1  UNL     1      14.406  18.493  20.655  1.00  0.00     0.088 N 
HETATM   26  C4  UNL     1      13.109  18.415  21.306  1.00  0.00     0.273 C 
HETATM   27  C3  UNL     1      11.991  18.392  20.303  1.00  0.00     0.037 C 
HETATM   28  C2  UNL     1      12.191  17.189  19.417  1.00  0.00     0.012 C 
HETATM   29  C33 UNL     1      13.464  17.423  18.645  1.00  0.00     0.037 C 
HETATM   30  C32 UNL     1      14.584  17.489  19.663  1.00  0.00     0.273 C 
BRANCH  28  31
HETATM   31  C1  UNL     1      11.020  16.929  18.507  1.00  0.00     0.168 C 
BRANCH  31  32
HETATM   32  O1  UNL     1      11.391  16.183  17.383  1.00  0.00    -0.400 OA
ATOM     33  H1  UNL     1      10.768  16.282  16.672  1.00  0.00     0.209 HD
ENDBRANCH  31  32
ENDBRANCH  28  31
ENDBRANCH  24  25
ENDBRANCH  23  24
ENDBRANCH  22  23
ENDBRANCH   1  22
BRANCH   1  34
HETATM   34  O2  UNL     1      14.537  21.531  17.779  1.00  0.00    -0.386 OA
ATOM     35  H2  UNL     1      14.384  22.004  16.969  1.00  0.00     0.210 HD
ENDBRANCH   1  34
BRANCH  21  36
HETATM   36  O4  UNL     1      17.470  21.361  16.511  1.00  0.00    -0.384 OA
ATOM     37  H4  UNL     1      17.884  21.662  15.711  1.00  0.00     0.210 HD
ENDBRANCH  21  36
BRANCH  11  38
HETATM   38  O3  UNL     1      19.215  22.877  17.063  1.00  0.00    -0.389 OA
ATOM     39  H3  UNL     1      18.983  22.247  17.733  1.00  0.00     0.210 HD
ENDBRANCH  11  38
BRANCH   5  40
HETATM   40  C12 UNL     1      13.294  23.092  15.267  1.00  0.00     0.068 C 
BRANCH  40  41
HETATM   41  C13 UNL     1      13.086  21.714  14.743  1.00  0.00     0.024 A 
HETATM   42  C14 UNL     1      11.813  21.426  14.011  1.00  0.00     0.010 A 
HETATM   43  C15 UNL     1      13.074  21.507  13.280  1.00  0.00     0.010 A 
ENDBRANCH  40  41
ENDBRANCH   5  40
TORSDOF 11
ENDMDL
