MODEL 1
REMARK VINA RESULT: -10.242561549      0.000      0.000
REMARK  7 active torsions:
REMARK  status: ('A' for Active; 'I' for Inactive)
REMARK    1  A    between atoms: C1_2  and  C2_4 
REMARK    2  A    between atoms: C2_4  and  C3_5 
REMARK    3  A    between atoms: C7_11  and  C8_12 
REMARK    4  A    between atoms: N2_18  and  C14_19 
REMARK    5  A    between atoms: C14_19  and  C15_20 
REMARK    6  A    between atoms: C18_23  and  C19_24 
REMARK    7  A    between atoms: C19_24  and  N3_25 
ROOT
HETATM    1  C15 UNL     1      19.261  24.241  19.797  1.00  0.00    -0.040 A 
HETATM    2  C16 UNL     1      18.022  24.786  19.544  1.00  0.00     0.009 A 
HETATM    3  C17 UNL     1      16.896  24.018  19.348  1.00  0.00     0.009 A 
HETATM    4  C18 UNL     1      16.968  22.647  19.400  1.00  0.00    -0.030 A 
HETATM    5  C28 UNL     1      18.194  22.078  19.652  1.00  0.00     0.009 A 
HETATM    6  C29 UNL     1      19.312  22.866  19.845  1.00  0.00     0.009 A 
ENDROOT
BRANCH   1   7
HETATM    7  C14 UNL     1      20.435  25.101  20.007  1.00  0.00     0.164 C 
BRANCH   7   8
HETATM    8  N2  UNL     1      21.163  25.399  18.760  1.00  0.00    -0.346 N 
HETATM    9  C13 UNL     1      20.413  25.292  17.531  1.00  0.00     0.126 C 
HETATM   10  C12 UNL     1      19.599  26.477  17.165  1.00  0.00     0.025 C 
HETATM   11  C7  UNL     1      19.642  26.834  15.691  1.00  0.00    -0.009 C 
HETATM   12  C6  UNL     1      20.847  27.637  15.315  1.00  0.00     0.006 C 
HETATM   13  C5  UNL     1      22.054  26.891  14.894  1.00  0.00     0.020 C 
HETATM   14  C4  UNL     1      23.236  27.000  15.867  1.00  0.00     0.114 C 
HETATM   15  N1  UNL     1      22.747  27.433  17.123  1.00  0.00    -0.409 N 
HETATM   16  C3  UNL     1      23.258  26.863  18.297  1.00  0.00     0.179 C 
ATOM     17  H1  UNL     1      22.027  28.154  17.172  1.00  0.00     0.154 HD
HETATM   18  C30 UNL     1      22.525  25.739  18.899  1.00  0.00     0.243 C 
HETATM   19  O3  UNL     1      23.245  24.980  19.652  1.00  0.00    -0.271 OA
BRANCH  11  20
HETATM   20  C8  UNL     1      19.315  25.697  14.792  1.00  0.00    -0.010 C 
HETATM   21  C9  UNL     1      18.021  25.014  15.260  1.00  0.00     0.005 C 
HETATM   22  C10 UNL     1      17.564  24.968  13.802  1.00  0.00     0.001 C 
HETATM   23  C11 UNL     1      18.555  26.114  13.553  1.00  0.00     0.005 C 
ENDBRANCH  11  20
BRANCH  16  24
HETATM   24  C2  UNL     1      24.738  26.493  18.180  1.00  0.00     0.147 C 
BRANCH  24  25
HETATM   25  C1  UNL     1      25.617  27.600  18.587  1.00  0.00     0.175 C 
HETATM   26  O1  UNL     1      25.780  28.599  17.806  1.00  0.00    -0.648 OA
HETATM   27  O2  UNL     1      26.276  27.583  19.800  1.00  0.00    -0.648 OA
ENDBRANCH  24  25
ENDBRANCH  16  24
ENDBRANCH   7   8
ENDBRANCH   1   7
BRANCH   4  28
HETATM   28  C19 UNL     1      15.776  21.779  19.197  1.00  0.00     0.311 C 
BRANCH  28  29
HETATM   29  N3  UNL     1      15.552  21.420  17.836  1.00  0.00     0.094 N 
HETATM   30  C20 UNL     1      15.358  20.027  17.590  1.00  0.00     0.274 C 
HETATM   31  C21 UNL     1      14.030  19.514  18.084  1.00  0.00     0.057 C 
HETATM   32  C22 UNL     1      12.855  20.117  17.373  1.00  0.00     0.234 C 
HETATM   33  N4  UNL     1      13.119  20.192  15.947  1.00  0.00    -0.075 N 
HETATM   34  C23 UNL     1      12.375  21.243  15.312  1.00  0.00     0.233 C 
ATOM     35  H42 UNL     1      14.118  20.282  15.761  1.00  0.00     0.277 HD
ATOM     36  H41 UNL     1      12.951  19.294  15.493  1.00  0.00     0.277 HD
HETATM   37  C24 UNL     1      12.861  21.374  13.885  1.00  0.00     0.055 C 
HETATM   38  C25 UNL     1      14.366  21.532  13.928  1.00  0.00     0.234 C 
HETATM   39  N5  UNL     1      14.731  22.082  15.219  1.00  0.00    -0.073 N 
HETATM   40  C26 UNL     1      16.138  21.877  15.493  1.00  0.00     0.262 C 
ATOM     41  H52 UNL     1      14.473  23.066  15.295  1.00  0.00     0.277 HD
ATOM     42  H51 UNL     1      14.145  21.710  15.966  1.00  0.00     0.277 HD
HETATM   43  C27 UNL     1      16.500  22.038  16.929  1.00  0.00     0.300 C 
ENDBRANCH  28  29
ENDBRANCH   4  28
TORSDOF 7
ENDMDL
MODEL 2
REMARK VINA RESULT: -10.190486752      2.400      5.664
REMARK  7 active torsions:
REMARK  status: ('A' for Active; 'I' for Inactive)
REMARK    1  A    between atoms: C1_2  and  C2_4 
REMARK    2  A    between atoms: C2_4  and  C3_5 
REMARK    3  A    between atoms: C7_11  and  C8_12 
REMARK    4  A    between atoms: N2_18  and  C14_19 
REMARK    5  A    between atoms: C14_19  and  C15_20 
REMARK    6  A    between atoms: C18_23  and  C19_24 
REMARK    7  A    between atoms: C19_24  and  N3_25 
ROOT
HETATM    1  C15 UNL     1      16.121  23.452  14.472  1.00  0.00    -0.040 A 
HETATM    2  C16 UNL     1      16.064  22.260  13.783  1.00  0.00     0.009 A 
HETATM    3  C17 UNL     1      14.901  21.536  13.642  1.00  0.00     0.009 A 
HETATM    4  C18 UNL     1      13.727  21.986  14.196  1.00  0.00    -0.030 A 
HETATM    5  C28 UNL     1      13.758  23.172  14.889  1.00  0.00     0.009 A 
HETATM    6  C29 UNL     1      14.935  23.884  15.019  1.00  0.00     0.009 A 
ENDROOT
BRANCH   1   7
HETATM    7  C14 UNL     1      17.384  24.195  14.590  1.00  0.00     0.164 C 
BRANCH   7   8
HETATM    8  N2  UNL     1      17.761  24.475  15.988  1.00  0.00    -0.346 N 
HETATM    9  C13 UNL     1      17.106  23.686  17.005  1.00  0.00     0.126 C 
HETATM   10  C12 UNL     1      17.699  22.350  17.268  1.00  0.00     0.025 C 
HETATM   11  C7  UNL     1      17.771  21.977  18.737  1.00  0.00    -0.009 C 
HETATM   12  C6  UNL     1      18.959  22.561  19.434  1.00  0.00     0.006 C 
HETATM   13  C5  UNL     1      18.792  23.892  20.058  1.00  0.00     0.020 C 
HETATM   14  C4  UNL     1      19.603  25.010  19.387  1.00  0.00     0.114 C 
HETATM   15  N1  UNL     1      19.973  24.581  18.090  1.00  0.00    -0.409 N 
HETATM   16  C3  UNL     1      19.919  25.485  17.021  1.00  0.00     0.179 C 
ATOM     17  H1  UNL     1      20.278  23.619  17.936  1.00  0.00     0.154 HD
HETATM   18  C30 UNL     1      18.709  25.500  16.185  1.00  0.00     0.243 C 
HETATM   19  O3  UNL     1      18.512  26.608  15.558  1.00  0.00    -0.271 OA
BRANCH  11  20
HETATM   20  C8  UNL     1      16.473  22.106  19.450  1.00  0.00    -0.010 C 
HETATM   21  C9  UNL     1      15.518  20.988  19.005  1.00  0.00     0.005 C 
HETATM   22  C10 UNL     1      15.137  20.784  20.471  1.00  0.00     0.001 C 
HETATM   23  C11 UNL     1      16.474  21.456  20.816  1.00  0.00     0.005 C 
ENDBRANCH  11  20
BRANCH  16  24
HETATM   24  C2  UNL     1      20.259  26.917  17.439  1.00  0.00     0.147 C 
BRANCH  24  25
HETATM   25  C1  UNL     1      21.406  27.454  16.689  1.00  0.00     0.175 C 
HETATM   26  O1  UNL     1      21.304  28.583  16.099  1.00  0.00    -0.648 OA
HETATM   27  O2  UNL     1      22.595  26.759  16.606  1.00  0.00    -0.648 OA
ENDBRANCH  24  25
ENDBRANCH  16  24
ENDBRANCH   7   8
ENDBRANCH   1   7
BRANCH   4  28
HETATM   28  C19 UNL     1      12.447  21.236  14.066  1.00  0.00     0.311 C 
BRANCH  28  29
HETATM   29  N3  UNL     1      11.996  20.655  15.286  1.00  0.00     0.094 N 
HETATM   30  C20 UNL     1      10.607  20.824  15.572  1.00  0.00     0.274 C 
HETATM   31  C21 UNL     1       9.710  19.995  14.689  1.00  0.00     0.057 C 
HETATM   32  C22 UNL     1       9.885  18.518  14.881  1.00  0.00     0.234 C 
HETATM   33  N4  UNL     1       9.998  18.209  16.295  1.00  0.00    -0.075 N 
HETATM   34  C23 UNL     1      10.737  16.999  16.528  1.00  0.00     0.233 C 
ATOM     35  H42 UNL     1      10.398  18.991  16.813  1.00  0.00     0.277 HD
ATOM     36  H41 UNL     1       9.080  18.173  16.739  1.00  0.00     0.277 HD
HETATM   37  C24 UNL     1      10.974  16.866  18.017  1.00  0.00     0.055 C 
HETATM   38  C25 UNL     1      11.606  18.156  18.494  1.00  0.00     0.234 C 
HETATM   39  N5  UNL     1      12.283  18.777  17.371  1.00  0.00    -0.073 N 
HETATM   40  C26 UNL     1      12.547  20.176  17.633  1.00  0.00     0.262 C 
ATOM     41  H52 UNL     1      13.134  18.274  17.121  1.00  0.00     0.277 HD
ATOM     42  H51 UNL     1      11.764  18.649  16.503  1.00  0.00     0.277 HD
HETATM   43  C27 UNL     1      12.857  20.968  16.409  1.00  0.00     0.300 C 
ENDBRANCH  28  29
ENDBRANCH   4  28
TORSDOF 7
ENDMDL
MODEL 3
REMARK VINA RESULT: -9.977521300      2.373      5.447
REMARK  7 active torsions:
REMARK  status: ('A' for Active; 'I' for Inactive)
REMARK    1  A    between atoms: C1_2  and  C2_4 
REMARK    2  A    between atoms: C2_4  and  C3_5 
REMARK    3  A    between atoms: C7_11  and  C8_12 
REMARK    4  A    between atoms: N2_18  and  C14_19 
REMARK    5  A    between atoms: C14_19  and  C15_20 
REMARK    6  A    between atoms: C18_23  and  C19_24 
REMARK    7  A    between atoms: C19_24  and  N3_25 
ROOT
HETATM    1  C15 UNL     1      15.949  23.577  14.523  1.00  0.00    -0.040 A 
HETATM    2  C16 UNL     1      15.448  22.615  13.673  1.00  0.00     0.009 A 
HETATM    3  C17 UNL     1      14.163  22.130  13.772  1.00  0.00     0.009 A 
HETATM    4  C18 UNL     1      13.313  22.598  14.746  1.00  0.00    -0.030 A 
HETATM    5  C28 UNL     1      13.790  23.558  15.606  1.00  0.00     0.009 A 
HETATM    6  C29 UNL     1      15.082  24.032  15.490  1.00  0.00     0.009 A 
ENDROOT
BRANCH   1   7
HETATM    7  C14 UNL     1      17.326  24.070  14.374  1.00  0.00     0.164 C 
BRANCH   7   8
HETATM    8  N2  UNL     1      17.936  24.475  15.654  1.00  0.00    -0.346 N 
HETATM    9  C13 UNL     1      17.421  23.842  16.845  1.00  0.00     0.126 C 
HETATM   10  C12 UNL     1      17.989  22.509  17.165  1.00  0.00     0.025 C 
HETATM   11  C7  UNL     1      18.281  22.292  18.638  1.00  0.00    -0.009 C 
HETATM   12  C6  UNL     1      19.591  22.872  19.070  1.00  0.00     0.006 C 
HETATM   13  C5  UNL     1      19.586  24.271  19.553  1.00  0.00     0.020 C 
HETATM   14  C4  UNL     1      20.325  25.257  18.638  1.00  0.00     0.114 C 
HETATM   15  N1  UNL     1      20.462  24.669  17.359  1.00  0.00    -0.409 N 
HETATM   16  C3  UNL     1      20.275  25.455  16.213  1.00  0.00     0.179 C 
ATOM     17  H1  UNL     1      20.695  23.680  17.271  1.00  0.00     0.154 HD
HETATM   18  C30 UNL     1      18.948  25.455  15.580  1.00  0.00     0.243 C 
HETATM   19  O3  UNL     1      18.701  26.500  14.867  1.00  0.00    -0.271 OA
BRANCH  11  20
HETATM   20  C8  UNL     1      17.123  22.576  19.526  1.00  0.00    -0.010 C 
HETATM   21  C9  UNL     1      15.936  21.681  19.140  1.00  0.00     0.005 C 
HETATM   22  C10 UNL     1      15.703  21.417  20.627  1.00  0.00     0.001 C 
HETATM   23  C11 UNL     1      17.171  21.818  20.833  1.00  0.00     0.005 C 
ENDBRANCH  11  20
BRANCH  16  24
HETATM   24  C2  UNL     1      20.741  26.900  16.405  1.00  0.00     0.147 C 
BRANCH  24  25
HETATM   25  C1  UNL     1      22.185  27.050  16.165  1.00  0.00     0.175 C 
HETATM   26  O1  UNL     1      22.768  28.144  16.478  1.00  0.00    -0.648 OA
HETATM   27  O2  UNL     1      22.928  26.032  15.605  1.00  0.00    -0.648 OA
ENDBRANCH  24  25
ENDBRANCH  16  24
ENDBRANCH   7   8
ENDBRANCH   1   7
BRANCH   4  28
HETATM   28  C19 UNL     1      11.916  22.103  14.887  1.00  0.00     0.311 C 
BRANCH  28  29
HETATM   29  N3  UNL     1      11.827  20.711  15.180  1.00  0.00     0.094 N 
HETATM   30  C20 UNL     1      13.063  20.066  15.484  1.00  0.00     0.274 C 
HETATM   31  C21 UNL     1      13.623  20.451  16.829  1.00  0.00     0.057 C 
HETATM   32  C22 UNL     1      12.762  20.019  17.979  1.00  0.00     0.234 C 
HETATM   33  N4  UNL     1      12.271  18.672  17.757  1.00  0.00    -0.075 N 
HETATM   34  C23 UNL     1      11.032  18.426  18.443  1.00  0.00     0.233 C 
ATOM     35  H42 UNL     1      12.187  18.469  16.760  1.00  0.00     0.277 HD
ATOM     36  H41 UNL     1      12.975  17.977  18.004  1.00  0.00     0.277 HD
HETATM   37  C24 UNL     1      10.500  17.082  17.995  1.00  0.00     0.055 C 
HETATM   38  C25 UNL     1      10.454  17.091  16.482  1.00  0.00     0.234 C 
HETATM   39  N5  UNL     1      10.347  18.467  16.036  1.00  0.00    -0.073 N 
HETATM   40  C26 UNL     1      10.710  18.591  14.639  1.00  0.00     0.262 C 
ATOM     41  H52 UNL     1       9.420  18.851  16.219  1.00  0.00     0.277 HD
ATOM     42  H51 UNL     1      10.895  19.096  16.623  1.00  0.00     0.277 HD
HETATM   43  C27 UNL     1      11.019  19.986  14.220  1.00  0.00     0.300 C 
ENDBRANCH  28  29
ENDBRANCH   4  28
TORSDOF 7
ENDMDL
MODEL 4
REMARK VINA RESULT: -9.726916326      3.676     10.061
REMARK  7 active torsions:
REMARK  status: ('A' for Active; 'I' for Inactive)
REMARK    1  A    between atoms: C1_2  and  C2_4 
REMARK    2  A    between atoms: C2_4  and  C3_5 
REMARK    3  A    between atoms: C7_11  and  C8_12 
REMARK    4  A    between atoms: N2_18  and  C14_19 
REMARK    5  A    between atoms: C14_19  and  C15_20 
REMARK    6  A    between atoms: C18_23  and  C19_24 
REMARK    7  A    between atoms: C19_24  and  N3_25 
ROOT
HETATM    1  C15 UNL     1      19.204  25.963  14.178  1.00  0.00    -0.040 A 
HETATM    2  C16 UNL     1      19.171  27.299  14.514  1.00  0.00     0.009 A 
HETATM    3  C17 UNL     1      20.275  27.980  14.974  1.00  0.00     0.009 A 
HETATM    4  C18 UNL     1      21.482  27.337  15.119  1.00  0.00    -0.030 A 
HETATM    5  C28 UNL     1      21.541  26.004  14.791  1.00  0.00     0.009 A 
HETATM    6  C29 UNL     1      20.421  25.339  14.330  1.00  0.00     0.009 A 
ENDROOT
BRANCH   1   7
HETATM    7  C14 UNL     1      18.001  25.280  13.683  1.00  0.00     0.164 C 
BRANCH   7   8
HETATM    8  N2  UNL     1      17.386  24.393  14.688  1.00  0.00    -0.346 N 
HETATM    9  C13 UNL     1      17.992  24.381  15.998  1.00  0.00     0.126 C 
HETATM   10  C12 UNL     1      17.571  25.469  16.916  1.00  0.00     0.025 C 
HETATM   11  C7  UNL     1      17.340  25.024  18.348  1.00  0.00    -0.009 C 
HETATM   12  C6  UNL     1      15.989  24.418  18.565  1.00  0.00     0.006 C 
HETATM   13  C5  UNL     1      15.864  22.956  18.374  1.00  0.00     0.020 C 
HETATM   14  C4  UNL     1      15.006  22.546  17.169  1.00  0.00     0.114 C 
HETATM   15  N1  UNL     1      14.897  23.655  16.297  1.00  0.00    -0.409 N 
HETATM   16  C3  UNL     1      14.974  23.455  14.912  1.00  0.00     0.179 C 
ATOM     17  H1  UNL     1      14.764  24.594  16.674  1.00  0.00     0.154 HD
HETATM   18  C30 UNL     1      16.278  23.634  14.256  1.00  0.00     0.243 C 
HETATM   19  O3  UNL     1      16.400  23.005  13.138  1.00  0.00    -0.271 OA
BRANCH  11  20
HETATM   20  C8  UNL     1      18.485  24.281  18.935  1.00  0.00    -0.010 C 
HETATM   21  C9  UNL     1      19.730  25.179  18.969  1.00  0.00     0.005 C 
HETATM   22  C10 UNL     1      20.002  24.682  20.389  1.00  0.00     0.001 C 
HETATM   23  C11 UNL     1      18.511  24.319  20.447  1.00  0.00     0.005 C 
ENDBRANCH  11  20
BRANCH  16  24
HETATM   24  C2  UNL     1      14.370  22.120  14.472  1.00  0.00     0.147 C 
BRANCH  24  25
HETATM   25  C1  UNL     1      12.912  22.208  14.290  1.00  0.00     0.175 C 
HETATM   26  O1  UNL     1      12.299  23.286  14.603  1.00  0.00    -0.648 OA
HETATM   27  O2  UNL     1      12.187  21.146  13.789  1.00  0.00    -0.648 OA
ENDBRANCH  24  25
ENDBRANCH  16  24
ENDBRANCH   7   8
ENDBRANCH   1   7
BRANCH   4  28
HETATM   28  C19 UNL     1      22.701  28.035  15.611  1.00  0.00     0.311 C 
BRANCH  28  29
HETATM   29  N3  UNL     1      23.402  27.320  16.626  1.00  0.00     0.094 N 
HETATM   30  C20 UNL     1      24.334  26.345  16.160  1.00  0.00     0.274 C 
HETATM   31  C21 UNL     1      25.570  26.948  15.542  1.00  0.00     0.057 C 
HETATM   32  C22 UNL     1      26.403  27.728  16.516  1.00  0.00     0.234 C 
HETATM   33  N4  UNL     1      26.496  27.014  17.777  1.00  0.00    -0.075 N 
HETATM   34  C23 UNL     1      26.727  27.899  18.885  1.00  0.00     0.233 C 
ATOM     35  H42 UNL     1      25.673  26.433  17.934  1.00  0.00     0.277 HD
ATOM     36  H41 UNL     1      27.205  26.281  17.734  1.00  0.00     0.277 HD
HETATM   37  C24 UNL     1      26.609  27.098  20.164  1.00  0.00     0.055 C 
HETATM   38  C25 UNL     1      25.278  26.378  20.130  1.00  0.00     0.234 C 
HETATM   39  N5  UNL     1      24.380  27.117  19.264  1.00  0.00    -0.073 N 
HETATM   40  C26 UNL     1      23.259  26.297  18.856  1.00  0.00     0.262 C 
ATOM     41  H52 UNL     1      24.071  27.987  19.698  1.00  0.00     0.277 HD
ATOM     42  H51 UNL     1      24.870  27.510  18.461  1.00  0.00     0.277 HD
HETATM   43  C27 UNL     1      22.527  26.826  17.671  1.00  0.00     0.300 C 
ENDBRANCH  28  29
ENDBRANCH   4  28
TORSDOF 7
ENDMDL
MODEL 5
REMARK VINA RESULT: -9.706671862      1.567      2.237
REMARK  7 active torsions:
REMARK  status: ('A' for Active; 'I' for Inactive)
REMARK    1  A    between atoms: C1_2  and  C2_4 
REMARK    2  A    between atoms: C2_4  and  C3_5 
REMARK    3  A    between atoms: C7_11  and  C8_12 
REMARK    4  A    between atoms: N2_18  and  C14_19 
REMARK    5  A    between atoms: C14_19  and  C15_20 
REMARK    6  A    between atoms: C18_23  and  C19_24 
REMARK    7  A    between atoms: C19_24  and  N3_25 
ROOT
HETATM    1  C15 UNL     1      18.000  23.841  19.468  1.00  0.00    -0.040 A 
HETATM    2  C16 UNL     1      16.712  23.959  18.993  1.00  0.00     0.009 A 
HETATM    3  C17 UNL     1      15.782  22.951  19.104  1.00  0.00     0.009 A 
HETATM    4  C18 UNL     1      16.110  21.760  19.709  1.00  0.00    -0.030 A 
HETATM    5  C28 UNL     1      17.389  21.618  20.191  1.00  0.00     0.009 A 
HETATM    6  C29 UNL     1      18.309  22.642  20.070  1.00  0.00     0.009 A 
ENDROOT
BRANCH   1   7
HETATM    7  C14 UNL     1      18.958  24.948  19.334  1.00  0.00     0.164 C 
BRANCH   7   8
HETATM    8  N2  UNL     1      19.555  25.035  17.988  1.00  0.00    -0.346 N 
HETATM    9  C13 UNL     1      18.734  24.594  16.886  1.00  0.00     0.126 C 
HETATM   10  C12 UNL     1      17.767  25.591  16.360  1.00  0.00     0.025 C 
HETATM   11  C7  UNL     1      17.662  25.621  14.847  1.00  0.00    -0.009 C 
HETATM   12  C6  UNL     1      18.739  26.432  14.199  1.00  0.00     0.006 C 
HETATM   13  C5  UNL     1      19.988  25.729  13.829  1.00  0.00     0.020 C 
HETATM   14  C4  UNL     1      21.219  26.156  14.641  1.00  0.00     0.114 C 
HETATM   15  N1  UNL     1      20.777  26.803  15.819  1.00  0.00    -0.409 N 
HETATM   16  C3  UNL     1      21.434  26.553  17.032  1.00  0.00     0.179 C 
ATOM     17  H1  UNL     1      19.987  27.448  15.786  1.00  0.00     0.154 HD
HETATM   18  C30 UNL     1      20.877  25.523  17.923  1.00  0.00     0.243 C 
HETATM   19  O3  UNL     1      21.730  25.016  18.745  1.00  0.00    -0.271 OA
BRANCH  11  20
HETATM   20  C8  UNL     1      17.399  24.290  14.240  1.00  0.00    -0.010 C 
HETATM   21  C9  UNL     1      16.230  23.606  14.964  1.00  0.00     0.005 C 
HETATM   22  C10 UNL     1      15.672  23.202  13.600  1.00  0.00     0.001 C 
HETATM   23  C11 UNL     1      16.504  24.355  13.022  1.00  0.00     0.005 C 
ENDBRANCH  11  20
BRANCH  16  24
HETATM   24  C2  UNL     1      22.933  26.306  16.854  1.00  0.00     0.147 C 
BRANCH  24  25
HETATM   25  C1  UNL     1      23.712  27.550  16.954  1.00  0.00     0.175 C 
HETATM   26  O1  UNL     1      23.309  28.600  16.346  1.00  0.00    -0.648 OA
HETATM   27  O2  UNL     1      24.878  27.608  17.691  1.00  0.00    -0.648 OA
ENDBRANCH  24  25
ENDBRANCH  16  24
ENDBRANCH   7   8
ENDBRANCH   1   7
BRANCH   4  28
HETATM   28  C19 UNL     1      15.135  20.645  19.852  1.00  0.00     0.311 C 
BRANCH  28  29
HETATM   29  N3  UNL     1      14.518  20.261  18.626  1.00  0.00     0.094 N 
HETATM   30  C20 UNL     1      14.442  18.856  18.389  1.00  0.00     0.274 C 
HETATM   31  C21 UNL     1      13.441  18.154  19.269  1.00  0.00     0.057 C 
HETATM   32  C22 UNL     1      12.025  18.583  19.020  1.00  0.00     0.234 C 
HETATM   33  N4  UNL     1      11.781  18.698  17.594  1.00  0.00    -0.075 N 
HETATM   34  C23 UNL     1      10.731  19.633  17.297  1.00  0.00     0.233 C 
ATOM     35  H42 UNL     1      12.637  18.933  17.091  1.00  0.00     0.277 HD
ATOM     36  H41 UNL     1      11.594  17.787  17.177  1.00  0.00     0.277 HD
HETATM   37  C24 UNL     1      10.687  19.836  15.798  1.00  0.00     0.055 C 
HETATM   38  C25 UNL     1      12.082  20.210  15.347  1.00  0.00     0.234 C 
HETATM   39  N5  UNL     1      12.782  20.805  16.470  1.00  0.00    -0.073 N 
HETATM   40  C26 UNL     1      14.213  20.805  16.249  1.00  0.00     0.262 C 
ATOM     41  H52 UNL     1      12.434  21.741  16.677  1.00  0.00     0.277 HD
ATOM     42  H51 UNL     1      12.538  20.349  17.349  1.00  0.00     0.277 HD
HETATM   43  C27 UNL     1      15.012  21.012  17.489  1.00  0.00     0.300 C 
ENDBRANCH  28  29
ENDBRANCH   4  28
TORSDOF 7
ENDMDL
