MODEL 1
REMARK VINA RESULT: -9.090100824      0.000      0.000
REMARK  11 active torsions:
REMARK  status: ('A' for Active; 'I' for Inactive)
REMARK    1  A    between atoms: C2_2  and  C3_3 
REMARK    2  A    between atoms: C3_3  and  C4_4 
REMARK    3  A    between atoms: C4_4  and  C5_5 
REMARK    4  A    between atoms: C6_8  and  O1_9 
REMARK    5  A    between atoms: C7_11  and  C8_12 
REMARK    6  A    between atoms: C8_12  and  C9_13 
REMARK    7  A    between atoms: C13_20  and  C14_21 
REMARK    8  A    between atoms: C14_21  and  C16_23 
REMARK    9  A    between atoms: C23_31  and  O4_32 
REMARK   10  A    between atoms: C24_34  and  C25_35 
REMARK   11  A    between atoms: C25_35  and  N3_36 
ROOT
HETATM    1  C5  UNL     1      17.174  22.073  18.720  1.00  0.00     0.175 C 
HETATM    2  N1  UNL     1      16.349  23.182  19.111  1.00  0.00    -0.359 N 
ATOM      3  H1  UNL     1      15.388  22.926  19.337  1.00  0.00     0.162 HD
HETATM    4  C6  UNL     1      16.619  24.540  19.239  1.00  0.00     0.135 C 
HETATM    5  C7  UNL     1      17.782  25.246  19.739  1.00  0.00     0.159 C 
HETATM    6  N2  UNL     1      18.805  25.609  18.796  1.00  0.00    -0.344 N 
ATOM      7  H2  UNL     1      19.218  26.523  18.979  1.00  0.00     0.163 HD
HETATM    8  C12 UNL     1      19.345  24.974  17.692  1.00  0.00     0.271 C 
HETATM    9  O2  UNL     1      20.564  24.546  17.814  1.00  0.00    -0.266 OA
HETATM   10  C13 UNL     1      18.814  24.669  16.352  1.00  0.00     0.121 C 
HETATM   11  O3  UNL     1      17.460  24.700  16.172  1.00  0.00    -0.316 OA
HETATM   12  C23 UNL     1      17.098  23.841  15.207  1.00  0.00     0.290 C 
HETATM   13  C24 UNL     1      15.956  22.911  15.373  1.00  0.00     0.178 C 
HETATM   14  N4  UNL     1      15.979  21.921  16.394  1.00  0.00    -0.345 N 
ATOM     15  H4  UNL     1      15.130  21.356  16.416  1.00  0.00     0.163 HD
HETATM   16  C32 UNL     1      16.898  21.550  17.368  1.00  0.00     0.241 C 
HETATM   17  O5  UNL     1      17.667  20.563  17.059  1.00  0.00    -0.271 OA
ENDROOT
BRANCH  10  18
HETATM   18  C14 UNL     1      19.645  25.240  15.243  1.00  0.00     0.048 C 
HETATM   19  C15 UNL     1      21.017  24.535  15.246  1.00  0.00     0.017 C 
BRANCH  18  20
HETATM   20  C16 UNL     1      19.872  26.729  15.318  1.00  0.00    -0.004 C 
HETATM   21  C17 UNL     1      21.323  27.018  15.732  1.00  0.00     0.005 C 
HETATM   22  C18 UNL     1      21.550  28.507  15.587  1.00  0.00     0.005 C 
HETATM   23  C19 UNL     1      21.638  28.852  14.125  1.00  0.00    -0.019 C 
HETATM   24  C20 UNL     1      23.058  29.103  13.679  1.00  0.00     0.010 C 
HETATM   25  C21 UNL     1      20.935  27.805  13.322  1.00  0.00     0.005 C 
HETATM   26  C22 UNL     1      19.627  27.483  14.053  1.00  0.00     0.005 C 
ENDBRANCH  18  20
ENDBRANCH  10  18
BRANCH  12  27
HETATM   27  O4  UNL     1      16.736  24.630  14.077  1.00  0.00    -0.368 OA
ATOM     28  H4  UNL     1      17.468  25.210  13.907  1.00  0.00     0.212 HD
ENDBRANCH  12  27
BRANCH   5  29
HETATM   29  C8  UNL     1      18.390  24.561  20.977  1.00  0.00     0.037 C 
BRANCH  29  30
HETATM   30  C9  UNL     1      19.836  24.184  20.759  1.00  0.00    -0.020 C 
HETATM   31  C10 UNL     1      20.772  24.856  21.755  1.00  0.00     0.009 C 
HETATM   32  C11 UNL     1      19.953  22.694  20.996  1.00  0.00     0.009 C 
ENDBRANCH  29  30
ENDBRANCH   5  29
BRANCH  13  33
HETATM   33  C25 UNL     1      15.708  22.377  13.972  1.00  0.00     0.088 C 
BRANCH  33  34
HETATM   34  N3  UNL     1      14.486  21.835  13.633  1.00  0.00    -0.391 N 
HETATM   35  C26 UNL     1      13.288  22.581  13.725  1.00  0.00     0.122 C 
HETATM   36  C27 UNL     1      12.320  22.062  14.770  1.00  0.00     0.020 C 
HETATM   37  C28 UNL     1      11.759  20.757  14.265  1.00  0.00     0.002 C 
HETATM   38  C29 UNL     1      12.899  19.754  14.311  1.00  0.00     0.002 C 
HETATM   39  C30 UNL     1      13.560  19.648  12.960  1.00  0.00     0.020 C 
HETATM   40  C31 UNL     1      14.474  20.788  12.656  1.00  0.00     0.122 C 
ENDBRANCH  33  34
ENDBRANCH  13  33
BRANCH   4  41
HETATM   41  O1  UNL     1      15.638  25.300  18.834  1.00  0.00    -0.348 OA
ATOM     42  H1  UNL     1      15.751  26.214  19.069  1.00  0.00     0.219 HD
ENDBRANCH   4  41
BRANCH   1  43
HETATM   43  C4  UNL     1      16.940  21.007  19.769  1.00  0.00     0.035 C 
BRANCH  43  44
HETATM   44  C3  UNL     1      15.610  20.945  20.403  1.00  0.00     0.002 C 
BRANCH  44  45
HETATM   45  C2  UNL     1      14.880  19.734  19.754  1.00  0.00    -0.004 C 
HETATM   46  C1  UNL     1      14.446  18.787  20.835  1.00  0.00     0.005 C 
ENDBRANCH  44  45
ENDBRANCH  43  44
ENDBRANCH   1  43
TORSDOF 11
ENDMDL
MODEL 2
REMARK VINA RESULT: -8.368691922      2.236      7.442
REMARK  11 active torsions:
REMARK  status: ('A' for Active; 'I' for Inactive)
REMARK    1  A    between atoms: C2_2  and  C3_3 
REMARK    2  A    between atoms: C3_3  and  C4_4 
REMARK    3  A    between atoms: C4_4  and  C5_5 
REMARK    4  A    between atoms: C6_8  and  O1_9 
REMARK    5  A    between atoms: C7_11  and  C8_12 
REMARK    6  A    between atoms: C8_12  and  C9_13 
REMARK    7  A    between atoms: C13_20  and  C14_21 
REMARK    8  A    between atoms: C14_21  and  C16_23 
REMARK    9  A    between atoms: C23_31  and  O4_32 
REMARK   10  A    between atoms: C24_34  and  C25_35 
REMARK   11  A    between atoms: C25_35  and  N3_36 
ROOT
HETATM    1  C5  UNL     1      17.947  23.901  16.328  1.00  0.00     0.175 C 
HETATM    2  N1  UNL     1      16.851  24.454  17.074  1.00  0.00    -0.359 N 
ATOM      3  H1  UNL     1      16.303  25.142  16.559  1.00  0.00     0.162 HD
HETATM    4  C6  UNL     1      16.400  24.224  18.368  1.00  0.00     0.135 C 
HETATM    5  C7  UNL     1      16.300  23.007  19.149  1.00  0.00     0.159 C 
HETATM    6  N2  UNL     1      17.420  22.645  19.976  1.00  0.00    -0.344 N 
ATOM      7  H2  UNL     1      17.147  22.242  20.873  1.00  0.00     0.163 HD
HETATM    8  C12 UNL     1      18.789  22.729  19.806  1.00  0.00     0.271 C 
HETATM    9  O2  UNL     1      19.419  21.606  19.643  1.00  0.00    -0.266 OA
HETATM   10  C13 UNL     1      19.727  23.865  19.772  1.00  0.00     0.121 C 
HETATM   11  O3  UNL     1      19.219  25.114  19.550  1.00  0.00    -0.316 OA
HETATM   12  C23 UNL     1      20.129  25.883  18.932  1.00  0.00     0.290 C 
HETATM   13  C24 UNL     1      19.779  26.724  17.763  1.00  0.00     0.178 C 
HETATM   14  N4  UNL     1      19.313  26.124  16.561  1.00  0.00    -0.345 N 
ATOM     15  H4  UNL     1      19.091  26.808  15.838  1.00  0.00     0.163 HD
HETATM   16  C32 UNL     1      19.092  24.815  16.150  1.00  0.00     0.241 C 
HETATM   17  O5  UNL     1      20.051  24.273  15.483  1.00  0.00    -0.271 OA
ENDROOT
BRANCH  10  18
HETATM   18  C14 UNL     1      20.817  23.762  20.797  1.00  0.00     0.048 C 
HETATM   19  C15 UNL     1      20.186  23.899  22.198  1.00  0.00     0.017 C 
BRANCH  18  20
HETATM   20  C16 UNL     1      21.916  24.787  20.664  1.00  0.00    -0.004 C 
HETATM   21  C17 UNL     1      22.444  25.171  22.055  1.00  0.00     0.005 C 
HETATM   22  C18 UNL     1      23.672  26.031  21.852  1.00  0.00     0.005 C 
HETATM   23  C19 UNL     1      24.811  25.164  21.387  1.00  0.00    -0.019 C 
HETATM   24  C20 UNL     1      25.806  24.885  22.488  1.00  0.00     0.010 C 
HETATM   25  C21 UNL     1      24.266  23.928  20.746  1.00  0.00     0.005 C 
HETATM   26  C22 UNL     1      23.097  24.363  19.856  1.00  0.00     0.005 C 
ENDBRANCH  18  20
ENDBRANCH  10  18
BRANCH  12  27
HETATM   27  O4  UNL     1      20.593  26.819  19.900  1.00  0.00    -0.368 OA
ATOM     28  H4  UNL     1      20.944  27.557  19.416  1.00  0.00     0.212 HD
ENDBRANCH  12  27
BRANCH   5  29
HETATM   29  C8  UNL     1      15.828  21.810  18.303  1.00  0.00     0.037 C 
BRANCH  29  30
HETATM   30  C9  UNL     1      14.523  21.242  18.809  1.00  0.00    -0.020 C 
HETATM   31  C10 UNL     1      13.712  20.571  17.708  1.00  0.00     0.009 C 
HETATM   32  C11 UNL     1      14.863  20.162  19.813  1.00  0.00     0.009 C 
ENDBRANCH  29  30
ENDBRANCH   5  29
BRANCH  13  33
HETATM   33  C25 UNL     1      20.981  27.640  17.594  1.00  0.00     0.088 C 
BRANCH  33  34
HETATM   34  N3  UNL     1      21.864  27.454  16.552  1.00  0.00    -0.391 N 
HETATM   35  C26 UNL     1      22.712  26.323  16.486  1.00  0.00     0.122 C 
HETATM   36  C27 UNL     1      24.186  26.655  16.611  1.00  0.00     0.020 C 
HETATM   37  C28 UNL     1      24.607  27.353  15.342  1.00  0.00     0.002 C 
HETATM   38  C29 UNL     1      23.936  28.716  15.360  1.00  0.00     0.002 C 
HETATM   39  C30 UNL     1      22.656  28.682  14.562  1.00  0.00     0.020 C 
HETATM   40  C31 UNL     1      21.525  28.031  15.286  1.00  0.00     0.122 C 
ENDBRANCH  33  34
ENDBRANCH  13  33
BRANCH   4  41
HETATM   41  O1  UNL     1      15.996  25.308  18.974  1.00  0.00    -0.348 OA
ATOM     42  H1  UNL     1      16.708  25.829  19.325  1.00  0.00     0.219 HD
ENDBRANCH   4  41
BRANCH   1  43
HETATM   43  C4  UNL     1      17.362  23.501  14.990  1.00  0.00     0.035 C 
BRANCH  43  44
HETATM   44  C3  UNL     1      15.894  23.426  14.875  1.00  0.00     0.002 C 
BRANCH  44  45
HETATM   45  C2  UNL     1      15.550  21.914  14.742  1.00  0.00    -0.004 C 
HETATM   46  C1  UNL     1      15.097  21.636  13.338  1.00  0.00     0.005 C 
ENDBRANCH  44  45
ENDBRANCH  43  44
ENDBRANCH   1  43
TORSDOF 11
ENDMDL
MODEL 3
REMARK VINA RESULT: -8.231229402      2.415      6.804
REMARK  11 active torsions:
REMARK  status: ('A' for Active; 'I' for Inactive)
REMARK    1  A    between atoms: C2_2  and  C3_3 
REMARK    2  A    between atoms: C3_3  and  C4_4 
REMARK    3  A    between atoms: C4_4  and  C5_5 
REMARK    4  A    between atoms: C6_8  and  O1_9 
REMARK    5  A    between atoms: C7_11  and  C8_12 
REMARK    6  A    between atoms: C8_12  and  C9_13 
REMARK    7  A    between atoms: C13_20  and  C14_21 
REMARK    8  A    between atoms: C14_21  and  C16_23 
REMARK    9  A    between atoms: C23_31  and  O4_32 
REMARK   10  A    between atoms: C24_34  and  C25_35 
REMARK   11  A    between atoms: C25_35  and  N3_36 
ROOT
HETATM    1  C5  UNL     1      18.755  25.864  15.579  1.00  0.00     0.175 C 
HETATM    2  N1  UNL     1      19.831  25.200  14.895  1.00  0.00    -0.359 N 
ATOM      3  H1  UNL     1      19.535  24.655  14.086  1.00  0.00     0.162 HD
HETATM    4  C6  UNL     1      21.200  25.165  15.133  1.00  0.00     0.135 C 
HETATM    5  C7  UNL     1      22.126  26.191  15.567  1.00  0.00     0.159 C 
HETATM    6  N2  UNL     1      22.358  26.335  16.979  1.00  0.00    -0.344 N 
ATOM      7  H2  UNL     1      23.329  26.547  17.210  1.00  0.00     0.163 HD
HETATM    8  C12 UNL     1      21.537  26.246  18.088  1.00  0.00     0.271 C 
HETATM    9  O2  UNL     1      21.286  27.357  18.709  1.00  0.00    -0.266 OA
HETATM   10  C13 UNL     1      20.862  25.113  18.746  1.00  0.00     0.121 C 
HETATM   11  O3  UNL     1      20.703  23.956  18.037  1.00  0.00    -0.316 OA
HETATM   12  C23 UNL     1      19.601  23.308  18.445  1.00  0.00     0.290 C 
HETATM   13  C24 UNL     1      18.622  22.745  17.485  1.00  0.00     0.178 C 
HETATM   14  N4  UNL     1      17.917  23.601  16.595  1.00  0.00    -0.345 N 
ATOM     15  H4  UNL     1      17.286  23.092  15.975  1.00  0.00     0.163 HD
HETATM   16  C32 UNL     1      17.894  24.973  16.379  1.00  0.00     0.241 C 
HETATM   17  O5  UNL     1      16.950  25.614  16.979  1.00  0.00    -0.271 OA
ENDROOT
BRANCH  10  18
HETATM   18  C14 UNL     1      21.234  24.962  20.191  1.00  0.00     0.048 C 
HETATM   19  C15 UNL     1      20.091  25.535  21.054  1.00  0.00     0.017 C 
BRANCH  18  20
HETATM   20  C16 UNL     1      22.521  25.637  20.592  1.00  0.00    -0.004 C 
HETATM   21  C17 UNL     1      22.708  25.545  22.115  1.00  0.00     0.005 C 
HETATM   22  C18 UNL     1      24.100  26.045  22.432  1.00  0.00     0.005 C 
HETATM   23  C19 UNL     1      25.106  25.013  21.998  1.00  0.00    -0.019 C 
HETATM   24  C20 UNL     1      25.666  24.233  23.162  1.00  0.00     0.010 C 
HETATM   25  C21 UNL     1      24.508  24.151  20.933  1.00  0.00     0.005 C 
HETATM   26  C22 UNL     1      23.760  25.082  19.972  1.00  0.00     0.005 C 
ENDBRANCH  18  20
ENDBRANCH  10  18
BRANCH  12  27
HETATM   27  O4  UNL     1      20.049  22.173  19.182  1.00  0.00    -0.368 OA
ATOM     28  H4  UNL     1      19.349  21.947  19.782  1.00  0.00     0.212 HD
ENDBRANCH  12  27
BRANCH   5  29
HETATM   29  C8  UNL     1      21.832  27.556  14.915  1.00  0.00     0.037 C 
BRANCH  29  30
HETATM   30  C9  UNL     1      22.904  28.572  15.226  1.00  0.00    -0.020 C 
HETATM   31  C10 UNL     1      24.292  27.951  15.307  1.00  0.00     0.009 C 
HETATM   32  C11 UNL     1      22.939  29.556  14.076  1.00  0.00     0.009 C 
ENDBRANCH  29  30
ENDBRANCH   5  29
BRANCH  13  33
HETATM   33  C25 UNL     1      17.741  21.848  18.340  1.00  0.00     0.088 C 
BRANCH  33  34
HETATM   34  N3  UNL     1      16.372  21.848  18.177  1.00  0.00    -0.391 N 
HETATM   35  C26 UNL     1      15.683  20.728  17.656  1.00  0.00     0.122 C 
HETATM   36  C27 UNL     1      15.033  20.980  16.310  1.00  0.00     0.020 C 
HETATM   37  C28 UNL     1      13.864  21.906  16.533  1.00  0.00     0.002 C 
HETATM   38  C29 UNL     1      14.452  23.258  16.900  1.00  0.00     0.002 C 
HETATM   39  C30 UNL     1      14.487  23.427  18.398  1.00  0.00     0.020 C 
HETATM   40  C31 UNL     1      15.601  22.680  19.052  1.00  0.00     0.122 C 
ENDBRANCH  33  34
ENDBRANCH  13  33
BRANCH   4  41
HETATM   41  O1  UNL     1      21.729  23.991  14.921  1.00  0.00    -0.348 OA
ATOM     42  H1  UNL     1      21.531  23.640  14.061  1.00  0.00     0.219 HD
ENDBRANCH   4  41
BRANCH   1  43
HETATM   43  C4  UNL     1      17.956  26.557  14.495  1.00  0.00     0.035 C 
BRANCH  43  44
HETATM   44  C3  UNL     1      18.595  26.740  13.179  1.00  0.00     0.002 C 
BRANCH  44  45
HETATM   45  C2  UNL     1      18.768  28.276  12.994  1.00  0.00    -0.004 C 
HETATM   46  C1  UNL     1      20.020  28.536  12.208  1.00  0.00     0.005 C 
ENDBRANCH  44  45
ENDBRANCH  43  44
ENDBRANCH   1  43
TORSDOF 11
ENDMDL
MODEL 4
REMARK VINA RESULT: -7.914454307      1.959      6.893
REMARK  11 active torsions:
REMARK  status: ('A' for Active; 'I' for Inactive)
REMARK    1  A    between atoms: C2_2  and  C3_3 
REMARK    2  A    between atoms: C3_3  and  C4_4 
REMARK    3  A    between atoms: C4_4  and  C5_5 
REMARK    4  A    between atoms: C6_8  and  O1_9 
REMARK    5  A    between atoms: C7_11  and  C8_12 
REMARK    6  A    between atoms: C8_12  and  C9_13 
REMARK    7  A    between atoms: C13_20  and  C14_21 
REMARK    8  A    between atoms: C14_21  and  C16_23 
REMARK    9  A    between atoms: C23_31  and  O4_32 
REMARK   10  A    between atoms: C24_34  and  C25_35 
REMARK   11  A    between atoms: C25_35  and  N3_36 
ROOT
HETATM    1  C5  UNL     1      17.420  23.529  16.284  1.00  0.00     0.175 C 
HETATM    2  N1  UNL     1      16.333  24.092  17.037  1.00  0.00    -0.359 N 
ATOM      3  H1  UNL     1      15.779  24.774  16.521  1.00  0.00     0.162 HD
HETATM    4  C6  UNL     1      15.899  23.877  18.340  1.00  0.00     0.135 C 
HETATM    5  C7  UNL     1      15.809  22.670  19.137  1.00  0.00     0.159 C 
HETATM    6  N2  UNL     1      16.939  22.316  19.953  1.00  0.00    -0.344 N 
ATOM      7  H2  UNL     1      16.678  21.925  20.857  1.00  0.00     0.163 HD
HETATM    8  C12 UNL     1      18.306  22.397  19.764  1.00  0.00     0.271 C 
HETATM    9  O2  UNL     1      18.933  21.273  19.607  1.00  0.00    -0.266 OA
HETATM   10  C13 UNL     1      19.244  23.533  19.705  1.00  0.00     0.121 C 
HETATM   11  O3  UNL     1      18.734  24.780  19.475  1.00  0.00    -0.316 OA
HETATM   12  C23 UNL     1      19.636  25.541  18.835  1.00  0.00     0.290 C 
HETATM   13  C24 UNL     1      19.271  26.368  17.661  1.00  0.00     0.178 C 
HETATM   14  N4  UNL     1      18.789  25.754  16.473  1.00  0.00    -0.345 N 
ATOM     15  H4  UNL     1      18.558  26.430  15.744  1.00  0.00     0.163 HD
HETATM   16  C32 UNL     1      18.562  24.441  16.080  1.00  0.00     0.241 C 
HETATM   17  O5  UNL     1      19.513  23.890  15.407  1.00  0.00    -0.271 OA
ENDROOT
BRANCH  10  18
HETATM   18  C14 UNL     1      20.347  23.442  20.716  1.00  0.00     0.048 C 
HETATM   19  C15 UNL     1      19.720  23.448  22.126  1.00  0.00     0.017 C 
BRANCH  18  20
HETATM   20  C16 UNL     1      21.372  24.545  20.643  1.00  0.00    -0.004 C 
HETATM   21  C17 UNL     1      21.860  24.902  22.056  1.00  0.00     0.005 C 
HETATM   22  C18 UNL     1      23.026  25.853  21.907  1.00  0.00     0.005 C 
HETATM   23  C19 UNL     1      24.227  25.090  21.418  1.00  0.00    -0.019 C 
HETATM   24  C20 UNL     1      25.229  24.831  22.517  1.00  0.00     0.010 C 
HETATM   25  C21 UNL     1      23.777  23.849  20.716  1.00  0.00     0.005 C 
HETATM   26  C22 UNL     1      22.588  24.242  19.832  1.00  0.00     0.005 C 
ENDBRANCH  18  20
ENDBRANCH  10  18
BRANCH  12  27
HETATM   27  O4  UNL     1      20.113  26.488  19.787  1.00  0.00    -0.368 OA
ATOM     28  H4  UNL     1      20.393  27.249  19.293  1.00  0.00     0.212 HD
ENDBRANCH  12  27
BRANCH   5  29
HETATM   29  C8  UNL     1      15.326  21.463  18.310  1.00  0.00     0.037 C 
BRANCH  29  30
HETATM   30  C9  UNL     1      14.155  20.766  18.963  1.00  0.00    -0.020 C 
HETATM   31  C10 UNL     1      13.215  20.128  17.949  1.00  0.00     0.009 C 
HETATM   32  C11 UNL     1      14.715  19.637  19.801  1.00  0.00     0.009 C 
ENDBRANCH  29  30
ENDBRANCH   5  29
BRANCH  13  33
HETATM   33  C25 UNL     1      20.471  27.281  17.466  1.00  0.00     0.088 C 
BRANCH  33  34
HETATM   34  N3  UNL     1      21.091  27.373  16.238  1.00  0.00    -0.391 N 
HETATM   35  C26 UNL     1      21.383  28.622  15.641  1.00  0.00     0.122 C 
HETATM   36  C27 UNL     1      20.607  28.888  14.366  1.00  0.00     0.020 C 
HETATM   37  C28 UNL     1      21.153  27.972  13.300  1.00  0.00     0.002 C 
HETATM   38  C29 UNL     1      20.727  26.565  13.684  1.00  0.00     0.002 C 
HETATM   39  C30 UNL     1      21.836  25.866  14.430  1.00  0.00     0.020 C 
HETATM   40  C31 UNL     1      21.958  26.300  15.852  1.00  0.00     0.122 C 
ENDBRANCH  33  34
ENDBRANCH  13  33
BRANCH   4  41
HETATM   41  O1  UNL     1      15.503  24.969  18.937  1.00  0.00    -0.348 OA
ATOM     42  H1  UNL     1      14.725  25.349  18.547  1.00  0.00     0.219 HD
ENDBRANCH   4  41
BRANCH   1  43
HETATM   43  C4  UNL     1      16.817  23.114  14.958  1.00  0.00     0.035 C 
BRANCH  43  44
HETATM   44  C3  UNL     1      15.602  22.279  14.985  1.00  0.00     0.002 C 
BRANCH  44  45
HETATM   45  C2  UNL     1      15.332  21.865  13.510  1.00  0.00    -0.004 C 
HETATM   46  C1  UNL     1      14.257  20.818  13.484  1.00  0.00     0.005 C 
ENDBRANCH  44  45
ENDBRANCH  43  44
ENDBRANCH   1  43
TORSDOF 11
ENDMDL
MODEL 5
REMARK VINA RESULT: -7.646547719      2.516      7.953
REMARK  11 active torsions:
REMARK  status: ('A' for Active; 'I' for Inactive)
REMARK    1  A    between atoms: C2_2  and  C3_3 
REMARK    2  A    between atoms: C3_3  and  C4_4 
REMARK    3  A    between atoms: C4_4  and  C5_5 
REMARK    4  A    between atoms: C6_8  and  O1_9 
REMARK    5  A    between atoms: C7_11  and  C8_12 
REMARK    6  A    between atoms: C8_12  and  C9_13 
REMARK    7  A    between atoms: C13_20  and  C14_21 
REMARK    8  A    between atoms: C14_21  and  C16_23 
REMARK    9  A    between atoms: C23_31  and  O4_32 
REMARK   10  A    between atoms: C24_34  and  C25_35 
REMARK   11  A    between atoms: C25_35  and  N3_36 
ROOT
HETATM    1  C5  UNL     1      18.388  24.237  16.349  1.00  0.00     0.175 C 
HETATM    2  N1  UNL     1      17.293  24.840  17.059  1.00  0.00    -0.359 N 
ATOM      3  H1  UNL     1      16.800  25.559  16.530  1.00  0.00     0.162 HD
HETATM    4  C6  UNL     1      16.782  24.623  18.333  1.00  0.00     0.135 C 
HETATM    5  C7  UNL     1      16.592  23.406  19.098  1.00  0.00     0.159 C 
HETATM    6  N2  UNL     1      17.660  22.981  19.963  1.00  0.00    -0.344 N 
ATOM      7  H2  UNL     1      17.333  22.586  20.844  1.00  0.00     0.163 HD
HETATM    8  C12 UNL     1      19.037  22.997  19.845  1.00  0.00     0.271 C 
HETATM    9  O2  UNL     1      19.615  21.846  19.696  1.00  0.00    -0.266 OA
HETATM   10  C13 UNL     1      20.031  24.085  19.857  1.00  0.00     0.121 C 
HETATM   11  O3  UNL     1      19.596  25.360  19.629  1.00  0.00    -0.316 OA
HETATM   12  C23 UNL     1      20.566  26.087  19.052  1.00  0.00     0.290 C 
HETATM   13  C24 UNL     1      20.303  26.953  17.879  1.00  0.00     0.178 C 
HETATM   14  N4  UNL     1      19.853  26.387  16.655  1.00  0.00    -0.345 N 
ATOM     15  H4  UNL     1      19.694  27.087  15.930  1.00  0.00     0.163 HD
HETATM   16  C32 UNL     1      19.583  25.094  16.223  1.00  0.00     0.241 C 
HETATM   17  O5  UNL     1      20.539  24.509  15.587  1.00  0.00    -0.271 OA
ENDROOT
BRANCH  10  18
HETATM   18  C14 UNL     1      21.075  23.920  20.922  1.00  0.00     0.048 C 
HETATM   19  C15 UNL     1      20.407  24.121  22.298  1.00  0.00     0.017 C 
BRANCH  18  20
HETATM   20  C16 UNL     1      22.248  24.861  20.816  1.00  0.00    -0.004 C 
HETATM   21  C17 UNL     1      22.769  25.208  22.219  1.00  0.00     0.005 C 
HETATM   22  C18 UNL     1      24.061  25.976  22.047  1.00  0.00     0.005 C 
HETATM   23  C19 UNL     1      25.145  25.027  21.610  1.00  0.00    -0.019 C 
HETATM   24  C20 UNL     1      26.089  24.679  22.735  1.00  0.00     0.010 C 
HETATM   25  C21 UNL     1      24.527  23.833  20.956  1.00  0.00     0.005 C 
HETATM   26  C22 UNL     1      23.415  24.351  20.037  1.00  0.00     0.005 C 
ENDBRANCH  18  20
ENDBRANCH  10  18
BRANCH  12  27
HETATM   27  O4  UNL     1      21.039  26.991  20.047  1.00  0.00    -0.368 OA
ATOM     28  H4  UNL     1      20.356  27.639  20.169  1.00  0.00     0.212 HD
ENDBRANCH  12  27
BRANCH   5  29
HETATM   29  C8  UNL     1      16.093  22.241  18.223  1.00  0.00     0.037 C 
BRANCH  29  30
HETATM   30  C9  UNL     1      14.620  22.360  17.912  1.00  0.00    -0.020 C 
HETATM   31  C10 UNL     1      14.356  22.667  16.443  1.00  0.00     0.009 C 
HETATM   32  C11 UNL     1      13.991  21.013  18.190  1.00  0.00     0.009 C 
ENDBRANCH  29  30
ENDBRANCH   5  29
BRANCH  13  33
HETATM   33  C25 UNL     1      21.555  27.809  17.765  1.00  0.00     0.088 C 
BRANCH  33  34
HETATM   34  N3  UNL     1      22.320  27.783  16.618  1.00  0.00    -0.391 N 
HETATM   35  C26 UNL     1      23.153  26.684  16.301  1.00  0.00     0.122 C 
HETATM   36  C27 UNL     1      24.633  27.013  16.313  1.00  0.00     0.020 C 
HETATM   37  C28 UNL     1      24.916  27.889  15.119  1.00  0.00     0.002 C 
HETATM   38  C29 UNL     1      24.255  29.226  15.402  1.00  0.00     0.002 C 
HETATM   39  C30 UNL     1      22.896  29.290  14.750  1.00  0.00     0.020 C 
HETATM   40  C31 UNL     1      21.848  28.529  15.490  1.00  0.00     0.122 C 
ENDBRANCH  33  34
ENDBRANCH  13  33
BRANCH   4  41
HETATM   41  O1  UNL     1      16.410  25.721  18.933  1.00  0.00    -0.348 OA
ATOM     42  H1  UNL     1      15.506  25.701  19.224  1.00  0.00     0.219 HD
ENDBRANCH   4  41
BRANCH   1  43
HETATM   43  C4  UNL     1      17.835  23.878  14.986  1.00  0.00     0.035 C 
BRANCH  43  44
HETATM   44  C3  UNL     1      17.166  24.940  14.212  1.00  0.00     0.002 C 
BRANCH  44  45
HETATM   45  C2  UNL     1      18.283  25.635  13.381  1.00  0.00    -0.004 C 
HETATM   46  C1  UNL     1      18.164  27.122  13.548  1.00  0.00     0.005 C 
ENDBRANCH  44  45
ENDBRANCH  43  44
ENDBRANCH   1  43
TORSDOF 11
ENDMDL
