MODEL 1
REMARK VINA RESULT: -10.374292513      0.000      0.000
REMARK  10 active torsions:
REMARK  status: ('A' for Active; 'I' for Inactive)
REMARK       I    between atoms: C2_2  and  N1_4 
REMARK    1  A    between atoms: N1_4  and  C3_6 
REMARK    2  A    between atoms: C9_17  and  C10_18 
REMARK    3  A    between atoms: C12_23  and  C13_24 
REMARK    4  A    between atoms: C13_24  and  C14_25 
REMARK    5  A    between atoms: C14_25  and  C15_26 
REMARK    6  A    between atoms: C15_26  and  C16_27 
REMARK    7  A    between atoms: C16_27  and  C17_28 
REMARK    8  A    between atoms: C17_28  and  C18_29 
REMARK    9  A    between atoms: C18_29  and  C19_30 
REMARK   10  A    between atoms: C19_30  and  C20_31 
ROOT
HETATM    1  C10 UNL     1      17.619  24.444  19.061  1.00  0.00     0.216 C 
HETATM    2  C11 UNL     1      18.566  23.775  20.011  1.00  0.00     0.236 C 
HETATM    3  O4  UNL     1      18.160  23.435  21.143  1.00  0.00    -0.272 OA
HETATM    4  N3  UNL     1      19.907  23.556  19.573  1.00  0.00    -0.354 N 
ATOM      5  H3  UNL     1      20.400  22.721  19.888  1.00  0.00     0.162 HD
HETATM    6  C12 UNL     1      20.587  24.489  18.694  1.00  0.00     0.100 C 
HETATM    7  C25 UNL     1      19.706  24.972  17.574  1.00  0.00     0.042 C 
HETATM    8  C26 UNL     1      20.256  26.250  16.961  1.00  0.00     0.019 C 
HETATM    9  C27 UNL     1      19.912  26.150  15.466  1.00  0.00     0.001 C 
HETATM   10  C28 UNL     1      20.342  24.698  15.231  1.00  0.00     0.001 C 
HETATM   11  C29 UNL     1      19.746  24.001  16.405  1.00  0.00     0.019 C 
HETATM   12  C30 UNL     1      18.284  25.167  17.991  1.00  0.00     0.158 C 
HETATM   13  O5  UNL     1      17.604  26.007  17.384  1.00  0.00    -0.296 OA
ENDROOT
BRANCH   1  14
HETATM   14  C9  UNL     1      16.711  23.330  18.599  1.00  0.00     0.112 A 
HETATM   15  N2  UNL     1      16.300  23.339  17.382  1.00  0.00    -0.268 N 
HETATM   16  S1  UNL     1      15.264  22.143  16.715  1.00  0.00     0.266 S 
ATOM     17  H2  UNL     1      16.606  24.101  16.777  1.00  0.00     0.180 HD
HETATM   18  C7  UNL     1      14.932  20.993  17.994  1.00  0.00     0.108 A 
HETATM   19  O2  UNL     1      13.970  22.806  16.315  1.00  0.00    -0.200 OA
HETATM   20  O3  UNL     1      15.909  21.458  15.540  1.00  0.00    -0.200 OA
HETATM   21  C6  UNL     1      15.496  21.204  19.225  1.00  0.00     0.057 A 
HETATM   22  C8  UNL     1      14.117  19.896  17.769  1.00  0.00     0.057 A 
HETATM   23  C5  UNL     1      15.198  20.259  20.209  1.00  0.00     0.033 A 
HETATM   24  N5  UNL     1      16.323  22.302  19.483  1.00  0.00    -0.343 N 
HETATM   25  C4  UNL     1      14.402  19.167  20.029  1.00  0.00     0.032 A 
HETATM   26  C3  UNL     1      13.834  18.973  18.756  1.00  0.00     0.036 A 
ATOM     27  H5  UNL     1      16.693  22.368  20.431  1.00  0.00     0.167 HD
BRANCH  26  28
HETATM   28  N1  UNL     1      13.002  17.862  18.585  1.00  0.00    -0.327 N 
HETATM   29  C2  UNL     1      11.615  17.864  18.645  1.00  0.00     0.218 C 
HETATM   30  C1  UNL     1      10.808  16.595  18.452  1.00  0.00     0.117 C 
HETATM   31  O1  UNL     1      10.937  18.880  18.857  1.00  0.00    -0.274 OA
ATOM     32  H1  UNL     1      13.456  16.968  18.398  1.00  0.00     0.169 HD
ENDBRANCH  26  28
ENDBRANCH   1  14
BRANCH   6  33
HETATM   33  C13 UNL     1      21.136  25.651  19.549  1.00  0.00     0.026 C 
BRANCH  33  34
HETATM   34  C14 UNL     1      22.032  25.106  20.597  1.00  0.00     0.002 C 
BRANCH  34  35
HETATM   35  C15 UNL     1      23.362  24.634  20.217  1.00  0.00     0.000 C 
BRANCH  35  36
HETATM   36  C16 UNL     1      24.549  25.460  20.057  1.00  0.00     0.000 C 
BRANCH  36  37
HETATM   37  C17 UNL     1      25.073  25.798  18.723  1.00  0.00     0.000 C 
BRANCH  37  38
HETATM   38  C18 UNL     1      24.233  26.713  17.915  1.00  0.00     0.000 C 
BRANCH  38  39
HETATM   39  C19 UNL     1      23.952  26.421  16.503  1.00  0.00     0.005 C 
BRANCH  39  40
HETATM   40  C20 UNL     1      23.921  27.524  15.520  1.00  0.00    -0.011 C 
HETATM   41  C21 UNL     1      25.113  28.369  15.330  1.00  0.00     0.032 C 
HETATM   42  C22 UNL     1      24.701  29.821  14.973  1.00  0.00     0.232 C 
HETATM   43  N4  UNL     1      23.552  29.802  14.095  1.00  0.00    -0.075 N 
HETATM   44  C23 UNL     1      22.371  29.351  14.829  1.00  0.00     0.232 C 
ATOM     45  H42 UNL     1      23.400  30.704  13.643  1.00  0.00     0.277 HD
ATOM     46  H41 UNL     1      23.719  29.244  13.258  1.00  0.00     0.277 HD
HETATM   47  C24 UNL     1      22.756  28.449  15.955  1.00  0.00     0.032 C 
ENDBRANCH  39  40
ENDBRANCH  38  39
ENDBRANCH  37  38
ENDBRANCH  36  37
ENDBRANCH  35  36
ENDBRANCH  34  35
ENDBRANCH  33  34
ENDBRANCH   6  33
TORSDOF 10
ENDMDL
MODEL 2
REMARK VINA RESULT: -9.913176432      1.434      2.178
REMARK  10 active torsions:
REMARK  status: ('A' for Active; 'I' for Inactive)
REMARK       I    between atoms: C2_2  and  N1_4 
REMARK    1  A    between atoms: N1_4  and  C3_6 
REMARK    2  A    between atoms: C9_17  and  C10_18 
REMARK    3  A    between atoms: C12_23  and  C13_24 
REMARK    4  A    between atoms: C13_24  and  C14_25 
REMARK    5  A    between atoms: C14_25  and  C15_26 
REMARK    6  A    between atoms: C15_26  and  C16_27 
REMARK    7  A    between atoms: C16_27  and  C17_28 
REMARK    8  A    between atoms: C17_28  and  C18_29 
REMARK    9  A    between atoms: C18_29  and  C19_30 
REMARK   10  A    between atoms: C19_30  and  C20_31 
ROOT
HETATM    1  C10 UNL     1      17.618  24.424  19.138  1.00  0.00     0.216 C 
HETATM    2  C11 UNL     1      18.569  23.757  20.083  1.00  0.00     0.236 C 
HETATM    3  O4  UNL     1      18.168  23.413  21.216  1.00  0.00    -0.272 OA
HETATM    4  N3  UNL     1      19.909  23.541  19.641  1.00  0.00    -0.354 N 
ATOM      5  H3  UNL     1      20.405  22.706  19.952  1.00  0.00     0.162 HD
HETATM    6  C12 UNL     1      20.584  24.477  18.761  1.00  0.00     0.100 C 
HETATM    7  C25 UNL     1      19.699  24.960  17.645  1.00  0.00     0.042 C 
HETATM    8  C26 UNL     1      20.244  26.240  17.033  1.00  0.00     0.019 C 
HETATM    9  C27 UNL     1      19.896  26.142  15.538  1.00  0.00     0.001 C 
HETATM   10  C28 UNL     1      20.329  24.692  15.300  1.00  0.00     0.001 C 
HETATM   11  C29 UNL     1      19.738  23.991  16.475  1.00  0.00     0.019 C 
HETATM   12  C30 UNL     1      18.278  25.151  18.066  1.00  0.00     0.158 C 
HETATM   13  O5  UNL     1      17.594  25.991  17.464  1.00  0.00    -0.296 OA
ENDROOT
BRANCH   1  14
HETATM   14  C9  UNL     1      16.710  23.310  18.676  1.00  0.00     0.112 A 
HETATM   15  N2  UNL     1      16.291  23.322  17.462  1.00  0.00    -0.268 N 
HETATM   16  S1  UNL     1      15.256  22.126  16.796  1.00  0.00     0.266 S 
ATOM     17  H2  UNL     1      16.591  24.088  16.858  1.00  0.00     0.180 HD
HETATM   18  C7  UNL     1      14.936  20.969  18.072  1.00  0.00     0.108 A 
HETATM   19  O2  UNL     1      13.956  22.787  16.407  1.00  0.00    -0.200 OA
HETATM   20  O3  UNL     1      15.895  21.449  15.614  1.00  0.00    -0.200 OA
HETATM   21  C6  UNL     1      15.507  21.176  19.300  1.00  0.00     0.057 A 
HETATM   22  C8  UNL     1      14.123  19.870  17.848  1.00  0.00     0.057 A 
HETATM   23  C5  UNL     1      15.219  20.226  20.282  1.00  0.00     0.033 A 
HETATM   24  N5  UNL     1      16.332  22.276  19.558  1.00  0.00    -0.343 N 
HETATM   25  C4  UNL     1      14.426  19.132  20.102  1.00  0.00     0.032 A 
HETATM   26  C3  UNL     1      13.851  18.941  18.832  1.00  0.00     0.036 A 
ATOM     27  H5  UNL     1      16.708  22.339  20.504  1.00  0.00     0.167 HD
BRANCH  26  28
HETATM   28  N1  UNL     1      13.021  17.829  18.661  1.00  0.00    -0.327 N 
HETATM   29  C2  UNL     1      11.634  17.846  18.597  1.00  0.00     0.218 C 
HETATM   30  C1  UNL     1      10.830  16.574  18.417  1.00  0.00     0.117 C 
HETATM   31  O1  UNL     1      10.954  18.879  18.681  1.00  0.00    -0.274 OA
ATOM     32  H1  UNL     1      13.477  16.921  18.575  1.00  0.00     0.169 HD
ENDBRANCH  26  28
ENDBRANCH   1  14
BRANCH   6  33
HETATM   33  C13 UNL     1      21.134  25.638  19.617  1.00  0.00     0.026 C 
BRANCH  33  34
HETATM   34  C14 UNL     1      21.673  25.098  20.888  1.00  0.00     0.002 C 
BRANCH  34  35
HETATM   35  C15 UNL     1      21.555  25.898  22.105  1.00  0.00     0.000 C 
BRANCH  35  36
HETATM   36  C16 UNL     1      22.579  26.777  22.651  1.00  0.00     0.000 C 
BRANCH  36  37
HETATM   37  C17 UNL     1      23.973  26.328  22.803  1.00  0.00     0.000 C 
BRANCH  37  38
HETATM   38  C18 UNL     1      24.869  26.614  21.659  1.00  0.00     0.000 C 
BRANCH  38  39
HETATM   39  C19 UNL     1      25.391  25.523  20.825  1.00  0.00     0.005 C 
BRANCH  39  40
HETATM   40  C20 UNL     1      25.050  25.474  19.388  1.00  0.00    -0.011 C 
HETATM   41  C21 UNL     1      26.052  25.008  18.413  1.00  0.00     0.032 C 
HETATM   42  C22 UNL     1      25.881  25.749  17.060  1.00  0.00     0.232 C 
HETATM   43  N4  UNL     1      24.475  25.934  16.777  1.00  0.00    -0.075 N 
HETATM   44  C23 UNL     1      23.905  26.912  17.703  1.00  0.00     0.232 C 
ATOM     45  H42 UNL     1      24.310  26.189  15.803  1.00  0.00     0.277 HD
ATOM     46  H41 UNL     1      23.963  25.052  16.789  1.00  0.00     0.277 HD
HETATM   47  C24 UNL     1      24.652  26.920  18.996  1.00  0.00     0.032 C 
ENDBRANCH  39  40
ENDBRANCH  38  39
ENDBRANCH  37  38
ENDBRANCH  36  37
ENDBRANCH  35  36
ENDBRANCH  34  35
ENDBRANCH  33  34
ENDBRANCH   6  33
TORSDOF 10
ENDMDL
MODEL 3
REMARK VINA RESULT: -9.866944855      0.922      1.521
REMARK  10 active torsions:
REMARK  status: ('A' for Active; 'I' for Inactive)
REMARK       I    between atoms: C2_2  and  N1_4 
REMARK    1  A    between atoms: N1_4  and  C3_6 
REMARK    2  A    between atoms: C9_17  and  C10_18 
REMARK    3  A    between atoms: C12_23  and  C13_24 
REMARK    4  A    between atoms: C13_24  and  C14_25 
REMARK    5  A    between atoms: C14_25  and  C15_26 
REMARK    6  A    between atoms: C15_26  and  C16_27 
REMARK    7  A    between atoms: C16_27  and  C17_28 
REMARK    8  A    between atoms: C17_28  and  C18_29 
REMARK    9  A    between atoms: C18_29  and  C19_30 
REMARK   10  A    between atoms: C19_30  and  C20_31 
ROOT
HETATM    1  C10 UNL     1      17.691  24.615  19.008  1.00  0.00     0.216 C 
HETATM    2  C11 UNL     1      18.597  23.970  20.012  1.00  0.00     0.236 C 
HETATM    3  O4  UNL     1      18.149  23.676  21.141  1.00  0.00    -0.272 OA
HETATM    4  N3  UNL     1      19.948  23.719  19.628  1.00  0.00    -0.354 N 
ATOM      5  H3  UNL     1      20.420  22.890  19.989  1.00  0.00     0.162 HD
HETATM    6  C12 UNL     1      20.670  24.611  18.739  1.00  0.00     0.100 C 
HETATM    7  C25 UNL     1      19.834  25.064  17.574  1.00  0.00     0.042 C 
HETATM    8  C26 UNL     1      20.421  26.311  16.934  1.00  0.00     0.019 C 
HETATM    9  C27 UNL     1      20.126  26.162  15.433  1.00  0.00     0.001 C 
HETATM   10  C28 UNL     1      20.544  24.697  15.265  1.00  0.00     0.001 C 
HETATM   11  C29 UNL     1      19.900  24.051  16.443  1.00  0.00     0.019 C 
HETATM   12  C30 UNL     1      18.401  25.290  17.935  1.00  0.00     0.158 C 
HETATM   13  O5  UNL     1      17.753  26.116  17.276  1.00  0.00    -0.296 OA
ENDROOT
BRANCH   1  14
HETATM   14  C9  UNL     1      16.784  23.496  18.555  1.00  0.00     0.112 A 
HETATM   15  N2  UNL     1      16.375  23.492  17.337  1.00  0.00    -0.268 N 
HETATM   16  S1  UNL     1      15.341  22.289  16.681  1.00  0.00     0.266 S 
ATOM     17  H2  UNL     1      16.682  24.248  16.725  1.00  0.00     0.180 HD
HETATM   18  C7  UNL     1      15.008  21.152  17.971  1.00  0.00     0.108 A 
HETATM   19  O2  UNL     1      14.047  22.948  16.272  1.00  0.00    -0.200 OA
HETATM   20  O3  UNL     1      15.988  21.593  15.513  1.00  0.00    -0.200 OA
HETATM   21  C6  UNL     1      15.570  21.375  19.200  1.00  0.00     0.057 A 
HETATM   22  C8  UNL     1      14.193  20.052  17.756  1.00  0.00     0.057 A 
HETATM   23  C5  UNL     1      15.271  20.440  20.194  1.00  0.00     0.033 A 
HETATM   24  N5  UNL     1      16.396  22.477  19.448  1.00  0.00    -0.343 N 
HETATM   25  C4  UNL     1      14.476  19.346  20.023  1.00  0.00     0.032 A 
HETATM   26  C3  UNL     1      13.910  19.139  18.751  1.00  0.00     0.036 A 
ATOM     27  H5  UNL     1      16.764  22.552  20.397  1.00  0.00     0.167 HD
BRANCH  26  28
HETATM   28  N1  UNL     1      13.079  18.026  18.590  1.00  0.00    -0.327 N 
HETATM   29  C2  UNL     1      11.691  18.040  18.564  1.00  0.00     0.218 C 
HETATM   30  C1  UNL     1      10.884  16.768  18.392  1.00  0.00     0.117 C 
HETATM   31  O1  UNL     1      11.011  19.071  18.679  1.00  0.00    -0.274 OA
ATOM     32  H1  UNL     1      13.534  17.120  18.481  1.00  0.00     0.169 HD
ENDBRANCH  26  28
ENDBRANCH   1  14
BRANCH   6  33
HETATM   33  C13 UNL     1      21.206  25.797  19.570  1.00  0.00     0.026 C 
BRANCH  33  34
HETATM   34  C14 UNL     1      22.216  25.301  20.535  1.00  0.00     0.002 C 
BRANCH  34  35
HETATM   35  C15 UNL     1      23.238  24.363  20.073  1.00  0.00     0.000 C 
BRANCH  35  36
HETATM   36  C16 UNL     1      24.659  24.428  20.380  1.00  0.00     0.000 C 
BRANCH  36  37
HETATM   37  C17 UNL     1      25.646  23.656  19.606  1.00  0.00     0.000 C 
BRANCH  37  38
HETATM   38  C18 UNL     1      26.168  24.317  18.388  1.00  0.00     0.000 C 
BRANCH  38  39
HETATM   39  C19 UNL     1      26.451  25.759  18.382  1.00  0.00     0.005 C 
BRANCH  39  40
HETATM   40  C20 UNL     1      25.747  26.639  17.426  1.00  0.00    -0.011 C 
HETATM   41  C21 UNL     1      24.286  26.527  17.268  1.00  0.00     0.032 C 
HETATM   42  C22 UNL     1      23.871  26.841  15.806  1.00  0.00     0.232 C 
HETATM   43  N4  UNL     1      24.679  27.923  15.288  1.00  0.00    -0.075 N 
HETATM   44  C23 UNL     1      26.055  27.469  15.094  1.00  0.00     0.232 C 
ATOM     45  H42 UNL     1      24.284  28.322  14.437  1.00  0.00     0.277 HD
ATOM     46  H41 UNL     1      24.629  28.754  15.878  1.00  0.00     0.277 HD
HETATM   47  C24 UNL     1      26.390  26.365  16.042  1.00  0.00     0.032 C 
ENDBRANCH  39  40
ENDBRANCH  38  39
ENDBRANCH  37  38
ENDBRANCH  36  37
ENDBRANCH  35  36
ENDBRANCH  34  35
ENDBRANCH  33  34
ENDBRANCH   6  33
TORSDOF 10
ENDMDL
MODEL 4
REMARK VINA RESULT: -9.786206731      3.199     10.694
REMARK  10 active torsions:
REMARK  status: ('A' for Active; 'I' for Inactive)
REMARK       I    between atoms: C2_2  and  N1_4 
REMARK    1  A    between atoms: N1_4  and  C3_6 
REMARK    2  A    between atoms: C9_17  and  C10_18 
REMARK    3  A    between atoms: C12_23  and  C13_24 
REMARK    4  A    between atoms: C13_24  and  C14_25 
REMARK    5  A    between atoms: C14_25  and  C15_26 
REMARK    6  A    between atoms: C15_26  and  C16_27 
REMARK    7  A    between atoms: C16_27  and  C17_28 
REMARK    8  A    between atoms: C17_28  and  C18_29 
REMARK    9  A    between atoms: C18_29  and  C19_30 
REMARK   10  A    between atoms: C19_30  and  C20_31 
ROOT
HETATM    1  C10 UNL     1      17.389  25.236  16.826  1.00  0.00     0.216 C 
HETATM    2  C11 UNL     1      17.533  24.669  15.447  1.00  0.00     0.236 C 
HETATM    3  O4  UNL     1      17.810  25.431  14.496  1.00  0.00    -0.272 OA
HETATM    4  N3  UNL     1      17.344  23.264  15.279  1.00  0.00    -0.354 N 
ATOM      5  H3  UNL     1      17.898  22.769  14.581  1.00  0.00     0.162 HD
HETATM    6  C12 UNL     1      16.383  22.521  16.075  1.00  0.00     0.100 C 
HETATM    7  C25 UNL     1      16.414  22.911  17.528  1.00  0.00     0.042 C 
HETATM    8  C26 UNL     1      15.138  22.483  18.234  1.00  0.00     0.019 C 
HETATM    9  C27 UNL     1      15.583  22.100  19.655  1.00  0.00     0.001 C 
HETATM   10  C28 UNL     1      16.816  21.267  19.289  1.00  0.00     0.001 C 
HETATM   11  C29 UNL     1      17.482  22.125  18.270  1.00  0.00     0.019 C 
HETATM   12  C30 UNL     1      16.659  24.371  17.737  1.00  0.00     0.158 C 
HETATM   13  O5  UNL     1      16.209  24.900  18.763  1.00  0.00    -0.296 OA
ENDROOT
BRANCH   1  14
HETATM   14  C9  UNL     1      18.805  25.544  17.250  1.00  0.00     0.112 A 
HETATM   15  N2  UNL     1      19.531  26.274  16.482  1.00  0.00    -0.268 N 
HETATM   16  S1  UNL     1      21.155  26.706  16.831  1.00  0.00     0.266 S 
ATOM     17  H2  UNL     1      19.118  26.617  15.615  1.00  0.00     0.180 HD
HETATM   18  C7  UNL     1      21.553  25.972  18.371  1.00  0.00     0.108 A 
HETATM   19  O2  UNL     1      22.043  26.109  15.768  1.00  0.00    -0.200 OA
HETATM   20  O3  UNL     1      21.319  28.201  16.898  1.00  0.00    -0.200 OA
HETATM   21  C6  UNL     1      20.594  25.227  19.006  1.00  0.00     0.057 A 
HETATM   22  C8  UNL     1      22.808  26.136  18.933  1.00  0.00     0.057 A 
HETATM   23  C5  UNL     1      20.963  24.662  20.229  1.00  0.00     0.033 A 
HETATM   24  N5  UNL     1      19.319  25.042  18.463  1.00  0.00    -0.343 N 
HETATM   25  C4  UNL     1      22.186  24.801  20.817  1.00  0.00     0.032 A 
HETATM   26  C3  UNL     1      23.153  25.570  20.144  1.00  0.00     0.036 A 
ATOM     27  H5  UNL     1      18.678  24.471  19.016  1.00  0.00     0.167 HD
BRANCH  26  28
HETATM   28  N1  UNL     1      24.411  25.689  20.743  1.00  0.00    -0.327 N 
HETATM   29  C2  UNL     1      24.765  26.608  21.722  1.00  0.00     0.218 C 
HETATM   30  C1  UNL     1      26.166  26.656  22.299  1.00  0.00     0.117 C 
HETATM   31  O1  UNL     1      23.984  27.446  22.194  1.00  0.00    -0.274 OA
ATOM     32  H1  UNL     1      25.135  25.042  20.432  1.00  0.00     0.169 HD
ENDBRANCH  26  28
ENDBRANCH   1  14
BRANCH   6  33
HETATM   33  C13 UNL     1      14.985  22.709  15.449  1.00  0.00     0.026 C 
BRANCH  33  34
HETATM   34  C14 UNL     1      14.837  21.787  14.297  1.00  0.00     0.002 C 
BRANCH  34  35
HETATM   35  C15 UNL     1      13.505  21.557  13.740  1.00  0.00     0.000 C 
BRANCH  35  36
HETATM   36  C16 UNL     1      12.243  21.724  14.445  1.00  0.00     0.000 C 
BRANCH  36  37
HETATM   37  C17 UNL     1      11.696  20.656  15.299  1.00  0.00     0.000 C 
BRANCH  37  38
HETATM   38  C18 UNL     1      12.521  20.282  16.470  1.00  0.00     0.000 C 
BRANCH  38  39
HETATM   39  C19 UNL     1      11.933  19.544  17.596  1.00  0.00     0.005 C 
BRANCH  39  40
HETATM   40  C20 UNL     1      12.730  19.322  18.821  1.00  0.00    -0.011 C 
HETATM   41  C21 UNL     1      14.117  18.837  18.714  1.00  0.00     0.032 C 
HETATM   42  C22 UNL     1      14.473  17.933  19.924  1.00  0.00     0.232 C 
HETATM   43  N4  UNL     1      13.873  18.466  21.127  1.00  0.00    -0.075 N 
HETATM   44  C23 UNL     1      12.421  18.302  21.076  1.00  0.00     0.232 C 
ATOM     45  H42 UNL     1      14.274  18.056  21.970  1.00  0.00     0.277 HD
ATOM     46  H41 UNL     1      14.143  19.436  21.292  1.00  0.00     0.277 HD
HETATM   47  C24 UNL     1      11.936  18.291  19.663  1.00  0.00     0.032 C 
ENDBRANCH  39  40
ENDBRANCH  38  39
ENDBRANCH  37  38
ENDBRANCH  36  37
ENDBRANCH  35  36
ENDBRANCH  34  35
ENDBRANCH  33  34
ENDBRANCH   6  33
TORSDOF 10
ENDMDL
MODEL 5
REMARK VINA RESULT: -9.665393814      2.678      4.628
REMARK  10 active torsions:
REMARK  status: ('A' for Active; 'I' for Inactive)
REMARK       I    between atoms: C2_2  and  N1_4 
REMARK    1  A    between atoms: N1_4  and  C3_6 
REMARK    2  A    between atoms: C9_17  and  C10_18 
REMARK    3  A    between atoms: C12_23  and  C13_24 
REMARK    4  A    between atoms: C13_24  and  C14_25 
REMARK    5  A    between atoms: C14_25  and  C15_26 
REMARK    6  A    between atoms: C15_26  and  C16_27 
REMARK    7  A    between atoms: C16_27  and  C17_28 
REMARK    8  A    between atoms: C17_28  and  C18_29 
REMARK    9  A    between atoms: C18_29  and  C19_30 
REMARK   10  A    between atoms: C19_30  and  C20_31 
ROOT
HETATM    1  C10 UNL     1      17.652  24.509  19.119  1.00  0.00     0.216 C 
HETATM    2  C11 UNL     1      18.572  23.859  20.107  1.00  0.00     0.236 C 
HETATM    3  O4  UNL     1      18.138  23.547  21.237  1.00  0.00    -0.272 OA
HETATM    4  N3  UNL     1      19.922  23.623  19.708  1.00  0.00    -0.354 N 
ATOM      5  H3  UNL     1      20.403  22.793  20.053  1.00  0.00     0.162 HD
HETATM    6  C12 UNL     1      20.628  24.532  18.823  1.00  0.00     0.100 C 
HETATM    7  C25 UNL     1      19.777  24.992  17.671  1.00  0.00     0.042 C 
HETATM    8  C26 UNL     1      20.348  26.253  17.042  1.00  0.00     0.019 C 
HETATM    9  C27 UNL     1      20.040  26.119  15.541  1.00  0.00     0.001 C 
HETATM   10  C28 UNL     1      20.468  24.660  15.351  1.00  0.00     0.001 C 
HETATM   11  C29 UNL     1      19.840  23.994  16.527  1.00  0.00     0.019 C 
HETATM   12  C30 UNL     1      18.346  25.203  18.048  1.00  0.00     0.158 C 
HETATM   13  O5  UNL     1      17.685  26.032  17.406  1.00  0.00    -0.296 OA
ENDROOT
BRANCH   1  14
HETATM   14  C9  UNL     1      16.749  23.389  18.662  1.00  0.00     0.112 A 
HETATM   15  N2  UNL     1      16.339  23.390  17.444  1.00  0.00    -0.268 N 
HETATM   16  S1  UNL     1      15.309  22.186  16.782  1.00  0.00     0.266 S 
ATOM     17  H2  UNL     1      16.642  24.150  16.836  1.00  0.00     0.180 HD
HETATM   18  C7  UNL     1      14.982  21.040  18.066  1.00  0.00     0.108 A 
HETATM   19  O2  UNL     1      14.012  22.841  16.378  1.00  0.00    -0.200 OA
HETATM   20  O3  UNL     1      15.958  21.499  15.610  1.00  0.00    -0.200 OA
HETATM   21  C6  UNL     1      15.544  21.260  19.296  1.00  0.00     0.057 A 
HETATM   22  C8  UNL     1      14.172  19.939  17.846  1.00  0.00     0.057 A 
HETATM   23  C5  UNL     1      15.250  20.318  20.285  1.00  0.00     0.033 A 
HETATM   24  N5  UNL     1      16.366  22.363  19.550  1.00  0.00    -0.343 N 
HETATM   25  C4  UNL     1      14.459  19.221  20.109  1.00  0.00     0.032 A 
HETATM   26  C3  UNL     1      13.894  19.019  18.837  1.00  0.00     0.036 A 
ATOM     27  H5  UNL     1      16.735  22.435  20.498  1.00  0.00     0.167 HD
BRANCH  26  28
HETATM   28  N1  UNL     1      13.067  17.903  18.670  1.00  0.00    -0.327 N 
HETATM   29  C2  UNL     1      11.680  17.917  18.603  1.00  0.00     0.218 C 
HETATM   30  C1  UNL     1      10.878  16.642  18.428  1.00  0.00     0.117 C 
HETATM   31  O1  UNL     1      10.998  18.949  18.680  1.00  0.00    -0.274 OA
ATOM     32  H1  UNL     1      13.525  16.996  18.590  1.00  0.00     0.169 HD
ENDBRANCH  26  28
ENDBRANCH   1  14
BRANCH   6  33
HETATM   33  C13 UNL     1      21.162  25.711  19.663  1.00  0.00     0.026 C 
BRANCH  33  34
HETATM   34  C14 UNL     1      21.897  25.182  20.837  1.00  0.00     0.002 C 
BRANCH  34  35
HETATM   35  C15 UNL     1      23.358  25.236  20.842  1.00  0.00     0.000 C 
BRANCH  35  36
HETATM   36  C16 UNL     1      24.250  24.304  20.169  1.00  0.00     0.000 C 
BRANCH  36  37
HETATM   37  C17 UNL     1      25.553  23.937  20.749  1.00  0.00     0.000 C 
BRANCH  37  38
HETATM   38  C18 UNL     1      26.342  22.946  19.981  1.00  0.00     0.000 C 
BRANCH  38  39
HETATM   39  C19 UNL     1      25.690  21.778  19.373  1.00  0.00     0.005 C 
BRANCH  39  40
HETATM   40  C20 UNL     1      26.190  20.421  19.677  1.00  0.00    -0.011 C 
HETATM   41  C21 UNL     1      25.354  19.247  19.371  1.00  0.00     0.032 C 
HETATM   42  C22 UNL     1      25.596  18.120  20.410  1.00  0.00     0.232 C 
HETATM   43  N4  UNL     1      26.999  18.069  20.759  1.00  0.00    -0.075 N 
HETATM   44  C23 UNL     1      27.361  19.250  21.541  1.00  0.00     0.232 C 
ATOM     45  H42 UNL     1      27.243  17.202  21.239  1.00  0.00     0.277 HD
ATOM     46  H41 UNL     1      27.594  17.956  19.938  1.00  0.00     0.277 HD
HETATM   47  C24 UNL     1      26.480  20.406  21.200  1.00  0.00     0.032 C 
ENDBRANCH  39  40
ENDBRANCH  38  39
ENDBRANCH  37  38
ENDBRANCH  36  37
ENDBRANCH  35  36
ENDBRANCH  34  35
ENDBRANCH  33  34
ENDBRANCH   6  33
TORSDOF 10
ENDMDL
