MODEL 1
REMARK VINA RESULT: -6.129512893      0.000      0.000
REMARK  10 active torsions:
REMARK  status: ('A' for Active; 'I' for Inactive)
REMARK    1  A    between atoms: C2_2  and  C3_3 
REMARK    2  A    between atoms: C3_3  and  C5_5 
REMARK    3  A    between atoms: C7_10  and  C8_11 
REMARK    4  A    between atoms: C8_11  and  C9_12 
REMARK    5  A    between atoms: C8_11  and  C14_20 
REMARK    6  A    between atoms: C9_12  and  C10_13 
REMARK    7  A    between atoms: C17_25  and  O3_26 
REMARK    8  A    between atoms: C18_28  and  C19_29 
REMARK    9  A    between atoms: C24_36  and  C25_37 
REMARK   10  A    between atoms: C28_40  and  C29_41 
ROOT
HETATM    1  C5  UNL     1      11.090  16.111  12.723  1.00  0.00     0.169 C 
HETATM    2  N1  UNL     1      10.565  17.286  13.377  1.00  0.00    -0.347 N 
ATOM      3  H1  UNL     1      10.799  18.165  12.917  1.00  0.00     0.163 HD
HETATM    4  C6  UNL     1       9.802  17.424  14.515  1.00  0.00     0.241 C 
HETATM    5  O1  UNL     1       8.695  18.066  14.444  1.00  0.00    -0.271 OA
HETATM    6  C7  UNL     1      10.161  16.872  15.891  1.00  0.00     0.180 C 
HETATM    7  N3  UNL     1       8.949  16.260  16.409  1.00  0.00    -0.359 N 
ATOM      8  H3  UNL     1       8.735  16.583  17.352  1.00  0.00     0.162 HD
HETATM    9  C17 UNL     1       8.021  15.360  15.954  1.00  0.00     0.136 C 
HETATM   10  C18 UNL     1       8.005  14.015  15.359  1.00  0.00     0.163 C 
HETATM   11  N4  UNL     1       8.592  14.044  14.077  1.00  0.00    -0.380 N 
ATOM     12  H4  UNL     1       9.367  14.681  13.896  1.00  0.00     0.160 HD
HETATM   13  C23 UNL     1       8.123  13.204  13.034  1.00  0.00     0.016 C 
HETATM   14  C24 UNL     1       6.755  13.166  12.598  1.00  0.00     0.003 C 
HETATM   15  C28 UNL     1       9.248  12.989  12.036  1.00  0.00     0.104 C 
HETATM   16  S1  UNL     1       9.751  14.235  10.958  1.00  0.00    -0.079 SA
HETATM   17  C31 UNL     1      10.127  15.829  11.604  1.00  0.00     0.209 C 
HETATM   18  O4  UNL     1       9.573  16.794  11.116  1.00  0.00    -0.283 OA
ENDROOT
BRANCH   6  19
HETATM   19  C8  UNL     1      10.483  18.142  16.760  1.00  0.00     0.022 C 
BRANCH  19  20
HETATM   20  C9  UNL     1      11.584  18.877  15.983  1.00  0.00     0.021 C 
BRANCH  20  21
HETATM   21  C10 UNL     1      11.478  20.356  15.945  1.00  0.00     0.080 C 
HETATM   22  C11 UNL     1      11.321  20.759  14.464  1.00  0.00     0.034 C 
HETATM   23  C12 UNL     1      12.043  22.085  14.321  1.00  0.00     0.123 C 
HETATM   24  N2  UNL     1      12.946  22.134  15.435  1.00  0.00    -0.361 N 
HETATM   25  C13 UNL     1      12.895  20.918  16.142  1.00  0.00     0.221 C 
ATOM     26  H2  UNL     1      13.536  22.930  15.678  1.00  0.00     0.162 HD
HETATM   27  O2  UNL     1      13.788  20.373  16.804  1.00  0.00    -0.273 OA
ENDBRANCH  20  21
ENDBRANCH  19  20
BRANCH  19  28
HETATM   28  C14 UNL     1      11.067  17.716  18.057  1.00  0.00    -0.016 C 
HETATM   29  C15 UNL     1      12.535  17.422  18.143  1.00  0.00     0.010 C 
HETATM   30  C16 UNL     1      10.683  18.366  19.334  1.00  0.00     0.010 C 
ENDBRANCH  19  28
ENDBRANCH   6  19
BRANCH   9  31
HETATM   31  O3  UNL     1       6.778  15.858  16.100  1.00  0.00    -0.348 OA
ATOM     32  H3  UNL     1       6.135  15.164  16.017  1.00  0.00     0.219 HD
ENDBRANCH   9  31
BRANCH   1  33
HETATM   33  C3  UNL     1      12.470  16.369  12.121  1.00  0.00     0.012 C 
HETATM   34  C4  UNL     1      12.759  17.853  12.056  1.00  0.00     0.012 C 
BRANCH  33  35
HETATM   35  C2  UNL     1      12.640  15.813  10.751  1.00  0.00     0.002 C 
HETATM   36  C1  UNL     1      14.058  15.491  10.394  1.00  0.00     0.005 C 
ENDBRANCH  33  35
ENDBRANCH   1  33
BRANCH  10  37
HETATM   37  C19 UNL     1       8.455  13.009  16.355  1.00  0.00    -0.023 C 
HETATM   38  C20 UNL     1       9.914  12.690  15.934  1.00  0.00     0.017 C 
HETATM   39  C21 UNL     1       8.658  13.534  17.770  1.00  0.00     0.017 C 
HETATM   40  C22 UNL     1       7.729  11.738  16.462  1.00  0.00     0.017 C 
ENDBRANCH  10  37
BRANCH  15  41
HETATM   41  C29 UNL     1       9.012  11.694  11.250  1.00  0.00     0.017 C 
HETATM   42  C30 UNL     1       9.254  11.901   9.794  1.00  0.00     0.006 C 
ENDBRANCH  15  41
BRANCH  14  43
HETATM   43  C25 UNL     1       5.895  14.167  12.041  1.00  0.00     0.002 C 
HETATM   44  C26 UNL     1       5.569  14.013  10.571  1.00  0.00     0.013 C 
HETATM   45  C27 UNL     1       6.125  15.619  12.273  1.00  0.00     0.013 C 
ENDBRANCH  14  43
TORSDOF 10
ENDMDL
MODEL 2
REMARK VINA RESULT: -5.897294222      1.126      1.430
REMARK  10 active torsions:
REMARK  status: ('A' for Active; 'I' for Inactive)
REMARK    1  A    between atoms: C2_2  and  C3_3 
REMARK    2  A    between atoms: C3_3  and  C5_5 
REMARK    3  A    between atoms: C7_10  and  C8_11 
REMARK    4  A    between atoms: C8_11  and  C9_12 
REMARK    5  A    between atoms: C8_11  and  C14_20 
REMARK    6  A    between atoms: C9_12  and  C10_13 
REMARK    7  A    between atoms: C17_25  and  O3_26 
REMARK    8  A    between atoms: C18_28  and  C19_29 
REMARK    9  A    between atoms: C24_36  and  C25_37 
REMARK   10  A    between atoms: C28_40  and  C29_41 
ROOT
HETATM    1  C5  UNL     1      11.111  15.635  12.013  1.00  0.00     0.169 C 
HETATM    2  N1  UNL     1      10.501  16.787  12.633  1.00  0.00    -0.347 N 
ATOM      3  H1  UNL     1      10.797  17.682  12.244  1.00  0.00     0.163 HD
HETATM    4  C6  UNL     1       9.588  16.886  13.659  1.00  0.00     0.241 C 
HETATM    5  O1  UNL     1       8.502  17.536  13.461  1.00  0.00    -0.271 OA
HETATM    6  C7  UNL     1       9.754  16.279  15.049  1.00  0.00     0.180 C 
HETATM    7  N3  UNL     1       8.481  15.655  15.371  1.00  0.00    -0.359 N 
ATOM      8  H3  UNL     1       8.138  15.943  16.287  1.00  0.00     0.162 HD
HETATM    9  C17 UNL     1       7.625  14.779  14.757  1.00  0.00     0.136 C 
HETATM   10  C18 UNL     1       7.690  13.457  14.115  1.00  0.00     0.163 C 
HETATM   11  N4  UNL     1       8.448  13.532  12.928  1.00  0.00    -0.380 N 
ATOM     12  H4  UNL     1       9.242  14.171  12.881  1.00  0.00     0.160 HD
HETATM   13  C23 UNL     1       8.127  12.736  11.798  1.00  0.00     0.016 C 
HETATM   14  C24 UNL     1       6.832  12.722  11.177  1.00  0.00     0.003 C 
HETATM   15  C28 UNL     1       9.380  12.552  10.958  1.00  0.00     0.104 C 
HETATM   16  S1  UNL     1      10.027  13.835  10.008  1.00  0.00    -0.079 SA
HETATM   17  C31 UNL     1      10.312  15.401  10.762  1.00  0.00     0.209 C 
HETATM   18  O4  UNL     1       9.831  16.388  10.239  1.00  0.00    -0.283 OA
ENDROOT
BRANCH   6  19
HETATM   19  C8  UNL     1       9.953  17.513  16.003  1.00  0.00     0.022 C 
BRANCH  19  20
HETATM   20  C9  UNL     1      11.093  18.318  15.365  1.00  0.00     0.021 C 
BRANCH  20  21
HETATM   21  C10 UNL     1      10.934  19.793  15.373  1.00  0.00     0.080 C 
HETATM   22  C11 UNL     1      11.364  20.301  13.981  1.00  0.00     0.034 C 
HETATM   23  C12 UNL     1      12.011  21.652  14.220  1.00  0.00     0.123 C 
HETATM   24  N2  UNL     1      12.387  21.640  15.604  1.00  0.00    -0.361 N 
HETATM   25  C13 UNL     1      12.120  20.374  16.159  1.00  0.00     0.221 C 
ATOM     26  H2  UNL     1      12.786  22.430  16.111  1.00  0.00     0.162 HD
HETATM   27  O2  UNL     1      12.700  19.804  17.092  1.00  0.00    -0.273 OA
ENDBRANCH  20  21
ENDBRANCH  19  20
BRANCH  19  28
HETATM   28  C14 UNL     1      10.433  17.041  17.326  1.00  0.00    -0.016 C 
HETATM   29  C15 UNL     1      10.257  17.917  18.530  1.00  0.00     0.010 C 
HETATM   30  C16 UNL     1      10.222  15.644  17.776  1.00  0.00     0.010 C 
ENDBRANCH  19  28
ENDBRANCH   6  19
BRANCH   9  31
HETATM   31  O3  UNL     1       6.373  15.278  14.750  1.00  0.00    -0.348 OA
ATOM     32  H3  UNL     1       5.745  14.587  14.575  1.00  0.00     0.219 HD
ENDBRANCH   9  31
BRANCH   1  33
HETATM   33  C3  UNL     1      12.561  15.907  11.617  1.00  0.00     0.012 C 
HETATM   34  C4  UNL     1      12.941  17.339  11.925  1.00  0.00     0.012 C 
BRANCH  33  35
HETATM   35  C2  UNL     1      12.847  15.660  10.178  1.00  0.00     0.002 C 
HETATM   36  C1  UNL     1      14.265  15.275   9.894  1.00  0.00     0.005 C 
ENDBRANCH  33  35
ENDBRANCH   1  33
BRANCH  10  37
HETATM   37  C19 UNL     1       7.997  12.412  15.124  1.00  0.00    -0.023 C 
HETATM   38  C20 UNL     1       7.384  11.119  14.523  1.00  0.00     0.017 C 
HETATM   39  C21 UNL     1       9.465  12.025  15.238  1.00  0.00     0.017 C 
HETATM   40  C22 UNL     1       7.479  12.565  16.488  1.00  0.00     0.017 C 
ENDBRANCH  10  37
BRANCH  15  41
HETATM   41  C29 UNL     1       9.254  11.290  10.097  1.00  0.00     0.017 C 
HETATM   42  C30 UNL     1      10.146  11.364   8.905  1.00  0.00     0.006 C 
ENDBRANCH  15  41
BRANCH  14  43
HETATM   43  C25 UNL     1       6.059  13.749  10.545  1.00  0.00     0.002 C 
HETATM   44  C26 UNL     1       6.161  13.818   9.036  1.00  0.00     0.013 C 
HETATM   45  C27 UNL     1       6.068  15.154  11.034  1.00  0.00     0.013 C 
ENDBRANCH  14  43
TORSDOF 10
ENDMDL
MODEL 3
REMARK VINA RESULT: -5.892107210      7.571     11.103
REMARK  10 active torsions:
REMARK  status: ('A' for Active; 'I' for Inactive)
REMARK    1  A    between atoms: C2_2  and  C3_3 
REMARK    2  A    between atoms: C3_3  and  C5_5 
REMARK    3  A    between atoms: C7_10  and  C8_11 
REMARK    4  A    between atoms: C8_11  and  C9_12 
REMARK    5  A    between atoms: C8_11  and  C14_20 
REMARK    6  A    between atoms: C9_12  and  C10_13 
REMARK    7  A    between atoms: C17_25  and  O3_26 
REMARK    8  A    between atoms: C18_28  and  C19_29 
REMARK    9  A    between atoms: C24_36  and  C25_37 
REMARK   10  A    between atoms: C28_40  and  C29_41 
ROOT
HETATM    1  C5  UNL     1      17.867  24.654  15.019  1.00  0.00     0.169 C 
HETATM    2  N1  UNL     1      17.698  25.482  16.189  1.00  0.00    -0.347 N 
ATOM      3  H1  UNL     1      18.002  26.448  16.069  1.00  0.00     0.163 HD
HETATM    4  C6  UNL     1      17.197  25.194  17.439  1.00  0.00     0.241 C 
HETATM    5  O1  UNL     1      16.234  25.903  17.899  1.00  0.00    -0.271 OA
HETATM    6  C7  UNL     1      17.696  24.079  18.353  1.00  0.00     0.180 C 
HETATM    7  N3  UNL     1      16.508  23.419  18.869  1.00  0.00    -0.359 N 
ATOM      8  H3  UNL     1      16.535  23.329  19.884  1.00  0.00     0.162 HD
HETATM    9  C17 UNL     1      15.362  22.886  18.339  1.00  0.00     0.136 C 
HETATM   10  C18 UNL     1      14.988  21.928  17.288  1.00  0.00     0.163 C 
HETATM   11  N4  UNL     1      15.323  22.445  16.019  1.00  0.00    -0.380 N 
ATOM     12  H4  UNL     1      16.156  23.024  15.919  1.00  0.00     0.160 HD
HETATM   13  C23 UNL     1      14.523  22.174  14.879  1.00  0.00     0.016 C 
HETATM   14  C24 UNL     1      13.114  22.449  14.813  1.00  0.00     0.003 C 
HETATM   15  C28 UNL     1      15.385  22.301  13.635  1.00  0.00     0.104 C 
HETATM   16  S1  UNL     1      15.901  23.835  13.045  1.00  0.00    -0.079 SA
HETATM   17  C31 UNL     1      16.679  24.962  14.152  1.00  0.00     0.209 C 
HETATM   18  O4  UNL     1      16.232  26.090  14.234  1.00  0.00    -0.283 OA
ENDROOT
BRANCH   6  19
HETATM   19  C8  UNL     1      18.402  24.825  19.544  1.00  0.00     0.022 C 
BRANCH  19  20
HETATM   20  C9  UNL     1      19.875  24.921  19.125  1.00  0.00     0.021 C 
BRANCH  20  21
HETATM   21  C10 UNL     1      20.482  26.273  19.182  1.00  0.00     0.080 C 
HETATM   22  C11 UNL     1      20.232  26.938  17.813  1.00  0.00     0.034 C 
HETATM   23  C12 UNL     1      21.451  27.800  17.547  1.00  0.00     0.123 C 
HETATM   24  N2  UNL     1      22.478  27.255  18.388  1.00  0.00    -0.361 N 
HETATM   25  C13 UNL     1      22.001  26.095  19.029  1.00  0.00     0.221 C 
ATOM     26  H2  UNL     1      23.412  27.648  18.505  1.00  0.00     0.162 HD
HETATM   27  O2  UNL     1      22.642  25.107  19.410  1.00  0.00    -0.273 OA
ENDBRANCH  20  21
ENDBRANCH  19  20
BRANCH  19  28
HETATM   28  C14 UNL     1      18.343  23.976  20.761  1.00  0.00    -0.016 C 
HETATM   29  C15 UNL     1      19.063  22.661  20.778  1.00  0.00     0.010 C 
HETATM   30  C16 UNL     1      18.473  24.555  22.120  1.00  0.00     0.010 C 
ENDBRANCH  19  28
ENDBRANCH   6  19
BRANCH   9  31
HETATM   31  O3  UNL     1      14.281  23.386  18.969  1.00  0.00    -0.348 OA
ATOM     32  H3  UNL     1      13.599  23.589  18.339  1.00  0.00     0.219 HD
ENDBRANCH   9  31
BRANCH   1  33
HETATM   33  C3  UNL     1      19.136  25.015  14.249  1.00  0.00     0.012 C 
HETATM   34  C4  UNL     1      20.369  24.679  15.058  1.00  0.00     0.012 C 
BRANCH  33  35
HETATM   35  C2  UNL     1      19.218  26.452  13.870  1.00  0.00     0.002 C 
HETATM   36  C1  UNL     1      20.577  27.054  14.050  1.00  0.00     0.005 C 
ENDBRANCH  33  35
ENDBRANCH   1  33
BRANCH  10  37
HETATM   37  C19 UNL     1      15.421  20.558  17.665  1.00  0.00    -0.023 C 
HETATM   38  C20 UNL     1      16.893  20.482  17.181  1.00  0.00     0.017 C 
HETATM   39  C21 UNL     1      15.581  20.311  19.159  1.00  0.00     0.017 C 
HETATM   40  C22 UNL     1      14.703  19.406  17.107  1.00  0.00     0.017 C 
ENDBRANCH  10  37
BRANCH  15  41
HETATM   41  C29 UNL     1      14.773  21.490  12.487  1.00  0.00     0.017 C 
HETATM   42  C30 UNL     1      14.092  20.266  13.001  1.00  0.00     0.006 C 
ENDBRANCH  15  41
BRANCH  14  43
HETATM   43  C25 UNL     1      12.367  23.666  14.922  1.00  0.00     0.002 C 
HETATM   44  C26 UNL     1      11.732  24.168  13.643  1.00  0.00     0.013 C 
HETATM   45  C27 UNL     1      12.909  24.862  15.622  1.00  0.00     0.013 C 
ENDBRANCH  14  43
TORSDOF 10
ENDMDL
MODEL 4
REMARK VINA RESULT: -5.851547583      5.122      9.466
REMARK  10 active torsions:
REMARK  status: ('A' for Active; 'I' for Inactive)
REMARK    1  A    between atoms: C2_2  and  C3_3 
REMARK    2  A    between atoms: C3_3  and  C5_5 
REMARK    3  A    between atoms: C7_10  and  C8_11 
REMARK    4  A    between atoms: C8_11  and  C9_12 
REMARK    5  A    between atoms: C8_11  and  C14_20 
REMARK    6  A    between atoms: C9_12  and  C10_13 
REMARK    7  A    between atoms: C17_25  and  O3_26 
REMARK    8  A    between atoms: C18_28  and  C19_29 
REMARK    9  A    between atoms: C24_36  and  C25_37 
REMARK   10  A    between atoms: C28_40  and  C29_41 
ROOT
HETATM    1  C5  UNL     1      13.926  20.285  18.641  1.00  0.00     0.169 C 
HETATM    2  N1  UNL     1      15.310  20.178  18.245  1.00  0.00    -0.347 N 
ATOM      3  H1  UNL     1      15.852  19.502  18.783  1.00  0.00     0.163 HD
HETATM    4  C6  UNL     1      16.025  20.832  17.266  1.00  0.00     0.241 C 
HETATM    5  O1  UNL     1      16.652  20.138  16.390  1.00  0.00    -0.271 OA
HETATM    6  C7  UNL     1      16.146  22.346  17.125  1.00  0.00     0.180 C 
HETATM    7  N3  UNL     1      15.950  22.636  15.715  1.00  0.00    -0.359 N 
ATOM      8  H3  UNL     1      16.691  23.230  15.343  1.00  0.00     0.162 HD
HETATM    9  C17 UNL     1      15.025  22.315  14.757  1.00  0.00     0.136 C 
HETATM   10  C18 UNL     1      13.564  22.363  14.590  1.00  0.00     0.163 C 
HETATM   11  N4  UNL     1      12.945  21.459  15.477  1.00  0.00    -0.380 N 
ATOM     12  H4  UNL     1      13.356  21.299  16.397  1.00  0.00     0.160 HD
HETATM   13  C23 UNL     1      11.760  20.767  15.115  1.00  0.00     0.016 C 
HETATM   14  C24 UNL     1      11.641  19.959  13.934  1.00  0.00     0.003 C 
HETATM   15  C28 UNL     1      11.011  20.383  16.381  1.00  0.00     0.104 C 
HETATM   16  S1  UNL     1      11.567  19.121  17.412  1.00  0.00    -0.079 SA
HETATM   17  C31 UNL     1      13.240  19.134  17.961  1.00  0.00     0.209 C 
HETATM   18  O4  UNL     1      13.912  18.136  17.784  1.00  0.00    -0.283 OA
ENDROOT
BRANCH   6  19
HETATM   19  C8  UNL     1      17.642  22.664  17.491  1.00  0.00     0.022 C 
BRANCH  19  20
HETATM   20  C9  UNL     1      17.604  23.060  18.974  1.00  0.00     0.021 C 
BRANCH  20  21
HETATM   21  C10 UNL     1      18.857  22.845  19.737  1.00  0.00     0.080 C 
HETATM   22  C11 UNL     1      18.626  21.621  20.647  1.00  0.00     0.034 C 
HETATM   23  C12 UNL     1      19.409  21.899  21.916  1.00  0.00     0.123 C 
HETATM   24  N2  UNL     1      19.592  23.322  21.930  1.00  0.00    -0.361 N 
HETATM   25  C13 UNL     1      18.896  23.902  20.853  1.00  0.00     0.221 C 
ATOM     26  H2  UNL     1      20.144  23.836  22.617  1.00  0.00     0.162 HD
HETATM   27  O2  UNL     1      18.399  25.033  20.776  1.00  0.00    -0.273 OA
ENDBRANCH  20  21
ENDBRANCH  19  20
BRANCH  19  28
HETATM   28  C14 UNL     1      18.094  23.854  16.727  1.00  0.00    -0.016 C 
HETATM   29  C15 UNL     1      17.720  25.224  17.209  1.00  0.00     0.010 C 
HETATM   30  C16 UNL     1      19.468  23.950  16.178  1.00  0.00     0.010 C 
ENDBRANCH  19  28
ENDBRANCH   6  19
BRANCH   9  31
HETATM   31  O3  UNL     1      15.638  21.820  13.664  1.00  0.00    -0.348 OA
ATOM     32  H3  UNL     1      15.462  22.372  12.910  1.00  0.00     0.219 HD
ENDBRANCH   9  31
BRANCH   1  33
HETATM   33  C3  UNL     1      13.756  20.126  20.151  1.00  0.00     0.012 C 
HETATM   34  C4  UNL     1      14.978  20.632  20.885  1.00  0.00     0.012 C 
BRANCH  33  35
HETATM   35  C2  UNL     1      13.516  18.722  20.583  1.00  0.00     0.002 C 
HETATM   36  C1  UNL     1      12.138  18.473  21.110  1.00  0.00     0.005 C 
ENDBRANCH  33  35
ENDBRANCH   1  33
BRANCH  10  37
HETATM   37  C19 UNL     1      13.101  23.773  14.529  1.00  0.00    -0.023 C 
HETATM   38  C20 UNL     1      13.010  24.203  16.017  1.00  0.00     0.017 C 
HETATM   39  C21 UNL     1      14.115  24.771  13.987  1.00  0.00     0.017 C 
HETATM   40  C22 UNL     1      11.812  24.072  13.894  1.00  0.00     0.017 C 
ENDBRANCH  10  37
BRANCH  15  41
HETATM   41  C29 UNL     1       9.525  20.175  16.068  1.00  0.00     0.017 C 
HETATM   42  C30 UNL     1       8.901  21.435  15.573  1.00  0.00     0.006 C 
ENDBRANCH  15  41
BRANCH  14  43
HETATM   43  C25 UNL     1      12.338  18.786  13.496  1.00  0.00     0.002 C 
HETATM   44  C26 UNL     1      13.540  19.026  12.609  1.00  0.00     0.013 C 
HETATM   45  C27 UNL     1      11.621  17.612  12.929  1.00  0.00     0.013 C 
ENDBRANCH  14  43
TORSDOF 10
ENDMDL
MODEL 5
REMARK VINA RESULT: -5.566158044      2.587      6.439
REMARK  10 active torsions:
REMARK  status: ('A' for Active; 'I' for Inactive)
REMARK    1  A    between atoms: C2_2  and  C3_3 
REMARK    2  A    between atoms: C3_3  and  C5_5 
REMARK    3  A    between atoms: C7_10  and  C8_11 
REMARK    4  A    between atoms: C8_11  and  C9_12 
REMARK    5  A    between atoms: C8_11  and  C14_20 
REMARK    6  A    between atoms: C9_12  and  C10_13 
REMARK    7  A    between atoms: C17_25  and  O3_26 
REMARK    8  A    between atoms: C18_28  and  C19_29 
REMARK    9  A    between atoms: C24_36  and  C25_37 
REMARK   10  A    between atoms: C28_40  and  C29_41 
ROOT
HETATM    1  C5  UNL     1       9.497  16.813  15.533  1.00  0.00     0.169 C 
HETATM    2  N1  UNL     1      10.566  16.372  14.670  1.00  0.00    -0.347 N 
ATOM      3  H1  UNL     1      11.502  16.554  15.031  1.00  0.00     0.163 HD
HETATM    4  C6  UNL     1      10.541  15.747  13.444  1.00  0.00     0.241 C 
HETATM    5  O1  UNL     1      11.173  14.641  13.299  1.00  0.00    -0.271 OA
HETATM    6  C7  UNL     1       9.813  16.262  12.206  1.00  0.00     0.180 C 
HETATM    7  N3  UNL     1       9.122  15.116  11.638  1.00  0.00    -0.359 N 
ATOM      8  H3  UNL     1       9.312  15.014  10.642  1.00  0.00     0.162 HD
HETATM    9  C17 UNL     1       8.280  14.138  12.100  1.00  0.00     0.136 C 
HETATM   10  C18 UNL     1       7.027  14.048  12.865  1.00  0.00     0.163 C 
HETATM   11  N4  UNL     1       7.236  14.482  14.191  1.00  0.00    -0.380 N 
ATOM     12  H4  UNL     1       7.901  15.233  14.373  1.00  0.00     0.160 HD
HETATM   13  C23 UNL     1       6.538  13.891  15.277  1.00  0.00     0.016 C 
HETATM   14  C24 UNL     1       6.543  12.481  15.552  1.00  0.00     0.003 C 
HETATM   15  C28 UNL     1       6.473  14.892  16.418  1.00  0.00     0.104 C 
HETATM   16  S1  UNL     1       7.859  15.270  17.369  1.00  0.00    -0.079 SA
HETATM   17  C31 UNL     1       9.356  15.725  16.561  1.00  0.00     0.209 C 
HETATM   18  O4  UNL     1      10.372  15.122  16.847  1.00  0.00    -0.283 OA
ENDROOT
BRANCH   6  19
HETATM   19  C8  UNL     1      10.958  16.687  11.216  1.00  0.00     0.022 C 
BRANCH  19  20
HETATM   20  C9  UNL     1      11.266  15.418  10.409  1.00  0.00     0.021 C 
BRANCH  20  21
HETATM   21  C10 UNL     1      11.315  15.580   8.936  1.00  0.00     0.080 C 
HETATM   22  C11 UNL     1      10.860  17.021   8.625  1.00  0.00     0.034 C 
HETATM   23  C12 UNL     1      10.112  16.940   7.308  1.00  0.00     0.123 C 
HETATM   24  N2  UNL     1       9.726  15.564   7.189  1.00  0.00    -0.361 N 
HETATM   25  C13 UNL     1      10.081  14.867   8.359  1.00  0.00     0.221 C 
ATOM     26  H2  UNL     1       9.263  15.152   6.378  1.00  0.00     0.162 HD
HETATM   27  O2  UNL     1       9.537  13.874   8.860  1.00  0.00    -0.273 OA
ENDBRANCH  20  21
ENDBRANCH  19  20
BRANCH  19  28
HETATM   28  C14 UNL     1      12.179  17.024  11.991  1.00  0.00    -0.016 C 
HETATM   29  C15 UNL     1      13.488  16.399  11.612  1.00  0.00     0.010 C 
HETATM   30  C16 UNL     1      12.473  18.415  12.413  1.00  0.00     0.010 C 
ENDBRANCH  19  28
ENDBRANCH   6  19
BRANCH   9  31
HETATM   31  O3  UNL     1       8.739  12.922  11.745  1.00  0.00    -0.348 OA
ATOM     32  H3  UNL     1       9.132  12.488  12.493  1.00  0.00     0.219 HD
ENDBRANCH   9  31
BRANCH   1  33
HETATM   33  C3  UNL     1       9.850  18.115  16.251  1.00  0.00     0.012 C 
HETATM   34  C4  UNL     1      10.182  19.204  15.255  1.00  0.00     0.012 C 
BRANCH  33  35
HETATM   35  C2  UNL     1      11.000  17.990  17.188  1.00  0.00     0.002 C 
HETATM   36  C1  UNL     1      10.677  18.359  18.603  1.00  0.00     0.005 C 
ENDBRANCH  33  35
ENDBRANCH   1  33
BRANCH  10  37
HETATM   37  C19 UNL     1       5.902  14.607  12.074  1.00  0.00    -0.023 C 
HETATM   38  C20 UNL     1       4.683  13.741  12.488  1.00  0.00     0.017 C 
HETATM   39  C21 UNL     1       5.439  15.997  12.487  1.00  0.00     0.017 C 
HETATM   40  C22 UNL     1       5.987  14.594  10.608  1.00  0.00     0.017 C 
ENDBRANCH  10  37
BRANCH  15  41
HETATM   41  C29 UNL     1       5.293  14.561  17.339  1.00  0.00     0.017 C 
HETATM   42  C30 UNL     1       5.763  14.265  18.723  1.00  0.00     0.006 C 
ENDBRANCH  15  41
BRANCH  14  43
HETATM   43  C25 UNL     1       7.599  11.567  15.866  1.00  0.00     0.002 C 
HETATM   44  C26 UNL     1       7.693  11.139  17.315  1.00  0.00     0.013 C 
HETATM   45  C27 UNL     1       8.995  11.787  15.399  1.00  0.00     0.013 C 
ENDBRANCH  14  43
TORSDOF 10
ENDMDL
