MODEL 1
REMARK VINA RESULT: -8.251441700      0.000      0.000
REMARK  13 active torsions:
REMARK  status: ('A' for Active; 'I' for Inactive)
REMARK    1  A    between atoms: C1_4  and  N2_5 
REMARK    2  A    between atoms: C1_4  and  C10_15 
REMARK    3  A    between atoms: N2_5  and  C2_7 
REMARK    4  A    between atoms: C2_7  and  C3_8 
REMARK    5  A    between atoms: C3_8  and  C4_9 
REMARK    6  A    between atoms: C19_25  and  O2_26 
REMARK    7  A    between atoms: C20_30  and  C21_31 
REMARK    8  A    between atoms: C21_31  and  C22_32 
REMARK    9  A    between atoms: C22_32  and  C23_33 
REMARK   10  A    between atoms: C23_33  and  C24_34 
REMARK   11  A    between atoms: C24_34  and  C25_35 
REMARK   12  A    between atoms: C25_35  and  C26_36 
REMARK   13  A    between atoms: C32_46  and  O5_47 
ROOT
HETATM    1  C10 UNL     1       4.198   1.971  11.774  1.00  0.00     0.093 A 
HETATM    2  C11 UNL     1       3.016   1.507  10.879  1.00  0.00     0.047 A 
HETATM    3  C12 UNL     1       2.970   1.754  12.378  1.00  0.00     0.026 A 
HETATM    4  C13 UNL     1       2.320   0.726  13.121  1.00  0.00     0.034 C 
HETATM    5  C14 UNL     1       2.304  -0.713  12.834  1.00  0.00     0.168 C 
HETATM    6  O1  UNL     1       2.956  -1.559  13.709  1.00  0.00    -0.391 OA
HETATM    7  C15 UNL     1       2.458  -1.771  14.942  1.00  0.00     0.167 C 
HETATM    8  C16 UNL     1       2.773  -3.051  15.609  1.00  0.00     0.027 C 
HETATM    9  C17 UNL     1       3.812  -3.037  16.699  1.00  0.00     0.010 C 
HETATM   10  C18 UNL     1       4.769  -4.202  16.635  1.00  0.00     0.083 C 
HETATM   11  C19 UNL     1       6.146  -3.968  17.083  1.00  0.00     0.111 C 
HETATM   12  N3  UNL     1       7.184  -3.203  16.630  1.00  0.00    -0.361 N 
ATOM     13  H3  UNL     1       7.668  -2.679  17.359  1.00  0.00     0.162 HD
HETATM   14  C20 UNL     1       7.728  -2.998  15.272  1.00  0.00     0.175 C 
HETATM   15  C27 UNL     1       6.759  -2.187  14.480  1.00  0.00     0.243 C 
HETATM   16  O4  UNL     1       5.949  -3.003  13.889  1.00  0.00    -0.271 OA
HETATM   17  N5  UNL     1       6.599  -0.813  14.297  1.00  0.00    -0.338 N 
HETATM   18  C28 UNL     1       5.808   0.178  15.001  1.00  0.00     0.127 C 
HETATM   19  C29 UNL     1       6.971   1.130  15.389  1.00  0.00     0.022 C 
HETATM   20  C30 UNL     1       7.626   1.246  14.030  1.00  0.00     0.035 C 
HETATM   21  C31 UNL     1       7.161   0.084  13.277  1.00  0.00     0.161 C 
HETATM   22  C32 UNL     1       6.145   0.265  12.220  1.00  0.00     0.136 C 
HETATM   23  N6  UNL     1       5.327   1.137  11.609  1.00  0.00    -0.356 N 
ATOM     24  H6  UNL     1       5.647   1.238  10.646  1.00  0.00     0.162 HD
ENDROOT
BRANCH   1  25
HETATM   25  C1  UNL     1       4.586   3.389  11.430  1.00  0.00     0.100 C 
HETATM   26  N1  UNL     1       4.004   4.336  12.065  1.00  0.00    -0.387 N 
ATOM     27  H12 UNL     1       4.266   5.295  11.833  1.00  0.00     0.157 HD
ATOM     28  H11 UNL     1       3.310   4.097  12.773  1.00  0.00     0.157 HD
BRANCH  25  29
HETATM   29  N2  UNL     1       5.541   3.718  10.455  1.00  0.00    -0.378 N 
ATOM     30  H2  UNL     1       5.179   3.922   9.524  1.00  0.00     0.160 HD
BRANCH  29  31
HETATM   31  C2  UNL     1       6.951   3.802  10.610  1.00  0.00     0.121 C 
BRANCH  31  32
HETATM   32  C3  UNL     1       7.763   3.050   9.592  1.00  0.00     0.024 C 
BRANCH  32  33
HETATM   33  C4  UNL     1       7.036   2.913   8.273  1.00  0.00    -0.013 C 
HETATM   34  C5  UNL     1       7.459   4.054   7.381  1.00  0.00     0.005 C 
HETATM   35  C6  UNL     1       8.391   3.617   6.272  1.00  0.00     0.000 C 
HETATM   36  C7  UNL     1       7.717   2.649   5.327  1.00  0.00     0.000 C 
HETATM   37  C8  UNL     1       6.885   1.690   6.155  1.00  0.00     0.000 C 
HETATM   38  C9  UNL     1       7.436   1.622   7.566  1.00  0.00     0.005 C 
ENDBRANCH  32  33
ENDBRANCH  31  32
ENDBRANCH  29  31
ENDBRANCH  25  29
ENDBRANCH   1  25
BRANCH  22  39
HETATM   39  O5  UNL     1       6.034  -0.956  11.688  1.00  0.00    -0.348 OA
ATOM     40  H5  UNL     1       5.094  -1.076  11.609  1.00  0.00     0.219 HD
ENDBRANCH  22  39
BRANCH  14  41
HETATM   41  C21 UNL     1       8.065  -4.292  14.591  1.00  0.00     0.035 C 
BRANCH  41  42
HETATM   42  C22 UNL     1       9.499  -4.646  14.939  1.00  0.00     0.002 C 
BRANCH  42  43
HETATM   43  C23 UNL     1      10.117  -3.627  15.901  1.00  0.00     0.001 C 
BRANCH  43  44
HETATM   44  C24 UNL     1      10.567  -4.252  17.172  1.00  0.00     0.009 C 
BRANCH  44  45
HETATM   45  C25 UNL     1      10.593  -5.733  17.065  1.00  0.00     0.099 C 
BRANCH  45  46
HETATM   46  C26 UNL     1       9.530  -6.451  17.772  1.00  0.00     0.231 C 
HETATM   47  N4  UNL     1       9.142  -7.765  17.304  1.00  0.00    -0.062 NA
HETATM   48  O3  UNL     1       8.943  -5.979  18.758  1.00  0.00    -0.277 OA
ENDBRANCH  45  46
ENDBRANCH  44  45
ENDBRANCH  43  44
ENDBRANCH  42  43
ENDBRANCH  41  42
ENDBRANCH  14  41
BRANCH  11  49
HETATM   49  O2  UNL     1       6.461  -4.641  18.159  1.00  0.00    -0.350 OA
ATOM     50  H2  UNL     1       7.254  -4.327  18.580  1.00  0.00     0.219 HD
ENDBRANCH  11  49
TORSDOF 13
ENDMDL
MODEL 2
REMARK VINA RESULT: -8.250491193      0.623      1.089
REMARK  13 active torsions:
REMARK  status: ('A' for Active; 'I' for Inactive)
REMARK    1  A    between atoms: C1_4  and  N2_5 
REMARK    2  A    between atoms: C1_4  and  C10_15 
REMARK    3  A    between atoms: N2_5  and  C2_7 
REMARK    4  A    between atoms: C2_7  and  C3_8 
REMARK    5  A    between atoms: C3_8  and  C4_9 
REMARK    6  A    between atoms: C19_25  and  O2_26 
REMARK    7  A    between atoms: C20_30  and  C21_31 
REMARK    8  A    between atoms: C21_31  and  C22_32 
REMARK    9  A    between atoms: C22_32  and  C23_33 
REMARK   10  A    between atoms: C23_33  and  C24_34 
REMARK   11  A    between atoms: C24_34  and  C25_35 
REMARK   12  A    between atoms: C25_35  and  C26_36 
REMARK   13  A    between atoms: C32_46  and  O5_47 
ROOT
HETATM    1  C10 UNL     1       3.885   1.778  11.994  1.00  0.00     0.093 A 
HETATM    2  C11 UNL     1       2.684   1.270  11.149  1.00  0.00     0.047 A 
HETATM    3  C12 UNL     1       2.690   1.524  12.648  1.00  0.00     0.026 A 
HETATM    4  C13 UNL     1       2.104   0.479  13.420  1.00  0.00     0.034 C 
HETATM    5  C14 UNL     1       2.124  -0.961  13.140  1.00  0.00     0.168 C 
HETATM    6  O1  UNL     1       2.838  -1.781  13.993  1.00  0.00    -0.391 OA
HETATM    7  C15 UNL     1       2.396  -2.002  15.245  1.00  0.00     0.167 C 
HETATM    8  C16 UNL     1       2.779  -3.267  15.905  1.00  0.00     0.027 C 
HETATM    9  C17 UNL     1       3.859  -3.214  16.952  1.00  0.00     0.010 C 
HETATM   10  C18 UNL     1       4.851  -4.347  16.855  1.00  0.00     0.083 C 
HETATM   11  C19 UNL     1       6.237  -4.066  17.247  1.00  0.00     0.111 C 
HETATM   12  N3  UNL     1       7.229  -3.269  16.750  1.00  0.00    -0.361 N 
ATOM     13  H3  UNL     1       7.725  -2.727  17.457  1.00  0.00     0.162 HD
HETATM   14  C20 UNL     1       7.712  -3.055  15.370  1.00  0.00     0.175 C 
HETATM   15  C27 UNL     1       6.687  -2.280  14.614  1.00  0.00     0.243 C 
HETATM   16  O4  UNL     1       5.881  -3.125  14.059  1.00  0.00    -0.271 OA
HETATM   17  N5  UNL     1       6.474  -0.913  14.431  1.00  0.00    -0.338 N 
HETATM   18  C28 UNL     1       5.680   0.056  15.163  1.00  0.00     0.127 C 
HETATM   19  C29 UNL     1       6.826   1.048  15.500  1.00  0.00     0.022 C 
HETATM   20  C30 UNL     1       7.422   1.177  14.115  1.00  0.00     0.035 C 
HETATM   21  C31 UNL     1       6.966  -0.003  13.386  1.00  0.00     0.161 C 
HETATM   22  C32 UNL     1       5.904   0.138  12.370  1.00  0.00     0.136 C 
HETATM   23  N6  UNL     1       5.034   0.980  11.789  1.00  0.00    -0.356 N 
ATOM     24  H6  UNL     1       5.312   1.086  10.813  1.00  0.00     0.162 HD
ENDROOT
BRANCH   1  25
HETATM   25  C1  UNL     1       4.213   3.205  11.630  1.00  0.00     0.100 C 
HETATM   26  N1  UNL     1       3.327   3.876  10.993  1.00  0.00    -0.387 N 
ATOM     27  H12 UNL     1       3.548   4.841  10.746  1.00  0.00     0.157 HD
ATOM     28  H11 UNL     1       2.443   3.423  10.761  1.00  0.00     0.157 HD
BRANCH  25  29
HETATM   29  N2  UNL     1       5.430   3.829  11.948  1.00  0.00    -0.378 N 
ATOM     30  H2  UNL     1       5.570   4.064  12.931  1.00  0.00     0.160 HD
BRANCH  29  31
HETATM   31  C2  UNL     1       6.490   4.171  11.067  1.00  0.00     0.121 C 
BRANCH  31  32
HETATM   32  C3  UNL     1       7.720   3.312  11.163  1.00  0.00     0.024 C 
BRANCH  32  33
HETATM   33  C4  UNL     1       8.406   3.149   9.825  1.00  0.00    -0.013 C 
HETATM   34  C5  UNL     1       7.962   1.838   9.223  1.00  0.00     0.005 C 
HETATM   35  C6  UNL     1       6.994   2.018   8.074  1.00  0.00     0.000 C 
HETATM   36  C7  UNL     1       7.634   2.750   6.917  1.00  0.00     0.000 C 
HETATM   37  C8  UNL     1       8.486   3.868   7.483  1.00  0.00     0.000 C 
HETATM   38  C9  UNL     1       7.978   4.250   8.860  1.00  0.00     0.005 C 
ENDBRANCH  32  33
ENDBRANCH  31  32
ENDBRANCH  29  31
ENDBRANCH  25  29
ENDBRANCH   1  25
BRANCH  22  39
HETATM   39  O5  UNL     1       5.812  -1.089  11.848  1.00  0.00    -0.348 OA
ATOM     40  H5  UNL     1       4.900  -1.319  11.989  1.00  0.00     0.219 HD
ENDBRANCH  22  39
BRANCH  14  41
HETATM   41  C21 UNL     1       8.064  -4.340  14.682  1.00  0.00     0.035 C 
BRANCH  41  42
HETATM   42  C22 UNL     1       9.550  -4.585  14.874  1.00  0.00     0.002 C 
BRANCH  42  43
HETATM   43  C23 UNL     1      10.162  -3.599  15.874  1.00  0.00     0.001 C 
BRANCH  43  44
HETATM   44  C24 UNL     1      10.616  -4.269  17.121  1.00  0.00     0.009 C 
BRANCH  44  45
HETATM   45  C25 UNL     1      10.601  -5.747  16.974  1.00  0.00     0.099 C 
BRANCH  45  46
HETATM   46  C26 UNL     1       9.558  -6.460  17.715  1.00  0.00     0.231 C 
HETATM   47  N4  UNL     1       9.111  -7.748  17.228  1.00  0.00    -0.062 NA
HETATM   48  O3  UNL     1       9.038  -6.005  18.745  1.00  0.00    -0.277 OA
ENDBRANCH  45  46
ENDBRANCH  44  45
ENDBRANCH  43  44
ENDBRANCH  42  43
ENDBRANCH  41  42
ENDBRANCH  14  41
BRANCH  11  49
HETATM   49  O2  UNL     1       6.616  -4.722  18.313  1.00  0.00    -0.350 OA
ATOM     50  H2  UNL     1       7.084  -4.182  18.939  1.00  0.00     0.219 HD
ENDBRANCH  11  49
TORSDOF 13
ENDMDL
MODEL 3
REMARK VINA RESULT: -8.220395941      2.805      5.409
REMARK  13 active torsions:
REMARK  status: ('A' for Active; 'I' for Inactive)
REMARK    1  A    between atoms: C1_4  and  N2_5 
REMARK    2  A    between atoms: C1_4  and  C10_15 
REMARK    3  A    between atoms: N2_5  and  C2_7 
REMARK    4  A    between atoms: C2_7  and  C3_8 
REMARK    5  A    between atoms: C3_8  and  C4_9 
REMARK    6  A    between atoms: C19_25  and  O2_26 
REMARK    7  A    between atoms: C20_30  and  C21_31 
REMARK    8  A    between atoms: C21_31  and  C22_32 
REMARK    9  A    between atoms: C22_32  and  C23_33 
REMARK   10  A    between atoms: C23_33  and  C24_34 
REMARK   11  A    between atoms: C24_34  and  C25_35 
REMARK   12  A    between atoms: C25_35  and  C26_36 
REMARK   13  A    between atoms: C32_46  and  O5_47 
ROOT
HETATM    1  C10 UNL     1       5.686   2.317  12.010  1.00  0.00     0.093 A 
HETATM    2  C11 UNL     1       6.554   3.377  12.743  1.00  0.00     0.047 A 
HETATM    3  C12 UNL     1       7.052   2.098  12.088  1.00  0.00     0.026 A 
HETATM    4  C13 UNL     1       7.962   1.348  12.888  1.00  0.00     0.034 C 
HETATM    5  C14 UNL     1       7.974   1.218  14.350  1.00  0.00     0.168 C 
HETATM    6  O1  UNL     1       7.681  -0.016  14.896  1.00  0.00    -0.391 OA
HETATM    7  C15 UNL     1       8.551  -1.035  14.771  1.00  0.00     0.167 C 
HETATM    8  C16 UNL     1       8.538  -2.092  15.803  1.00  0.00     0.027 C 
HETATM    9  C17 UNL     1       7.894  -3.407  15.452  1.00  0.00     0.010 C 
HETATM   10  C18 UNL     1       7.037  -3.973  16.558  1.00  0.00     0.083 C 
HETATM   11  C19 UNL     1       5.857  -4.752  16.165  1.00  0.00     0.111 C 
HETATM   12  N3  UNL     1       4.686  -4.459  15.525  1.00  0.00    -0.361 N 
ATOM     13  H3  UNL     1       4.424  -5.131  14.804  1.00  0.00     0.162 HD
HETATM   14  C20 UNL     1       3.733  -3.342  15.691  1.00  0.00     0.175 C 
HETATM   15  C27 UNL     1       4.354  -2.094  15.164  1.00  0.00     0.243 C 
HETATM   16  O4  UNL     1       4.986  -1.524  16.138  1.00  0.00    -0.271 OA
HETATM   17  N5  UNL     1       4.367  -1.499  13.902  1.00  0.00    -0.338 N 
HETATM   18  C28 UNL     1       5.277  -1.616  12.779  1.00  0.00     0.127 C 
HETATM   19  C29 UNL     1       4.239  -2.075  11.720  1.00  0.00     0.022 C 
HETATM   20  C30 UNL     1       3.186  -1.017  11.968  1.00  0.00     0.035 C 
HETATM   21  C31 UNL     1       3.461  -0.505  13.308  1.00  0.00     0.161 C 
HETATM   22  C32 UNL     1       4.082   0.826  13.462  1.00  0.00     0.136 C 
HETATM   23  N6  UNL     1       4.614   1.879  12.821  1.00  0.00    -0.356 N 
ATOM     24  H6  UNL     1       4.003   2.680  12.983  1.00  0.00     0.162 HD
ENDROOT
BRANCH   1  25
HETATM   25  C1  UNL     1       5.125   2.895  10.733  1.00  0.00     0.100 C 
HETATM   26  N1  UNL     1       5.651   2.520   9.628  1.00  0.00    -0.387 N 
ATOM     27  H12 UNL     1       5.272   2.910   8.765  1.00  0.00     0.157 HD
ATOM     28  H11 UNL     1       6.418   1.848   9.654  1.00  0.00     0.157 HD
BRANCH  25  29
HETATM   29  N2  UNL     1       4.069   3.820  10.697  1.00  0.00    -0.378 N 
ATOM     30  H2  UNL     1       4.135   4.602  11.350  1.00  0.00     0.160 HD
BRANCH  29  31
HETATM   31  C2  UNL     1       2.920   3.798   9.863  1.00  0.00     0.121 C 
BRANCH  31  32
HETATM   32  C3  UNL     1       1.690   4.451  10.431  1.00  0.00     0.024 C 
BRANCH  32  33
HETATM   33  C4  UNL     1       0.664   3.436  10.880  1.00  0.00    -0.013 C 
HETATM   34  C5  UNL     1       0.474   2.433   9.768  1.00  0.00     0.005 C 
HETATM   35  C6  UNL     1       1.109   1.094  10.072  1.00  0.00     0.000 C 
HETATM   36  C7  UNL     1       0.467   0.433  11.269  1.00  0.00     0.000 C 
HETATM   37  C8  UNL     1       0.213   1.501  12.314  1.00  0.00     0.000 C 
HETATM   38  C9  UNL     1       1.163   2.663  12.097  1.00  0.00     0.005 C 
ENDBRANCH  32  33
ENDBRANCH  31  32
ENDBRANCH  29  31
ENDBRANCH  25  29
ENDBRANCH   1  25
BRANCH  22  39
HETATM   39  O5  UNL     1       4.094   1.009  14.786  1.00  0.00    -0.348 OA
ATOM     40  H5  UNL     1       4.489   1.868  14.885  1.00  0.00     0.219 HD
ENDBRANCH  22  39
BRANCH  14  41
HETATM   41  C21 UNL     1       3.278  -3.187  17.112  1.00  0.00     0.035 C 
BRANCH  41  42
HETATM   42  C22 UNL     1       2.493  -4.428  17.493  1.00  0.00     0.002 C 
BRANCH  42  43
HETATM   43  C23 UNL     1       3.131  -5.161  18.677  1.00  0.00     0.001 C 
BRANCH  43  44
HETATM   44  C24 UNL     1       3.209  -6.629  18.456  1.00  0.00     0.009 C 
BRANCH  44  45
HETATM   45  C25 UNL     1       2.640  -7.006  17.137  1.00  0.00     0.099 C 
BRANCH  45  46
HETATM   46  C26 UNL     1       3.528  -7.749  16.239  1.00  0.00     0.231 C 
HETATM   47  N4  UNL     1       4.321  -8.834  16.779  1.00  0.00    -0.062 NA
HETATM   48  O3  UNL     1       3.632  -7.486  15.031  1.00  0.00    -0.277 OA
ENDBRANCH  45  46
ENDBRANCH  44  45
ENDBRANCH  43  44
ENDBRANCH  42  43
ENDBRANCH  41  42
ENDBRANCH  14  41
BRANCH  11  49
HETATM   49  O2  UNL     1       5.936  -6.013  16.500  1.00  0.00    -0.350 OA
ATOM     50  H2  UNL     1       5.143  -6.502  16.311  1.00  0.00     0.219 HD
ENDBRANCH  11  49
TORSDOF 13
ENDMDL
MODEL 4
REMARK VINA RESULT: -8.079775174      3.605     10.817
REMARK  13 active torsions:
REMARK  status: ('A' for Active; 'I' for Inactive)
REMARK    1  A    between atoms: C1_4  and  N2_5 
REMARK    2  A    between atoms: C1_4  and  C10_15 
REMARK    3  A    between atoms: N2_5  and  C2_7 
REMARK    4  A    between atoms: C2_7  and  C3_8 
REMARK    5  A    between atoms: C3_8  and  C4_9 
REMARK    6  A    between atoms: C19_25  and  O2_26 
REMARK    7  A    between atoms: C20_30  and  C21_31 
REMARK    8  A    between atoms: C21_31  and  C22_32 
REMARK    9  A    between atoms: C22_32  and  C23_33 
REMARK   10  A    between atoms: C23_33  and  C24_34 
REMARK   11  A    between atoms: C24_34  and  C25_35 
REMARK   12  A    between atoms: C25_35  and  C26_36 
REMARK   13  A    between atoms: C32_46  and  O5_47 
ROOT
HETATM    1  C10 UNL     1       6.050  -5.807  17.487  1.00  0.00     0.093 A 
HETATM    2  C11 UNL     1       7.316  -6.434  16.838  1.00  0.00     0.047 A 
HETATM    3  C12 UNL     1       7.244  -5.109  17.581  1.00  0.00     0.026 A 
HETATM    4  C13 UNL     1       7.897  -4.030  16.917  1.00  0.00     0.034 C 
HETATM    5  C14 UNL     1       8.014  -3.807  15.471  1.00  0.00     0.168 C 
HETATM    6  O1  UNL     1       7.351  -2.726  14.924  1.00  0.00    -0.391 OA
HETATM    7  C15 UNL     1       7.774  -1.473  15.180  1.00  0.00     0.167 C 
HETATM    8  C16 UNL     1       7.486  -0.424  14.181  1.00  0.00     0.027 C 
HETATM    9  C17 UNL     1       6.375   0.547  14.483  1.00  0.00     0.010 C 
HETATM   10  C18 UNL     1       5.491   0.841  13.296  1.00  0.00     0.083 C 
HETATM   11  C19 UNL     1       4.075   1.118  13.562  1.00  0.00     0.111 C 
HETATM   12  N3  UNL     1       3.031   0.384  14.048  1.00  0.00    -0.361 N 
ATOM     13  H3  UNL     1       2.468   0.867  14.748  1.00  0.00     0.162 HD
HETATM   14  C20 UNL     1       2.571  -0.986  13.739  1.00  0.00     0.175 C 
HETATM   15  C27 UNL     1       3.545  -1.962  14.305  1.00  0.00     0.243 C 
HETATM   16  O4  UNL     1       4.438  -2.201  13.402  1.00  0.00    -0.271 OA
HETATM   17  N5  UNL     1       3.641  -2.597  15.545  1.00  0.00    -0.338 N 
HETATM   18  C28 UNL     1       4.324  -2.238  16.773  1.00  0.00     0.127 C 
HETATM   19  C29 UNL     1       3.085  -2.254  17.709  1.00  0.00     0.022 C 
HETATM   20  C30 UNL     1       2.521  -3.599  17.308  1.00  0.00     0.035 C 
HETATM   21  C31 UNL     1       3.101  -3.887  15.999  1.00  0.00     0.161 C 
HETATM   22  C32 UNL     1       4.175  -4.894  15.888  1.00  0.00     0.136 C 
HETATM   23  N6  UNL     1       4.984  -5.728  16.563  1.00  0.00    -0.356 N 
ATOM     24  H6  UNL     1       4.726  -6.681  16.307  1.00  0.00     0.162 HD
ENDROOT
BRANCH   1  25
HETATM   25  C1  UNL     1       5.608  -6.632  18.671  1.00  0.00     0.100 C 
HETATM   26  N1  UNL     1       5.152  -6.011  19.693  1.00  0.00    -0.387 N 
ATOM     27  H12 UNL     1       4.853  -6.568  20.493  1.00  0.00     0.157 HD
ATOM     28  H11 UNL     1       5.103  -4.992  19.665  1.00  0.00     0.157 HD
BRANCH  25  29
HETATM   29  N2  UNL     1       5.676  -8.034  18.709  1.00  0.00    -0.378 N 
ATOM     30  H2  UNL     1       6.329  -8.433  19.384  1.00  0.00     0.160 HD
BRANCH  29  31
HETATM   31  C2  UNL     1       4.944  -8.964  17.923  1.00  0.00     0.121 C 
BRANCH  31  32
HETATM   32  C3  UNL     1       5.688 -10.211  17.530  1.00  0.00     0.024 C 
BRANCH  32  33
HETATM   33  C4  UNL     1       5.446 -10.585  16.085  1.00  0.00    -0.013 C 
HETATM   34  C5  UNL     1       5.037 -12.037  16.036  1.00  0.00     0.005 C 
HETATM   35  C6  UNL     1       3.563 -12.222  15.746  1.00  0.00     0.000 C 
HETATM   36  C7  UNL     1       3.194 -11.695  14.378  1.00  0.00     0.000 C 
HETATM   37  C8  UNL     1       3.939 -10.393  14.162  1.00  0.00     0.000 C 
HETATM   38  C9  UNL     1       4.290  -9.777  15.502  1.00  0.00     0.005 C 
ENDBRANCH  32  33
ENDBRANCH  31  32
ENDBRANCH  29  31
ENDBRANCH  25  29
ENDBRANCH   1  25
BRANCH  22  39
HETATM   39  O5  UNL     1       4.392  -4.970  14.572  1.00  0.00    -0.348 OA
ATOM     40  H5  UNL     1       5.073  -4.324  14.423  1.00  0.00     0.219 HD
ENDBRANCH  22  39
BRANCH  14  41
HETATM   41  C21 UNL     1       2.355  -1.198  12.270  1.00  0.00     0.035 C 
BRANCH  41  42
HETATM   42  C22 UNL     1       1.215  -0.298  11.828  1.00  0.00     0.002 C 
BRANCH  42  43
HETATM   43  C23 UNL     1       1.569   0.483  10.558  1.00  0.00     0.001 C 
BRANCH  43  44
HETATM   44  C24 UNL     1       0.478   1.400  10.137  1.00  0.00     0.009 C 
BRANCH  44  45
HETATM   45  C25 UNL     1       0.981   2.785   9.948  1.00  0.00     0.099 C 
BRANCH  45  46
HETATM   46  C26 UNL     1       1.456   3.470  11.153  1.00  0.00     0.231 C 
HETATM   47  N4  UNL     1       2.723   4.171  11.105  1.00  0.00    -0.062 NA
HETATM   48  O3  UNL     1       0.819   3.474  12.217  1.00  0.00    -0.277 OA
ENDBRANCH  45  46
ENDBRANCH  44  45
ENDBRANCH  43  44
ENDBRANCH  42  43
ENDBRANCH  41  42
ENDBRANCH  14  41
BRANCH  11  49
HETATM   49  O2  UNL     1       3.725   2.344  13.271  1.00  0.00    -0.350 OA
ATOM     50  H2  UNL     1       2.893   2.598  13.653  1.00  0.00     0.219 HD
ENDBRANCH  11  49
TORSDOF 13
ENDMDL
MODEL 5
REMARK VINA RESULT: -8.068135420      1.969      2.260
REMARK  13 active torsions:
REMARK  status: ('A' for Active; 'I' for Inactive)
REMARK    1  A    between atoms: C1_4  and  N2_5 
REMARK    2  A    between atoms: C1_4  and  C10_15 
REMARK    3  A    between atoms: N2_5  and  C2_7 
REMARK    4  A    between atoms: C2_7  and  C3_8 
REMARK    5  A    between atoms: C3_8  and  C4_9 
REMARK    6  A    between atoms: C19_25  and  O2_26 
REMARK    7  A    between atoms: C20_30  and  C21_31 
REMARK    8  A    between atoms: C21_31  and  C22_32 
REMARK    9  A    between atoms: C22_32  and  C23_33 
REMARK   10  A    between atoms: C23_33  and  C24_34 
REMARK   11  A    between atoms: C24_34  and  C25_35 
REMARK   12  A    between atoms: C25_35  and  C26_36 
REMARK   13  A    between atoms: C32_46  and  O5_47 
ROOT
HETATM    1  C10 UNL     1       4.133   1.974  11.731  1.00  0.00     0.093 A 
HETATM    2  C11 UNL     1       2.946   1.492  10.851  1.00  0.00     0.047 A 
HETATM    3  C12 UNL     1       2.912   1.752  12.348  1.00  0.00     0.026 A 
HETATM    4  C13 UNL     1       2.277   0.725  13.106  1.00  0.00     0.034 C 
HETATM    5  C14 UNL     1       2.269  -0.716  12.831  1.00  0.00     0.168 C 
HETATM    6  O1  UNL     1       2.936  -1.550  13.708  1.00  0.00    -0.391 OA
HETATM    7  C15 UNL     1       2.451  -1.755  14.947  1.00  0.00     0.167 C 
HETATM    8  C16 UNL     1       2.782  -3.027  15.622  1.00  0.00     0.027 C 
HETATM    9  C17 UNL     1       3.830  -2.995  16.702  1.00  0.00     0.010 C 
HETATM   10  C18 UNL     1       4.796  -4.153  16.640  1.00  0.00     0.083 C 
HETATM   11  C19 UNL     1       6.176  -3.905  17.073  1.00  0.00     0.111 C 
HETATM   12  N3  UNL     1       7.203  -3.136  16.604  1.00  0.00    -0.361 N 
ATOM     13  H3  UNL     1       7.690  -2.602  17.324  1.00  0.00     0.162 HD
HETATM   14  C20 UNL     1       7.733  -2.939  15.239  1.00  0.00     0.175 C 
HETATM   15  C27 UNL     1       6.751  -2.142  14.449  1.00  0.00     0.243 C 
HETATM   16  O4  UNL     1       5.942  -2.969  13.872  1.00  0.00    -0.271 OA
HETATM   17  N5  UNL     1       6.578  -0.771  14.256  1.00  0.00    -0.338 N 
HETATM   18  C28 UNL     1       5.786   0.220  14.959  1.00  0.00     0.127 C 
HETATM   19  C29 UNL     1       6.946   1.185  15.328  1.00  0.00     0.022 C 
HETATM   20  C30 UNL     1       7.587   1.294  13.962  1.00  0.00     0.035 C 
HETATM   21  C31 UNL     1       7.124   0.122  13.223  1.00  0.00     0.161 C 
HETATM   22  C32 UNL     1       6.098   0.286  12.174  1.00  0.00     0.136 C 
HETATM   23  N6  UNL     1       5.267   1.147  11.563  1.00  0.00    -0.356 N 
ATOM     24  H6  UNL     1       5.577   1.242  10.597  1.00  0.00     0.162 HD
ENDROOT
BRANCH   1  25
HETATM   25  C1  UNL     1       4.507   3.391  11.372  1.00  0.00     0.100 C 
HETATM   26  N1  UNL     1       4.206   4.316  12.205  1.00  0.00    -0.387 N 
ATOM     27  H12 UNL     1       4.459   5.274  11.963  1.00  0.00     0.157 HD
ATOM     28  H11 UNL     1       3.733   4.060  13.071  1.00  0.00     0.157 HD
BRANCH  25  29
HETATM   29  N2  UNL     1       5.158   3.744  10.179  1.00  0.00    -0.378 N 
ATOM     30  H2  UNL     1       6.160   3.554  10.142  1.00  0.00     0.160 HD
BRANCH  29  31
HETATM   31  C2  UNL     1       4.591   4.334   9.018  1.00  0.00     0.121 C 
BRANCH  31  32
HETATM   32  C3  UNL     1       3.088   4.355   8.967  1.00  0.00     0.024 C 
BRANCH  32  33
HETATM   33  C4  UNL     1       2.571   5.025   7.713  1.00  0.00    -0.013 C 
HETATM   34  C5  UNL     1       3.668   4.995   6.677  1.00  0.00     0.005 C 
HETATM   35  C6  UNL     1       3.406   3.991   5.575  1.00  0.00     0.000 C 
HETATM   36  C7  UNL     1       2.169   4.344   4.783  1.00  0.00     0.000 C 
HETATM   37  C8  UNL     1       1.110   4.821   5.757  1.00  0.00     0.000 C 
HETATM   38  C9  UNL     1       1.390   4.252   7.134  1.00  0.00     0.005 C 
ENDBRANCH  32  33
ENDBRANCH  31  32
ENDBRANCH  29  31
ENDBRANCH  25  29
ENDBRANCH   1  25
BRANCH  22  39
HETATM   39  O5  UNL     1       5.991  -0.940  11.653  1.00  0.00    -0.348 OA
ATOM     40  H5  UNL     1       5.104  -0.956  11.310  1.00  0.00     0.219 HD
ENDBRANCH  22  39
BRANCH  14  41
HETATM   41  C21 UNL     1       8.074  -4.235  14.566  1.00  0.00     0.035 C 
BRANCH  41  42
HETATM   42  C22 UNL     1       9.512  -4.578  14.907  1.00  0.00     0.002 C 
BRANCH  42  43
HETATM   43  C23 UNL     1      10.128  -3.551  15.863  1.00  0.00     0.001 C 
BRANCH  43  44
HETATM   44  C24 UNL     1      10.534  -4.159  17.158  1.00  0.00     0.009 C 
BRANCH  44  45
HETATM   45  C25 UNL     1      10.613  -5.639  17.056  1.00  0.00     0.099 C 
BRANCH  45  46
HETATM   46  C26 UNL     1       9.568  -6.392  17.753  1.00  0.00     0.231 C 
HETATM   47  N4  UNL     1       9.203  -7.703  17.259  1.00  0.00    -0.062 NA
HETATM   48  O3  UNL     1       8.977  -5.953  18.752  1.00  0.00    -0.277 OA
ENDBRANCH  45  46
ENDBRANCH  44  45
ENDBRANCH  43  44
ENDBRANCH  42  43
ENDBRANCH  41  42
ENDBRANCH  14  41
BRANCH  11  49
HETATM   49  O2  UNL     1       6.505  -4.566  18.152  1.00  0.00    -0.350 OA
ATOM     50  H2  UNL     1       6.350  -4.079  18.953  1.00  0.00     0.219 HD
ENDBRANCH  11  49
TORSDOF 13
ENDMDL
