MODEL 1
REMARK VINA RESULT: -7.868437462      0.000      0.000
REMARK  9 active torsions:
REMARK  status: ('A' for Active; 'I' for Inactive)
REMARK    1  A    between atoms: C2_2  and  O1_3 
REMARK    2  A    between atoms: O1_3  and  C3_4 
REMARK    3  A    between atoms: C3_4  and  C4_5 
REMARK    4  A    between atoms: C4_5  and  O2_6 
REMARK    5  A    between atoms: C4_5  and  C5_8 
REMARK    6  A    between atoms: C6_11  and  N1_12 
REMARK    7  A    between atoms: C7_13  and  C8_14 
REMARK    8  A    between atoms: C8_14  and  C9_15 
REMARK    9  A    between atoms: C9_15  and  C10_16 
ROOT
HETATM    1  N1  UNL     1      14.388 -15.688  21.273  1.00  0.00    -0.274 N 
HETATM    2  C7  UNL     1      15.682 -16.025  21.352  1.00  0.00     0.045 A 
HETATM    3  C14 UNL     1      16.048 -17.153  22.114  1.00  0.00     0.135 A 
HETATM    4  C15 UNL     1      17.424 -17.572  22.207  1.00  0.00     0.107 C 
HETATM    5  N2  UNL     1      18.527 -17.940  22.281  1.00  0.00    -0.191 NA
HETATM    6  C16 UNL     1      15.040 -17.850  22.740  1.00  0.00     0.272 A 
HETATM    7  O4  UNL     1      15.377 -18.869  23.428  1.00  0.00    -0.266 OA
HETATM    8  N3  UNL     1      13.757 -17.471  22.627  1.00  0.00    -0.274 N 
ATOM      9  H3  UNL     1      13.033 -18.009  23.102  1.00  0.00     0.173 HD
HETATM   10  C17 UNL     1      13.410 -16.404  21.906  1.00  0.00     0.331 A 
HETATM   11  O5  UNL     1      12.194 -16.037  21.792  1.00  0.00    -0.246 OA
ENDROOT
BRANCH   2  12
HETATM   12  C8  UNL     1      16.814 -15.334  20.713  1.00  0.00     0.063 C 
BRANCH  12  13
HETATM   13  C9  UNL     1      17.426 -14.219  21.535  1.00  0.00     0.033 C 
BRANCH  13  14
HETATM   14  C10 UNL     1      18.387 -13.378  20.777  1.00  0.00    -0.024 C 
HETATM   15  C11 UNL     1      19.670 -13.630  20.851  1.00  0.00    -0.091 C 
HETATM   16  C12 UNL     1      20.648 -12.775  20.080  1.00  0.00     0.042 C 
HETATM   17  C13 UNL     1      20.259 -14.729  21.658  1.00  0.00     0.042 C 
ENDBRANCH  13  14
ENDBRANCH  12  13
ENDBRANCH   2  12
BRANCH   1  18
HETATM   18  C6  UNL     1      13.958 -14.556  20.505  1.00  0.00     0.242 C 
HETATM   19  O3  UNL     1      14.193 -13.417  21.284  1.00  0.00    -0.319 OA
HETATM   20  C5  UNL     1      14.227 -12.333  20.430  1.00  0.00     0.301 C 
HETATM   21  F1  UNL     1      15.018 -11.303  20.860  1.00  0.00    -0.202 F 
HETATM   22  C19 UNL     1      14.722 -12.805  19.108  1.00  0.00     0.310 C 
HETATM   23  C18 UNL     1      14.661 -14.285  19.237  1.00  0.00     0.139 C 
HETATM   24  F2  UNL     1      16.026 -12.348  18.878  1.00  0.00    -0.200 F 
HETATM   25  F3  UNL     1      13.935 -12.303  18.081  1.00  0.00    -0.200 F 
BRANCH  20  26
HETATM   26  C4  UNL     1      12.784 -11.819  20.347  1.00  0.00     0.215 C 
BRANCH  26  27
HETATM   27  C3  UNL     1      12.155 -12.103  21.688  1.00  0.00     0.205 C 
BRANCH  27  28
HETATM   28  O1  UNL     1      11.353 -11.036  22.087  1.00  0.00    -0.389 OA
BRANCH  28  29
HETATM   29  C2  UNL     1      11.779 -10.566  23.329  1.00  0.00     0.163 C 
HETATM   30  C1  UNL     1      11.020 -11.246  24.458  1.00  0.00     0.033 C 
ENDBRANCH  28  29
ENDBRANCH  27  28
ENDBRANCH  26  27
BRANCH  26  31
HETATM   31  O2  UNL     1      12.704 -10.513  19.963  1.00  0.00    -0.387 OA
ATOM     32  H2  UNL     1      12.525 -10.393  19.038  1.00  0.00     0.210 HD
ENDBRANCH  26  31
ENDBRANCH  20  26
ENDBRANCH   1  18
TORSDOF 9
ENDMDL
MODEL 2
REMARK VINA RESULT: -7.539315919      0.857      1.118
REMARK  9 active torsions:
REMARK  status: ('A' for Active; 'I' for Inactive)
REMARK    1  A    between atoms: C2_2  and  O1_3 
REMARK    2  A    between atoms: O1_3  and  C3_4 
REMARK    3  A    between atoms: C3_4  and  C4_5 
REMARK    4  A    between atoms: C4_5  and  O2_6 
REMARK    5  A    between atoms: C4_5  and  C5_8 
REMARK    6  A    between atoms: C6_11  and  N1_12 
REMARK    7  A    between atoms: C7_13  and  C8_14 
REMARK    8  A    between atoms: C8_14  and  C9_15 
REMARK    9  A    between atoms: C9_15  and  C10_16 
ROOT
HETATM    1  N1  UNL     1      14.539 -15.776  21.398  1.00  0.00    -0.274 N 
HETATM    2  C7  UNL     1      15.830 -16.078  21.592  1.00  0.00     0.045 A 
HETATM    3  C14 UNL     1      16.157 -17.204  22.373  1.00  0.00     0.135 A 
HETATM    4  C15 UNL     1      17.531 -17.586  22.588  1.00  0.00     0.107 C 
HETATM    5  N2  UNL     1      18.632 -17.925  22.758  1.00  0.00    -0.191 NA
HETATM    6  C16 UNL     1      15.117 -17.936  22.898  1.00  0.00     0.272 A 
HETATM    7  O4  UNL     1      15.418 -18.953  23.604  1.00  0.00    -0.266 OA
HETATM    8  N3  UNL     1      13.839 -17.591  22.672  1.00  0.00    -0.274 N 
ATOM      9  H3  UNL     1      13.090 -18.154  23.074  1.00  0.00     0.173 HD
HETATM   10  C17 UNL     1      13.528 -16.525  21.932  1.00  0.00     0.331 A 
HETATM   11  O5  UNL     1      12.318 -16.191  21.711  1.00  0.00    -0.246 OA
ENDROOT
BRANCH   2  12
HETATM   12  C8  UNL     1      16.996 -15.348  21.065  1.00  0.00     0.063 C 
BRANCH  12  13
HETATM   13  C9  UNL     1      17.535 -14.266  21.976  1.00  0.00     0.033 C 
BRANCH  13  14
HETATM   14  C10 UNL     1      19.012 -14.297  22.131  1.00  0.00    -0.024 C 
HETATM   15  C11 UNL     1      19.536 -14.508  23.313  1.00  0.00    -0.091 C 
HETATM   16  C12 UNL     1      21.038 -14.540  23.470  1.00  0.00     0.042 C 
HETATM   17  C13 UNL     1      18.744 -14.727  24.550  1.00  0.00     0.042 C 
ENDBRANCH  13  14
ENDBRANCH  12  13
ENDBRANCH   2  12
BRANCH   1  18
HETATM   18  C6  UNL     1      14.149 -14.646  20.604  1.00  0.00     0.242 C 
HETATM   19  O3  UNL     1      14.257 -13.514  21.419  1.00  0.00    -0.319 OA
HETATM   20  C5  UNL     1      14.338 -12.415  20.589  1.00  0.00     0.301 C 
HETATM   21  F1  UNL     1      15.040 -11.364  21.114  1.00  0.00    -0.202 F 
HETATM   22  C19 UNL     1      14.988 -12.844  19.321  1.00  0.00     0.310 C 
HETATM   23  C18 UNL     1      14.971 -14.327  19.421  1.00  0.00     0.139 C 
HETATM   24  F2  UNL     1      16.290 -12.335  19.236  1.00  0.00    -0.200 F 
HETATM   25  F3  UNL     1      14.294 -12.353  18.223  1.00  0.00    -0.200 F 
BRANCH  20  26
HETATM   26  C4  UNL     1      12.893 -11.953  20.361  1.00  0.00     0.215 C 
BRANCH  26  27
HETATM   27  C3  UNL     1      12.177 -12.135  21.675  1.00  0.00     0.205 C 
BRANCH  27  28
HETATM   28  O1  UNL     1      11.540 -10.955  22.052  1.00  0.00    -0.389 OA
BRANCH  28  29
HETATM   29  C2  UNL     1      12.014 -10.541  23.297  1.00  0.00     0.163 C 
HETATM   30  C1  UNL     1      11.113 -11.043  24.416  1.00  0.00     0.033 C 
ENDBRANCH  28  29
ENDBRANCH  27  28
ENDBRANCH  26  27
BRANCH  26  31
HETATM   31  O2  UNL     1      12.810 -10.689  19.855  1.00  0.00    -0.387 OA
ATOM     32  H2  UNL     1      13.204 -10.589  18.997  1.00  0.00     0.210 HD
ENDBRANCH  26  31
ENDBRANCH  20  26
ENDBRANCH   1  18
TORSDOF 9
ENDMDL
MODEL 3
REMARK VINA RESULT: -7.196132025      2.392      3.878
REMARK  9 active torsions:
REMARK  status: ('A' for Active; 'I' for Inactive)
REMARK    1  A    between atoms: C2_2  and  O1_3 
REMARK    2  A    between atoms: O1_3  and  C3_4 
REMARK    3  A    between atoms: C3_4  and  C4_5 
REMARK    4  A    between atoms: C4_5  and  O2_6 
REMARK    5  A    between atoms: C4_5  and  C5_8 
REMARK    6  A    between atoms: C6_11  and  N1_12 
REMARK    7  A    between atoms: C7_13  and  C8_14 
REMARK    8  A    between atoms: C8_14  and  C9_15 
REMARK    9  A    between atoms: C9_15  and  C10_16 
ROOT
HETATM    1  N1  UNL     1      16.636 -14.936  21.564  1.00  0.00    -0.274 N 
HETATM    2  C7  UNL     1      17.479 -14.112  20.927  1.00  0.00     0.045 A 
HETATM    3  C14 UNL     1      18.865 -14.334  21.043  1.00  0.00     0.135 A 
HETATM    4  C15 UNL     1      19.812 -13.492  20.354  1.00  0.00     0.107 C 
HETATM    5  N2  UNL     1      20.594 -12.837  19.792  1.00  0.00    -0.191 NA
HETATM    6  C16 UNL     1      19.277 -15.396  21.814  1.00  0.00     0.272 A 
HETATM    7  O4  UNL     1      20.532 -15.591  21.916  1.00  0.00    -0.266 OA
HETATM    8  N3  UNL     1      18.389 -16.193  22.431  1.00  0.00    -0.274 N 
ATOM      9  H3  UNL     1      18.726 -16.973  22.995  1.00  0.00     0.173 HD
HETATM   10  C17 UNL     1      17.076 -15.985  22.322  1.00  0.00     0.331 A 
HETATM   11  O5  UNL     1      16.226 -16.738  22.903  1.00  0.00    -0.246 OA
ENDROOT
BRANCH   2  12
HETATM   12  C8  UNL     1      17.118 -12.959  20.086  1.00  0.00     0.063 C 
BRANCH  12  13
HETATM   13  C9  UNL     1      17.142 -13.227  18.595  1.00  0.00     0.033 C 
BRANCH  13  14
HETATM   14  C10 UNL     1      16.372 -12.237  17.800  1.00  0.00    -0.024 C 
HETATM   15  C11 UNL     1      15.717 -12.629  16.735  1.00  0.00    -0.091 C 
HETATM   16  C12 UNL     1      14.932 -11.623  15.926  1.00  0.00     0.042 C 
HETATM   17  C13 UNL     1      15.680 -14.031  16.247  1.00  0.00     0.042 C 
ENDBRANCH  13  14
ENDBRANCH  12  13
ENDBRANCH   2  12
BRANCH   1  18
HETATM   18  C6  UNL     1      15.214 -14.763  21.474  1.00  0.00     0.242 C 
HETATM   19  O3  UNL     1      14.922 -13.490  21.976  1.00  0.00    -0.319 OA
HETATM   20  C5  UNL     1      13.682 -13.130  21.489  1.00  0.00     0.301 C 
HETATM   21  F1  UNL     1      13.506 -11.781  21.339  1.00  0.00    -0.202 F 
HETATM   22  C19 UNL     1      13.496 -13.792  20.169  1.00  0.00     0.310 C 
HETATM   23  C18 UNL     1      14.609 -14.776  20.129  1.00  0.00     0.139 C 
HETATM   24  F2  UNL     1      13.581 -12.855  19.131  1.00  0.00    -0.200 F 
HETATM   25  F3  UNL     1      12.237 -14.371  20.083  1.00  0.00    -0.200 F 
BRANCH  20  26
HETATM   26  C4  UNL     1      12.665 -13.628  22.524  1.00  0.00     0.215 C 
BRANCH  26  27
HETATM   27  C3  UNL     1      11.580 -12.583  22.590  1.00  0.00     0.205 C 
BRANCH  27  28
HETATM   28  O1  UNL     1      11.135 -12.422  23.900  1.00  0.00    -0.389 OA
BRANCH  28  29
HETATM   29  C2  UNL     1      10.845 -11.078  24.138  1.00  0.00     0.163 C 
HETATM   30  C1  UNL     1      12.018 -10.192  23.749  1.00  0.00     0.033 C 
ENDBRANCH  28  29
ENDBRANCH  27  28
ENDBRANCH  26  27
BRANCH  26  31
HETATM   31  O2  UNL     1      12.207 -14.885  22.262  1.00  0.00    -0.387 OA
ATOM     32  H2  UNL     1      11.480 -14.913  21.652  1.00  0.00     0.210 HD
ENDBRANCH  26  31
ENDBRANCH  20  26
ENDBRANCH   1  18
TORSDOF 9
ENDMDL
MODEL 4
REMARK VINA RESULT: -7.178435277      3.159      7.025
REMARK  9 active torsions:
REMARK  status: ('A' for Active; 'I' for Inactive)
REMARK    1  A    between atoms: C2_2  and  O1_3 
REMARK    2  A    between atoms: O1_3  and  C3_4 
REMARK    3  A    between atoms: C3_4  and  C4_5 
REMARK    4  A    between atoms: C4_5  and  O2_6 
REMARK    5  A    between atoms: C4_5  and  C5_8 
REMARK    6  A    between atoms: C6_11  and  N1_12 
REMARK    7  A    between atoms: C7_13  and  C8_14 
REMARK    8  A    between atoms: C8_14  and  C9_15 
REMARK    9  A    between atoms: C9_15  and  C10_16 
ROOT
HETATM    1  N1  UNL     1      15.285 -13.330  21.276  1.00  0.00    -0.274 N 
HETATM    2  C7  UNL     1      14.056 -13.427  21.799  1.00  0.00     0.045 A 
HETATM    3  C14 UNL     1      13.309 -12.250  22.008  1.00  0.00     0.135 A 
HETATM    4  C15 UNL     1      11.971 -12.303  22.542  1.00  0.00     0.107 C 
HETATM    5  N2  UNL     1      10.882 -12.323  22.954  1.00  0.00    -0.191 NA
HETATM    6  C16 UNL     1      13.897 -11.055  21.658  1.00  0.00     0.272 A 
HETATM    7  O4  UNL     1      13.218  -9.994  21.850  1.00  0.00    -0.266 OA
HETATM    8  N3  UNL     1      15.133 -11.014  21.135  1.00  0.00    -0.274 N 
ATOM      9  H3  UNL     1      15.540 -10.113  20.886  1.00  0.00     0.173 HD
HETATM   10  C17 UNL     1      15.840 -12.128  20.937  1.00  0.00     0.331 A 
HETATM   11  O5  UNL     1      17.014 -12.099  20.440  1.00  0.00    -0.246 OA
ENDROOT
BRANCH   2  12
HETATM   12  C8  UNL     1      13.360 -14.662  22.196  1.00  0.00     0.063 C 
BRANCH  12  13
HETATM   13  C9  UNL     1      12.351 -15.176  21.190  1.00  0.00     0.033 C 
BRANCH  13  14
HETATM   14  C10 UNL     1      11.959 -16.592  21.410  1.00  0.00    -0.024 C 
HETATM   15  C11 UNL     1      11.959 -17.429  20.403  1.00  0.00    -0.091 C 
HETATM   16  C12 UNL     1      11.561 -18.869  20.626  1.00  0.00     0.042 C 
HETATM   17  C13 UNL     1      12.336 -17.063  19.014  1.00  0.00     0.042 C 
ENDBRANCH  13  14
ENDBRANCH  12  13
ENDBRANCH   2  12
BRANCH   1  18
HETATM   18  C6  UNL     1      16.086 -14.496  21.034  1.00  0.00     0.242 C 
HETATM   19  O3  UNL     1      16.551 -14.941  22.276  1.00  0.00    -0.319 OA
HETATM   20  C5  UNL     1      16.915 -16.264  22.130  1.00  0.00     0.301 C 
HETATM   21  F1  UNL     1      16.795 -17.010  23.272  1.00  0.00    -0.202 F 
HETATM   22  C19 UNL     1      16.058 -16.862  21.070  1.00  0.00     0.310 C 
HETATM   23  C18 UNL     1      15.416 -15.674  20.449  1.00  0.00     0.139 C 
HETATM   24  F2  UNL     1      15.119 -17.738  21.630  1.00  0.00    -0.200 F 
HETATM   25  F3  UNL     1      16.823 -17.608  20.184  1.00  0.00    -0.200 F 
BRANCH  20  26
HETATM   26  C4  UNL     1      18.395 -16.251  21.727  1.00  0.00     0.215 C 
BRANCH  26  27
HETATM   27  C3  UNL     1      19.005 -15.044  22.393  1.00  0.00     0.205 C 
BRANCH  27  28
HETATM   28  O1  UNL     1      20.158 -14.644  21.719  1.00  0.00    -0.389 OA
BRANCH  28  29
HETATM   29  C2  UNL     1      19.823 -14.188  20.444  1.00  0.00     0.163 C 
HETATM   30  C1  UNL     1      20.568 -12.903  20.114  1.00  0.00     0.033 C 
ENDBRANCH  28  29
ENDBRANCH  27  28
ENDBRANCH  26  27
BRANCH  26  31
HETATM   31  O2  UNL     1      19.035 -17.422  22.007  1.00  0.00    -0.387 OA
ATOM     32  H2  UNL     1      19.979 -17.339  22.077  1.00  0.00     0.210 HD
ENDBRANCH  26  31
ENDBRANCH  20  26
ENDBRANCH   1  18
TORSDOF 9
ENDMDL
MODEL 5
REMARK VINA RESULT: -7.147349187      2.984      4.484
REMARK  9 active torsions:
REMARK  status: ('A' for Active; 'I' for Inactive)
REMARK    1  A    between atoms: C2_2  and  O1_3 
REMARK    2  A    between atoms: O1_3  and  C3_4 
REMARK    3  A    between atoms: C3_4  and  C4_5 
REMARK    4  A    between atoms: C4_5  and  O2_6 
REMARK    5  A    between atoms: C4_5  and  C5_8 
REMARK    6  A    between atoms: C6_11  and  N1_12 
REMARK    7  A    between atoms: C7_13  and  C8_14 
REMARK    8  A    between atoms: C8_14  and  C9_15 
REMARK    9  A    between atoms: C9_15  and  C10_16 
ROOT
HETATM    1  N1  UNL     1      17.287 -14.130  20.614  1.00  0.00    -0.274 N 
HETATM    2  C7  UNL     1      18.228 -14.516  21.486  1.00  0.00     0.045 A 
HETATM    3  C14 UNL     1      19.535 -14.008  21.347  1.00  0.00     0.135 A 
HETATM    4  C15 UNL     1      20.576 -14.371  22.276  1.00  0.00     0.107 C 
HETATM    5  N2  UNL     1      21.428 -14.636  23.025  1.00  0.00    -0.191 NA
HETATM    6  C16 UNL     1      19.770 -13.136  20.309  1.00  0.00     0.272 A 
HETATM    7  O4  UNL     1      20.955 -12.681  20.187  1.00  0.00    -0.266 OA
HETATM    8  N3  UNL     1      18.790 -12.780  19.463  1.00  0.00    -0.274 N 
ATOM      9  H3  UNL     1      18.996 -12.131  18.704  1.00  0.00     0.173 HD
HETATM   10  C17 UNL     1      17.552 -13.259  19.594  1.00  0.00     0.331 A 
HETATM   11  O5  UNL     1      16.614 -12.926  18.797  1.00  0.00    -0.246 OA
ENDROOT
BRANCH   2  12
HETATM   12  C8  UNL     1      18.056 -15.440  22.619  1.00  0.00     0.063 C 
BRANCH  12  13
HETATM   13  C9  UNL     1      17.820 -14.771  23.957  1.00  0.00     0.033 C 
BRANCH  13  14
HETATM   14  C10 UNL     1      17.654 -15.727  25.081  1.00  0.00    -0.024 C 
HETATM   15  C11 UNL     1      18.538 -15.753  26.047  1.00  0.00    -0.091 C 
HETATM   16  C12 UNL     1      18.369 -16.725  27.191  1.00  0.00     0.042 C 
HETATM   17  C13 UNL     1      19.730 -14.870  26.111  1.00  0.00     0.042 C 
ENDBRANCH  13  14
ENDBRANCH  12  13
ENDBRANCH   2  12
BRANCH   1  18
HETATM   18  C6  UNL     1      15.937 -14.607  20.715  1.00  0.00     0.242 C 
HETATM   19  O3  UNL     1      15.096 -13.514  20.481  1.00  0.00    -0.319 OA
HETATM   20  C5  UNL     1      13.861 -14.015  20.122  1.00  0.00     0.301 C 
HETATM   21  F1  UNL     1      13.142 -13.196  19.294  1.00  0.00    -0.202 F 
HETATM   22  C19 UNL     1      14.074 -15.322  19.443  1.00  0.00     0.310 C 
HETATM   23  C18 UNL     1      15.499 -15.624  19.740  1.00  0.00     0.139 C 
HETATM   24  F2  UNL     1      13.832 -15.210  18.068  1.00  0.00    -0.200 F 
HETATM   25  F3  UNL     1      13.190 -16.276  19.928  1.00  0.00    -0.200 F 
BRANCH  20  26
HETATM   26  C4  UNL     1      13.075 -14.173  21.430  1.00  0.00     0.215 C 
BRANCH  26  27
HETATM   27  C3  UNL     1      13.450 -12.996  22.295  1.00  0.00     0.205 C 
BRANCH  27  28
HETATM   28  O1  UNL     1      12.364 -12.594  23.070  1.00  0.00    -0.389 OA
BRANCH  28  29
HETATM   29  C2  UNL     1      12.253 -11.204  23.039  1.00  0.00     0.163 C 
HETATM   30  C1  UNL     1      11.880 -10.719  21.646  1.00  0.00     0.033 C 
ENDBRANCH  28  29
ENDBRANCH  27  28
ENDBRANCH  26  27
BRANCH  26  31
HETATM   31  O2  UNL     1      11.733 -14.311  21.233  1.00  0.00    -0.387 OA
ATOM     32  H2  UNL     1      11.270 -14.682  21.975  1.00  0.00     0.210 HD
ENDBRANCH  26  31
ENDBRANCH  20  26
ENDBRANCH   1  18
TORSDOF 9
ENDMDL
