MODEL 1
REMARK VINA RESULT: -7.568238287      0.000      0.000
REMARK  7 active torsions:
REMARK  status: ('A' for Active; 'I' for Inactive)
REMARK    1  A    between atoms: O1_2  and  C2_3 
REMARK    2  A    between atoms: C2_3  and  C3_4 
REMARK    3  A    between atoms: C6_7  and  O2_8 
REMARK    4  A    between atoms: C6_7  and  C19_27 
REMARK    5  A    between atoms: O2_8  and  C7_9 
REMARK    6  A    between atoms: C10_12  and  N1_13 
REMARK    7  A    between atoms: C15_21  and  O3_22 
ROOT
HETATM    1  C7  UNL     1      17.168 -14.233  21.176  1.00  0.00     0.109 A 
HETATM    2  C8  UNL     1      17.022 -12.930  20.694  1.00  0.00     0.042 A 
HETATM    3  C9  UNL     1      15.887 -12.215  20.947  1.00  0.00     0.032 A 
HETATM    4  C10 UNL     1      14.838 -12.735  21.682  1.00  0.00     0.033 A 
HETATM    5  C17 UNL     1      15.001 -14.021  22.149  1.00  0.00     0.074 A 
HETATM    6  C18 UNL     1      16.141 -14.764  21.906  1.00  0.00     0.151 A 
HETATM    7  F1  UNL     1      16.184 -16.010  22.465  1.00  0.00    -0.203 F 
ENDROOT
BRANCH   1   8
HETATM    8  O2  UNL     1      18.308 -14.922  20.912  1.00  0.00    -0.327 OA
BRANCH   8   9
HETATM    9  C6  UNL     1      19.630 -14.775  21.249  1.00  0.00     0.153 C 
HETATM   10  C5  UNL     1      19.738 -14.214  22.658  1.00  0.00     0.089 C 
HETATM   11  C3  UNL     1      19.810 -15.235  23.730  1.00  0.00     0.147 C 
HETATM   12  C4  UNL     1      19.018 -14.711  24.934  1.00  0.00     0.049 C 
HETATM   13  N3  UNL     1      19.244 -16.517  23.404  1.00  0.00    -0.056 N 
HETATM   14  C21 UNL     1      19.735 -17.098  22.196  1.00  0.00     0.123 C 
ATOM     15  H32 UNL     1      19.365 -17.166  24.182  1.00  0.00     0.279 HD
ATOM     16  H31 UNL     1      18.226 -16.457  23.379  1.00  0.00     0.279 HD
HETATM   17  C20 UNL     1      20.276 -16.163  21.194  1.00  0.00     0.086 C 
HETATM   18  C22 UNL     1      18.570 -17.875  21.569  1.00  0.00     0.046 C 
HETATM   19  C23 UNL     1      20.788 -18.129  22.539  1.00  0.00     0.046 C 
BRANCH  11  20
HETATM   20  C2  UNL     1      21.237 -15.371  24.254  1.00  0.00     0.205 C 
BRANCH  20  21
HETATM   21  O1  UNL     1      22.103 -14.518  23.577  1.00  0.00    -0.393 OA
HETATM   22  C1  UNL     1      23.301 -14.510  24.288  1.00  0.00     0.201 C 
ENDBRANCH  20  21
ENDBRANCH  11  20
BRANCH   9  23
HETATM   23  C19 UNL     1      20.468 -13.930  20.319  1.00  0.00     0.279 C 
HETATM   24  F2  UNL     1      21.134 -12.905  20.930  1.00  0.00    -0.174 F 
HETATM   25  F3  UNL     1      19.858 -13.615  19.137  1.00  0.00    -0.174 F 
ENDBRANCH   9  23
ENDBRANCH   8   9
ENDBRANCH   1   8
BRANCH   4  26
HETATM   26  N1  UNL     1      13.687 -11.981  21.924  1.00  0.00    -0.370 N 
HETATM   27  C11 UNL     1      12.950 -11.205  20.913  1.00  0.00     0.159 C 
HETATM   28  C12 UNL     1      11.866 -10.472  21.715  1.00  0.00     0.234 C 
HETATM   29  N2  UNL     1      10.888 -11.454  22.074  1.00  0.00    -0.065 N 
HETATM   30  C15 UNL     1      12.615 -10.294  23.037  1.00  0.00     0.177 C 
HETATM   31  C13 UNL     1      11.594 -12.373  22.977  1.00  0.00     0.260 C 
ATOM     32  H22 UNL     1      10.033 -11.063  22.468  1.00  0.00     0.277 HD
ATOM     33  H21 UNL     1      10.448 -11.912  21.276  1.00  0.00     0.277 HD
HETATM   34  C14 UNL     1      12.983 -11.789  23.149  1.00  0.00     0.141 C 
BRANCH  30  35
HETATM   35  O3  UNL     1      11.807 -10.027  24.092  1.00  0.00    -0.386 OA
HETATM   36  C16 UNL     1      12.015  -8.852  24.756  1.00  0.00     0.202 C 
ENDBRANCH  30  35
ENDBRANCH   4  26
TORSDOF 7
ENDMDL
MODEL 2
REMARK VINA RESULT: -7.301782990      2.817      8.034
REMARK  7 active torsions:
REMARK  status: ('A' for Active; 'I' for Inactive)
REMARK    1  A    between atoms: O1_2  and  C2_3 
REMARK    2  A    between atoms: C2_3  and  C3_4 
REMARK    3  A    between atoms: C6_7  and  O2_8 
REMARK    4  A    between atoms: C6_7  and  C19_27 
REMARK    5  A    between atoms: O2_8  and  C7_9 
REMARK    6  A    between atoms: C10_12  and  N1_13 
REMARK    7  A    between atoms: C15_21  and  O3_22 
ROOT
HETATM    1  C7  UNL     1      17.414 -13.847  21.291  1.00  0.00     0.109 A 
HETATM    2  C8  UNL     1      17.226 -14.133  22.646  1.00  0.00     0.042 A 
HETATM    3  C9  UNL     1      18.285 -14.445  23.447  1.00  0.00     0.032 A 
HETATM    4  C10 UNL     1      19.581 -14.495  22.969  1.00  0.00     0.033 A 
HETATM    5  C17 UNL     1      19.746 -14.210  21.631  1.00  0.00     0.074 A 
HETATM    6  C18 UNL     1      18.689 -13.890  20.800  1.00  0.00     0.151 A 
HETATM    7  F1  UNL     1      19.004 -13.590  19.505  1.00  0.00    -0.203 F 
ENDROOT
BRANCH   1   8
HETATM    8  O2  UNL     1      16.343 -13.537  20.516  1.00  0.00    -0.327 OA
BRANCH   8   9
HETATM    9  C6  UNL     1      15.480 -14.251  19.723  1.00  0.00     0.153 C 
HETATM   10  C5  UNL     1      15.420 -15.692  20.204  1.00  0.00     0.089 C 
HETATM   11  C3  UNL     1      14.368 -15.968  21.211  1.00  0.00     0.147 C 
HETATM   12  C4  UNL     1      14.933 -16.978  22.218  1.00  0.00     0.049 C 
HETATM   13  N3  UNL     1      13.934 -14.832  21.981  1.00  0.00    -0.056 N 
HETATM   14  C21 UNL     1      13.530 -13.704  21.207  1.00  0.00     0.123 C 
ATOM     15  H32 UNL     1      13.191 -15.104  22.624  1.00  0.00     0.279 HD
ATOM     16  H31 UNL     1      14.656 -14.563  22.649  1.00  0.00     0.279 HD
HETATM   17  C20 UNL     1      14.097 -13.604  19.851  1.00  0.00     0.086 C 
HETATM   18  C22 UNL     1      13.927 -12.453  22.002  1.00  0.00     0.046 C 
HETATM   19  C23 UNL     1      12.019 -13.682  21.121  1.00  0.00     0.046 C 
BRANCH  11  20
HETATM   20  C2  UNL     1      13.187 -16.697  20.576  1.00  0.00     0.205 C 
BRANCH  20  21
HETATM   21  O1  UNL     1      12.325 -17.196  21.548  1.00  0.00    -0.393 OA
HETATM   22  C1  UNL     1      11.269 -17.808  20.876  1.00  0.00     0.201 C 
ENDBRANCH  20  21
ENDBRANCH  11  20
BRANCH   9  23
HETATM   23  C19 UNL     1      15.768 -14.240  18.241  1.00  0.00     0.279 C 
HETATM   24  F2  UNL     1      16.664 -13.289  17.844  1.00  0.00    -0.174 F 
HETATM   25  F3  UNL     1      14.662 -14.375  17.449  1.00  0.00    -0.174 F 
ENDBRANCH   9  23
ENDBRANCH   8   9
ENDBRANCH   1   8
BRANCH   4  26
HETATM   26  N1  UNL     1      20.647 -14.819  23.812  1.00  0.00    -0.370 N 
HETATM   27  C11 UNL     1      22.050 -14.432  23.595  1.00  0.00     0.159 C 
HETATM   28  C12 UNL     1      22.816 -15.141  24.720  1.00  0.00     0.234 C 
HETATM   29  N2  UNL     1      22.520 -14.432  25.928  1.00  0.00    -0.065 N 
HETATM   30  C15 UNL     1      21.935 -16.382  24.874  1.00  0.00     0.177 C 
HETATM   31  C13 UNL     1      21.081 -14.639  26.140  1.00  0.00     0.260 C 
ATOM     32  H22 UNL     1      23.099 -14.704  26.722  1.00  0.00     0.277 HD
ATOM     33  H21 UNL     1      22.800 -13.451  25.912  1.00  0.00     0.277 HD
HETATM   34  C14 UNL     1      20.633 -15.565  25.026  1.00  0.00     0.141 C 
BRANCH  30  35
HETATM   35  O3  UNL     1      22.107 -17.033  26.051  1.00  0.00    -0.386 OA
HETATM   36  C16 UNL     1      21.647 -18.317  26.126  1.00  0.00     0.202 C 
ENDBRANCH  30  35
ENDBRANCH   4  26
TORSDOF 7
ENDMDL
MODEL 3
REMARK VINA RESULT: -7.262859746      2.745      8.177
REMARK  7 active torsions:
REMARK  status: ('A' for Active; 'I' for Inactive)
REMARK    1  A    between atoms: O1_2  and  C2_3 
REMARK    2  A    between atoms: C2_3  and  C3_4 
REMARK    3  A    between atoms: C6_7  and  O2_8 
REMARK    4  A    between atoms: C6_7  and  C19_27 
REMARK    5  A    between atoms: O2_8  and  C7_9 
REMARK    6  A    between atoms: C10_12  and  N1_13 
REMARK    7  A    between atoms: C15_21  and  O3_22 
ROOT
HETATM    1  C7  UNL     1      17.347 -14.001  21.387  1.00  0.00     0.109 A 
HETATM    2  C8  UNL     1      17.113 -14.324  22.726  1.00  0.00     0.042 A 
HETATM    3  C9  UNL     1      18.144 -14.652  23.556  1.00  0.00     0.032 A 
HETATM    4  C10 UNL     1      19.457 -14.683  23.124  1.00  0.00     0.033 A 
HETATM    5  C17 UNL     1      19.668 -14.361  21.800  1.00  0.00     0.074 A 
HETATM    6  C18 UNL     1      18.639 -14.024  20.940  1.00  0.00     0.151 A 
HETATM    7  F1  UNL     1      18.999 -13.688  19.666  1.00  0.00    -0.203 F 
ENDROOT
BRANCH   1   8
HETATM    8  O2  UNL     1      16.303 -13.675  20.582  1.00  0.00    -0.327 OA
BRANCH   8   9
HETATM    9  C6  UNL     1      15.463 -14.374  19.752  1.00  0.00     0.153 C 
HETATM   10  C5  UNL     1      15.386 -15.823  20.208  1.00  0.00     0.089 C 
HETATM   11  C3  UNL     1      14.302 -16.112  21.177  1.00  0.00     0.147 C 
HETATM   12  C4  UNL     1      14.833 -17.139  22.185  1.00  0.00     0.049 C 
HETATM   13  N3  UNL     1      13.847 -14.988  21.951  1.00  0.00    -0.056 N 
HETATM   14  C21 UNL     1      13.469 -13.846  21.183  1.00  0.00     0.123 C 
ATOM     15  H32 UNL     1      13.083 -15.268  22.567  1.00  0.00     0.279 HD
ATOM     16  H31 UNL     1      14.549 -14.731  22.646  1.00  0.00     0.279 HD
HETATM   17  C20 UNL     1      14.079 -13.727  19.847  1.00  0.00     0.086 C 
HETATM   18  C22 UNL     1      13.844 -12.608  22.009  1.00  0.00     0.046 C 
HETATM   19  C23 UNL     1      11.962 -13.819  21.051  1.00  0.00     0.046 C 
BRANCH  11  20
HETATM   20  C2  UNL     1      13.140 -16.828  20.495  1.00  0.00     0.205 C 
BRANCH  20  21
HETATM   21  O1  UNL     1      12.209 -17.275  21.428  1.00  0.00    -0.393 OA
HETATM   22  C1  UNL     1      11.168 -17.860  20.711  1.00  0.00     0.201 C 
ENDBRANCH  20  21
ENDBRANCH  11  20
BRANCH   9  23
HETATM   23  C19 UNL     1      15.798 -14.342  18.279  1.00  0.00     0.279 C 
HETATM   24  F2  UNL     1      16.695 -13.375  17.924  1.00  0.00    -0.174 F 
HETATM   25  F3  UNL     1      14.718 -14.478  17.452  1.00  0.00    -0.174 F 
ENDBRANCH   9  23
ENDBRANCH   8   9
ENDBRANCH   1   8
BRANCH   4  26
HETATM   26  N1  UNL     1      20.494 -15.024  23.995  1.00  0.00    -0.370 N 
HETATM   27  C11 UNL     1      20.854 -14.287  25.218  1.00  0.00     0.159 C 
HETATM   28  C12 UNL     1      22.121 -14.989  25.724  1.00  0.00     0.234 C 
HETATM   29  N2  UNL     1      21.701 -16.243  26.273  1.00  0.00    -0.065 N 
HETATM   30  C15 UNL     1      22.711 -15.430  24.383  1.00  0.00     0.177 C 
HETATM   31  C13 UNL     1      21.176 -16.997  25.128  1.00  0.00     0.260 C 
ATOM     32  H22 UNL     1      22.430 -16.733  26.792  1.00  0.00     0.277 HD
ATOM     33  H21 UNL     1      21.045 -16.156  27.050  1.00  0.00     0.277 HD
HETATM   34  C14 UNL     1      21.407 -16.114  23.917  1.00  0.00     0.141 C 
BRANCH  30  35
HETATM   35  O3  UNL     1      23.635 -16.417  24.489  1.00  0.00    -0.386 OA
HETATM   36  C16 UNL     1      24.945 -16.063  24.335  1.00  0.00     0.202 C 
ENDBRANCH  30  35
ENDBRANCH   4  26
TORSDOF 7
ENDMDL
MODEL 4
REMARK VINA RESULT: -7.222302652      2.621      7.990
REMARK  7 active torsions:
REMARK  status: ('A' for Active; 'I' for Inactive)
REMARK    1  A    between atoms: O1_2  and  C2_3 
REMARK    2  A    between atoms: C2_3  and  C3_4 
REMARK    3  A    between atoms: C6_7  and  O2_8 
REMARK    4  A    between atoms: C6_7  and  C19_27 
REMARK    5  A    between atoms: O2_8  and  C7_9 
REMARK    6  A    between atoms: C10_12  and  N1_13 
REMARK    7  A    between atoms: C15_21  and  O3_22 
ROOT
HETATM    1  C7  UNL     1      17.016 -15.275  20.855  1.00  0.00     0.109 A 
HETATM    2  C8  UNL     1      17.991 -14.278  20.944  1.00  0.00     0.042 A 
HETATM    3  C9  UNL     1      18.886 -14.267  21.974  1.00  0.00     0.032 A 
HETATM    4  C10 UNL     1      18.877 -15.227  22.968  1.00  0.00     0.033 A 
HETATM    5  C17 UNL     1      17.909 -16.202  22.862  1.00  0.00     0.074 A 
HETATM    6  C18 UNL     1      16.992 -16.235  21.828  1.00  0.00     0.151 A 
HETATM    7  F1  UNL     1      16.116 -17.283  21.827  1.00  0.00    -0.203 F 
ENDROOT
BRANCH   1   8
HETATM    8  O2  UNL     1      16.138 -15.264  19.819  1.00  0.00    -0.327 OA
BRANCH   8   9
HETATM    9  C6  UNL     1      14.799 -14.996  19.685  1.00  0.00     0.153 C 
HETATM   10  C5  UNL     1      14.364 -14.020  20.766  1.00  0.00     0.089 C 
HETATM   11  C3  UNL     1      14.459 -12.591  20.388  1.00  0.00     0.147 C 
HETATM   12  C4  UNL     1      14.914 -11.806  21.625  1.00  0.00     0.049 C 
HETATM   13  N3  UNL     1      15.405 -12.286  19.348  1.00  0.00    -0.056 N 
HETATM   14  C21 UNL     1      15.254 -13.057  18.157  1.00  0.00     0.123 C 
ATOM     15  H32 UNL     1      15.383 -11.290  19.130  1.00  0.00     0.279 HD
ATOM     16  H31 UNL     1      16.358 -12.368  19.703  1.00  0.00     0.279 HD
HETATM   17  C20 UNL     1      14.593 -14.365  18.305  1.00  0.00     0.086 C 
HETATM   18  C22 UNL     1      16.660 -13.275  17.584  1.00  0.00     0.046 C 
HETATM   19  C23 UNL     1      14.509 -12.232  17.130  1.00  0.00     0.046 C 
BRANCH  11  20
HETATM   20  C2  UNL     1      13.079 -12.020  20.073  1.00  0.00     0.205 C 
BRANCH  20  21
HETATM   21  O1  UNL     1      12.963 -10.710  20.526  1.00  0.00    -0.393 OA
HETATM   22  C1  UNL     1      11.952 -10.702  21.485  1.00  0.00     0.201 C 
ENDBRANCH  20  21
ENDBRANCH  11  20
BRANCH   9  23
HETATM   23  C19 UNL     1      13.873 -16.189  19.699  1.00  0.00     0.279 C 
HETATM   24  F2  UNL     1      13.214 -16.380  20.879  1.00  0.00    -0.174 F 
HETATM   25  F3  UNL     1      14.393 -17.316  19.125  1.00  0.00    -0.174 F 
ENDBRANCH   9  23
ENDBRANCH   8   9
ENDBRANCH   1   8
BRANCH   4  26
HETATM   26  N1  UNL     1      19.805 -15.190  24.012  1.00  0.00    -0.370 N 
HETATM   27  C11 UNL     1      19.539 -14.686  25.369  1.00  0.00     0.159 C 
HETATM   28  C12 UNL     1      20.904 -14.745  26.069  1.00  0.00     0.234 C 
HETATM   29  N2  UNL     1      21.166 -16.127  26.336  1.00  0.00    -0.065 N 
HETATM   30  C15 UNL     1      21.811 -14.494  24.863  1.00  0.00     0.177 C 
HETATM   31  C13 UNL     1      21.294 -16.748  25.011  1.00  0.00     0.260 C 
ATOM     32  H22 UNL     1      21.967 -16.287  26.947  1.00  0.00     0.277 HD
ATOM     33  H21 UNL     1      20.472 -16.572  26.938  1.00  0.00     0.277 HD
HETATM   34  C14 UNL     1      21.166 -15.612  24.014  1.00  0.00     0.141 C 
BRANCH  30  35
HETATM   35  O3  UNL     1      23.099 -14.869  25.059  1.00  0.00    -0.386 OA
HETATM   36  C16 UNL     1      24.046 -14.279  24.272  1.00  0.00     0.202 C 
ENDBRANCH  30  35
ENDBRANCH   4  26
TORSDOF 7
ENDMDL
MODEL 5
REMARK VINA RESULT: -7.212404279      3.490      5.245
REMARK  7 active torsions:
REMARK  status: ('A' for Active; 'I' for Inactive)
REMARK    1  A    between atoms: O1_2  and  C2_3 
REMARK    2  A    between atoms: C2_3  and  C3_4 
REMARK    3  A    between atoms: C6_7  and  O2_8 
REMARK    4  A    between atoms: C6_7  and  C19_27 
REMARK    5  A    between atoms: O2_8  and  C7_9 
REMARK    6  A    between atoms: C10_12  and  N1_13 
REMARK    7  A    between atoms: C15_21  and  O3_22 
ROOT
HETATM    1  C7  UNL     1      19.455 -15.428  23.267  1.00  0.00     0.109 A 
HETATM    2  C8  UNL     1      19.244 -14.066  23.037  1.00  0.00     0.042 A 
HETATM    3  C9  UNL     1      18.397 -13.648  22.052  1.00  0.00     0.032 A 
HETATM    4  C10 UNL     1      17.713 -14.535  21.242  1.00  0.00     0.033 A 
HETATM    5  C17 UNL     1      17.934 -15.873  21.485  1.00  0.00     0.074 A 
HETATM    6  C18 UNL     1      18.787 -16.321  22.477  1.00  0.00     0.151 A 
HETATM    7  F1  UNL     1      18.878 -17.675  22.633  1.00  0.00    -0.203 F 
ENDROOT
BRANCH   1   8
HETATM    8  O2  UNL     1      20.302 -15.818  24.255  1.00  0.00    -0.327 OA
BRANCH   8   9
HETATM    9  C6  UNL     1      20.217 -15.920  25.621  1.00  0.00     0.153 C 
HETATM   10  C5  UNL     1      18.807 -16.332  26.014  1.00  0.00     0.089 C 
HETATM   11  C3  UNL     1      18.593 -17.795  26.116  1.00  0.00     0.147 C 
HETATM   12  C4  UNL     1      17.185 -18.102  25.592  1.00  0.00     0.049 C 
HETATM   13  N3  UNL     1      19.495 -18.609  25.344  1.00  0.00    -0.056 N 
HETATM   14  C21 UNL     1      20.879 -18.342  25.565  1.00  0.00     0.123 C 
ATOM     15  H32 UNL     1      19.297 -19.598  25.497  1.00  0.00     0.279 HD
ATOM     16  H31 UNL     1      19.274 -18.535  24.351  1.00  0.00     0.279 HD
HETATM   17  C20 UNL     1      21.213 -16.996  26.063  1.00  0.00     0.086 C 
HETATM   18  C22 UNL     1      21.596 -18.565  24.227  1.00  0.00     0.046 C 
HETATM   19  C23 UNL     1      21.435 -19.380  26.514  1.00  0.00     0.046 C 
BRANCH  11  20
HETATM   20  C2  UNL     1      18.551 -18.237  27.576  1.00  0.00     0.205 C 
BRANCH  20  21
HETATM   21  O1  UNL     1      18.107 -19.552  27.689  1.00  0.00    -0.393 OA
HETATM   22  C1  UNL     1      18.740 -20.097  28.804  1.00  0.00     0.201 C 
ENDBRANCH  20  21
ENDBRANCH  11  20
BRANCH   9  23
HETATM   23  C19 UNL     1      20.608 -14.693  26.410  1.00  0.00     0.279 C 
HETATM   24  F2  UNL     1      19.978 -14.571  27.615  1.00  0.00    -0.174 F 
HETATM   25  F3  UNL     1      20.691 -13.547  25.669  1.00  0.00    -0.174 F 
ENDBRANCH   9  23
ENDBRANCH   8   9
ENDBRANCH   1   8
BRANCH   4  26
HETATM   26  N1  UNL     1      16.853 -14.078  20.241  1.00  0.00    -0.370 N 
HETATM   27  C11 UNL     1      15.972 -14.929  19.424  1.00  0.00     0.159 C 
HETATM   28  C12 UNL     1      15.353 -13.963  18.405  1.00  0.00     0.234 C 
HETATM   29  N2  UNL     1      14.392 -13.176  19.117  1.00  0.00    -0.065 N 
HETATM   30  C15 UNL     1      16.511 -12.974  18.267  1.00  0.00     0.177 C 
HETATM   31  C13 UNL     1      15.184 -12.397  20.077  1.00  0.00     0.260 C 
ATOM     32  H22 UNL     1      13.793 -12.609  18.517  1.00  0.00     0.277 HD
ATOM     33  H21 UNL     1      13.644 -13.723  19.544  1.00  0.00     0.277 HD
HETATM   34  C14 UNL     1      16.632 -12.745  19.790  1.00  0.00     0.141 C 
BRANCH  30  35
HETATM   35  O3  UNL     1      16.151 -11.779  17.737  1.00  0.00    -0.386 OA
HETATM   36  C16 UNL     1      16.428 -11.575  16.415  1.00  0.00     0.202 C 
ENDBRANCH  30  35
ENDBRANCH   4  26
TORSDOF 7
ENDMDL
