MODEL 1
REMARK VINA RESULT: -6.984255356      0.000      0.000
REMARK  4 active torsions:
REMARK  status: ('A' for Active; 'I' for Inactive)
REMARK    1  A    between atoms: O1_2  and  C2_3 
REMARK    2  A    between atoms: C2_3  and  C3_5 
REMARK    3  A    between atoms: C5_7  and  O3_8 
REMARK    4  A    between atoms: C6_10  and  C7_11 
ROOT
HETATM    1  C3  UNL     1       8.309  80.672  47.877  1.00  0.00     0.076 C 
HETATM    2  C4  UNL     1       9.731  80.241  47.602  1.00  0.00     0.029 C 
HETATM    3  C5  UNL     1       7.601  80.617  46.509  1.00  0.00     0.145 C 
HETATM    4  C6  UNL     1       8.218  79.842  45.463  1.00  0.00     0.054 C 
HETATM    5  C8  UNL     1       8.071  78.388  45.349  1.00  0.00    -0.080 C 
HETATM    6  C9  UNL     1       8.738  77.886  44.055  1.00  0.00     0.043 C 
HETATM    7  C10 UNL     1       7.512  77.468  46.083  1.00  0.00    -0.024 C 
HETATM    8  C11 UNL     1       6.772  77.526  47.373  1.00  0.00     0.028 C 
HETATM    9  C12 UNL     1       7.607  77.402  48.576  1.00  0.00     0.013 C 
HETATM   10  C13 UNL     1       8.043  78.599  49.335  1.00  0.00    -0.037 C 
HETATM   11  C14 UNL     1       9.414  78.329  49.862  1.00  0.00     0.015 C 
HETATM   12  C15 UNL     1       7.178  78.887  50.588  1.00  0.00     0.018 C 
HETATM   13  C16 UNL     1       7.300  80.387  50.254  1.00  0.00    -0.041 C 
HETATM   14  C17 UNL     1       8.304  81.137  51.006  1.00  0.00     0.015 C 
HETATM   15  C18 UNL     1       5.907  80.967  50.518  1.00  0.00     0.015 C 
HETATM   16  C19 UNL     1       7.573  79.887  48.867  1.00  0.00     0.022 C 
ENDROOT
BRANCH   1  17
HETATM   17  C2  UNL     1       8.409  82.138  48.177  1.00  0.00     0.270 C 
HETATM   18  O2  UNL     1       7.424  82.862  48.474  1.00  0.00    -0.264 OA
BRANCH  17  19
HETATM   19  O1  UNL     1       9.620  82.821  48.148  1.00  0.00    -0.326 OA
HETATM   20  C1  UNL     1      10.302  83.227  49.297  1.00  0.00     0.213 C 
ENDBRANCH  17  19
ENDBRANCH   1  17
BRANCH   3  21
HETATM   21  O3  UNL     1       7.436  81.950  46.012  1.00  0.00    -0.394 OA
ATOM     22  H3  UNL     1       6.529  82.077  45.756  1.00  0.00     0.210 HD
ENDBRANCH   3  21
BRANCH   4  23
HETATM   23  C7  UNL     1       7.672  80.439  44.124  1.00  0.00     0.098 C 
HETATM   24  S1  UNL     1       9.055  81.264  43.332  1.00  0.00    -0.097 SA
ENDBRANCH   4  23
TORSDOF 4
ENDMDL
MODEL 2
REMARK VINA RESULT: -6.323049505      2.476      4.600
REMARK  4 active torsions:
REMARK  status: ('A' for Active; 'I' for Inactive)
REMARK    1  A    between atoms: O1_2  and  C2_3 
REMARK    2  A    between atoms: C2_3  and  C3_5 
REMARK    3  A    between atoms: C5_7  and  O3_8 
REMARK    4  A    between atoms: C6_10  and  C7_11 
ROOT
HETATM    1  C3  UNL     1       8.069  79.456  47.837  1.00  0.00     0.076 C 
HETATM    2  C4  UNL     1       9.378  78.843  48.279  1.00  0.00     0.029 C 
HETATM    3  C5  UNL     1       6.991  78.426  48.229  1.00  0.00     0.145 C 
HETATM    4  C6  UNL     1       7.338  77.428  49.208  1.00  0.00     0.054 C 
HETATM    5  C8  UNL     1       7.310  77.678  50.653  1.00  0.00    -0.080 C 
HETATM    6  C9  UNL     1       7.603  76.377  51.423  1.00  0.00     0.043 C 
HETATM    7  C10 UNL     1       7.093  78.728  51.392  1.00  0.00    -0.024 C 
HETATM    8  C11 UNL     1       6.775  80.142  51.057  1.00  0.00     0.028 C 
HETATM    9  C12 UNL     1       7.940  81.017  50.873  1.00  0.00     0.013 C 
HETATM   10  C13 UNL     1       8.463  81.328  49.520  1.00  0.00    -0.037 C 
HETATM   11  C14 UNL     1       9.949  81.438  49.621  1.00  0.00     0.015 C 
HETATM   12  C15 UNL     1       7.991  82.698  48.973  1.00  0.00     0.018 C 
HETATM   13  C16 UNL     1       7.857  82.033  47.590  1.00  0.00    -0.041 C 
HETATM   14  C17 UNL     1       8.960  82.252  46.656  1.00  0.00     0.015 C 
HETATM   15  C18 UNL     1       6.556  82.594  47.004  1.00  0.00     0.015 C 
HETATM   16  C19 UNL     1       7.748  80.770  48.391  1.00  0.00     0.022 C 
ENDROOT
BRANCH   1  17
HETATM   17  C2  UNL     1       8.107  79.390  46.339  1.00  0.00     0.270 C 
HETATM   18  O2  UNL     1       7.168  79.774  45.596  1.00  0.00    -0.264 OA
BRANCH  17  19
HETATM   19  O1  UNL     1       9.204  78.890  45.646  1.00  0.00    -0.326 OA
HETATM   20  C1  UNL     1       9.532  79.277  44.344  1.00  0.00     0.213 C 
ENDBRANCH  17  19
ENDBRANCH   1  17
BRANCH   3  21
HETATM   21  O3  UNL     1       6.551  77.736  47.054  1.00  0.00    -0.394 OA
ATOM     22  H3  UNL     1       5.631  77.922  46.909  1.00  0.00     0.210 HD
ENDBRANCH   3  21
BRANCH   4  23
HETATM   23  C7  UNL     1       6.357  76.236  48.956  1.00  0.00     0.098 C 
HETATM   24  S1  UNL     1       7.194  75.118  47.827  1.00  0.00    -0.097 SA
ENDBRANCH   4  23
TORSDOF 4
ENDMDL
MODEL 3
REMARK VINA RESULT: -6.281160767      4.907      7.498
REMARK  4 active torsions:
REMARK  status: ('A' for Active; 'I' for Inactive)
REMARK    1  A    between atoms: O1_2  and  C2_3 
REMARK    2  A    between atoms: C2_3  and  C3_5 
REMARK    3  A    between atoms: C5_7  and  O3_8 
REMARK    4  A    between atoms: C6_10  and  C7_11 
ROOT
HETATM    1  C3  UNL     1      11.276  78.083  42.755  1.00  0.00     0.076 C 
HETATM    2  C4  UNL     1      12.037  78.633  41.570  1.00  0.00     0.029 C 
HETATM    3  C5  UNL     1      12.136  76.915  43.277  1.00  0.00     0.145 C 
HETATM    4  C6  UNL     1      13.519  76.867  42.878  1.00  0.00     0.054 C 
HETATM    5  C8  UNL     1      14.572  77.646  43.536  1.00  0.00    -0.080 C 
HETATM    6  C9  UNL     1      15.951  77.268  42.963  1.00  0.00     0.043 C 
HETATM    7  C10 UNL     1      14.585  78.551  44.473  1.00  0.00    -0.024 C 
HETATM    8  C11 UNL     1      13.502  79.179  45.277  1.00  0.00     0.028 C 
HETATM    9  C12 UNL     1      12.905  80.384  44.686  1.00  0.00     0.013 C 
HETATM   10  C13 UNL     1      11.633  80.318  43.926  1.00  0.00    -0.037 C 
HETATM   11  C14 UNL     1      11.712  81.317  42.818  1.00  0.00     0.015 C 
HETATM   12  C15 UNL     1      10.392  80.733  44.756  1.00  0.00     0.018 C 
HETATM   13  C16 UNL     1       9.617  79.602  44.054  1.00  0.00    -0.041 C 
HETATM   14  C17 UNL     1       8.766  80.000  42.934  1.00  0.00     0.015 C 
HETATM   15  C18 UNL     1       8.767  78.960  45.156  1.00  0.00     0.015 C 
HETATM   16  C19 UNL     1      10.984  79.026  43.833  1.00  0.00     0.022 C 
ENDROOT
BRANCH   1  17
HETATM   17  C2  UNL     1      10.076  77.412  42.155  1.00  0.00     0.270 C 
HETATM   18  O2  UNL     1       9.741  77.524  40.947  1.00  0.00    -0.264 OA
BRANCH  17  19
HETATM   19  O1  UNL     1       9.228  76.602  42.901  1.00  0.00    -0.326 OA
HETATM   20  C1  UNL     1       7.902  76.344  42.545  1.00  0.00     0.213 C 
ENDBRANCH  17  19
ENDBRANCH   1  17
BRANCH   3  21
HETATM   21  O3  UNL     1      11.534  75.677  42.884  1.00  0.00    -0.394 OA
ATOM     22  H3  UNL     1      11.955  75.363  42.092  1.00  0.00     0.210 HD
ENDBRANCH   3  21
BRANCH   4  23
HETATM   23  C7  UNL     1      13.941  75.367  43.014  1.00  0.00     0.098 C 
HETATM   24  S1  UNL     1      13.928  74.992  44.770  1.00  0.00    -0.097 SA
ENDBRANCH   4  23
TORSDOF 4
ENDMDL
MODEL 4
REMARK VINA RESULT: -6.258893738      2.790      5.419
REMARK  4 active torsions:
REMARK  status: ('A' for Active; 'I' for Inactive)
REMARK    1  A    between atoms: O1_2  and  C2_3 
REMARK    2  A    between atoms: C2_3  and  C3_5 
REMARK    3  A    between atoms: C5_7  and  O3_8 
REMARK    4  A    between atoms: C6_10  and  C7_11 
ROOT
HETATM    1  C3  UNL     1       9.680  81.065  46.520  1.00  0.00     0.076 C 
HETATM    2  C4  UNL     1       9.753  82.429  47.166  1.00  0.00     0.029 C 
HETATM    3  C5  UNL     1       9.537  80.074  47.692  1.00  0.00     0.145 C 
HETATM    4  C6  UNL     1       9.104  80.594  48.964  1.00  0.00     0.054 C 
HETATM    5  C8  UNL     1       7.697  80.843  49.293  1.00  0.00    -0.080 C 
HETATM    6  C9  UNL     1       7.562  81.267  50.767  1.00  0.00     0.043 C 
HETATM    7  C10 UNL     1       6.580  80.777  48.625  1.00  0.00    -0.024 C 
HETATM    8  C11 UNL     1       6.274  80.411  47.216  1.00  0.00     0.028 C 
HETATM    9  C12 UNL     1       6.304  81.527  46.261  1.00  0.00     0.013 C 
HETATM   10  C13 UNL     1       7.498  81.786  45.419  1.00  0.00    -0.037 C 
HETATM   11  C14 UNL     1       7.628  83.264  45.255  1.00  0.00     0.015 C 
HETATM   12  C15 UNL     1       7.372  81.228  43.979  1.00  0.00     0.018 C 
HETATM   13  C16 UNL     1       8.858  80.828  44.067  1.00  0.00    -0.041 C 
HETATM   14  C17 UNL     1       9.811  81.735  43.431  1.00  0.00     0.015 C 
HETATM   15  C18 UNL     1       8.936  79.444  43.414  1.00  0.00     0.015 C 
HETATM   16  C19 UNL     1       8.609  80.864  45.546  1.00  0.00     0.022 C 
ENDROOT
BRANCH   1  17
HETATM   17  C2  UNL     1      11.065  80.817  46.001  1.00  0.00     0.270 C 
HETATM   18  O2  UNL     1      11.992  81.667  46.045  1.00  0.00    -0.264 OA
BRANCH  17  19
HETATM   19  O1  UNL     1      11.437  79.610  45.422  1.00  0.00    -0.326 OA
HETATM   20  C1  UNL     1      12.567  79.459  44.615  1.00  0.00     0.213 C 
ENDBRANCH  17  19
ENDBRANCH   1  17
BRANCH   3  21
HETATM   21  O3  UNL     1      10.790  79.413  47.904  1.00  0.00    -0.394 OA
ATOM     22  H3  UNL     1      10.668  78.705  48.526  1.00  0.00     0.210 HD
ENDBRANCH   3  21
BRANCH   4  23
HETATM   23  C7  UNL     1       9.624  79.574  50.030  1.00  0.00     0.098 C 
HETATM   24  S1  UNL     1       8.642  78.084  49.831  1.00  0.00    -0.097 SA
ENDBRANCH   4  23
TORSDOF 4
ENDMDL
MODEL 5
REMARK VINA RESULT: -6.143584398      2.137      4.697
REMARK  4 active torsions:
REMARK  status: ('A' for Active; 'I' for Inactive)
REMARK    1  A    between atoms: O1_2  and  C2_3 
REMARK    2  A    between atoms: C2_3  and  C3_5 
REMARK    3  A    between atoms: C5_7  and  O3_8 
REMARK    4  A    between atoms: C6_10  and  C7_11 
ROOT
HETATM    1  C3  UNL     1       8.955  80.952  46.723  1.00  0.00     0.076 C 
HETATM    2  C4  UNL     1       8.507  82.248  46.088  1.00  0.00     0.029 C 
HETATM    3  C5  UNL     1      10.493  80.964  46.619  1.00  0.00     0.145 C 
HETATM    4  C6  UNL     1      11.141  82.230  46.383  1.00  0.00     0.054 C 
HETATM    5  C8  UNL     1      11.426  83.196  47.448  1.00  0.00    -0.080 C 
HETATM    6  C9  UNL     1      12.241  84.377  46.890  1.00  0.00     0.043 C 
HETATM    7  C10 UNL     1      11.149  83.258  48.720  1.00  0.00    -0.024 C 
HETATM    8  C11 UNL     1      10.409  82.345  49.631  1.00  0.00     0.028 C 
HETATM    9  C12 UNL     1       8.963  82.590  49.721  1.00  0.00     0.013 C 
HETATM   10  C13 UNL     1       7.997  81.789  48.931  1.00  0.00    -0.037 C 
HETATM   11  C14 UNL     1       6.873  82.690  48.537  1.00  0.00     0.015 C 
HETATM   12  C15 UNL     1       7.335  80.644  49.738  1.00  0.00     0.018 C 
HETATM   13  C16 UNL     1       7.443  79.770  48.474  1.00  0.00    -0.041 C 
HETATM   14  C17 UNL     1       6.231  79.648  47.666  1.00  0.00     0.015 C 
HETATM   15  C18 UNL     1       7.875  78.390  48.981  1.00  0.00     0.015 C 
HETATM   16  C19 UNL     1       8.537  80.728  48.106  1.00  0.00     0.022 C 
ENDROOT
BRANCH   1  17
HETATM   17  C2  UNL     1       8.533  79.890  45.752  1.00  0.00     0.270 C 
HETATM   18  O2  UNL     1       8.812  78.670  45.882  1.00  0.00    -0.264 OA
BRANCH  17  19
HETATM   19  O1  UNL     1       7.789  80.178  44.613  1.00  0.00    -0.326 OA
HETATM   20  C1  UNL     1       8.107  79.691  43.343  1.00  0.00     0.213 C 
ENDBRANCH  17  19
ENDBRANCH   1  17
BRANCH   3  21
HETATM   21  O3  UNL     1      10.900  80.075  45.573  1.00  0.00    -0.394 OA
ATOM     22  H3  UNL     1      10.978  80.562  44.762  1.00  0.00     0.210 HD
ENDBRANCH   3  21
BRANCH   4  23
HETATM   23  C7  UNL     1      12.521  81.877  45.737  1.00  0.00     0.098 C 
HETATM   24  S1  UNL     1      12.440  82.424  44.029  1.00  0.00    -0.097 SA
ENDBRANCH   4  23
TORSDOF 4
ENDMDL
