MODEL 1
REMARK VINA RESULT: -7.102327562      0.000      0.000
REMARK  3 active torsions:
REMARK  status: ('A' for Active; 'I' for Inactive)
REMARK    1  A    between atoms: N3_4  and  N4_6 
REMARK    2  A    between atoms: C2_8  and  C3_9 
REMARK    3  A    between atoms: C8_14  and  C9_15 
ROOT
HETATM    1  C3  UNL     1      16.085  16.775  21.542  1.00  0.00     0.040 C 
HETATM    2  C4  UNL     1      14.849  16.849  20.672  1.00  0.00     0.011 C 
HETATM    3  C5  UNL     1      15.150  16.476  19.236  1.00  0.00     0.001 C 
HETATM    4  C6  UNL     1      16.146  17.406  18.597  1.00  0.00     0.001 C 
HETATM    5  C7  UNL     1      17.114  17.893  19.641  1.00  0.00     0.016 C 
HETATM    6  C8  UNL     1      17.281  16.777  20.655  1.00  0.00     0.096 C 
ENDROOT
BRANCH   1   7
HETATM    7  C2  UNL     1      16.063  17.863  22.525  1.00  0.00     0.085 C 
HETATM    8  N4  UNL     1      15.545  17.699  23.691  1.00  0.00    -0.313 N 
ATOM      9  H4  UNL     1      15.547  18.480  24.348  1.00  0.00     0.185 HD
BRANCH   8  10
HETATM   10  N3  UNL     1      14.981  16.488  24.084  1.00  0.00    -0.277 N 
HETATM   11  C1  UNL     1      13.705  16.320  24.212  1.00  0.00     0.215 C 
HETATM   12  N1  UNL     1      13.251  15.025  24.622  1.00  0.00    -0.065 NA
HETATM   13  N2  UNL     1      12.786  17.360  23.962  1.00  0.00    -0.065 NA
ATOM     14  H3  UNL     1      15.600  15.701  24.278  1.00  0.00     0.189 HD
ENDBRANCH   8  10
ENDBRANCH   1   7
BRANCH   6  15
HETATM   15  C9  UNL     1      18.561  16.886  21.390  1.00  0.00     0.177 C 
HETATM   16  O1  UNL     1      18.610  16.935  22.648  1.00  0.00    -0.648 OA
HETATM   17  O2  UNL     1      19.728  16.933  20.631  1.00  0.00    -0.648 OA
ENDBRANCH   6  15
TORSDOF 3
ENDMDL
MODEL 2
REMARK VINA RESULT: -7.046773846      4.996      6.008
REMARK  3 active torsions:
REMARK  status: ('A' for Active; 'I' for Inactive)
REMARK    1  A    between atoms: N3_4  and  N4_6 
REMARK    2  A    between atoms: C2_8  and  C3_9 
REMARK    3  A    between atoms: C8_14  and  C9_15 
ROOT
HETATM    1  C3  UNL     1      14.837  16.576  18.702  1.00  0.00     0.040 C 
HETATM    2  C4  UNL     1      15.090  16.071  20.106  1.00  0.00     0.011 C 
HETATM    3  C5  UNL     1      15.915  17.051  20.914  1.00  0.00     0.001 C 
HETATM    4  C6  UNL     1      17.277  17.283  20.320  1.00  0.00     0.001 C 
HETATM    5  C7  UNL     1      17.193  17.171  18.821  1.00  0.00     0.016 C 
HETATM    6  C8  UNL     1      15.816  17.658  18.411  1.00  0.00     0.096 C 
ENDROOT
BRANCH   1   7
HETATM    7  C2  UNL     1      14.882  15.454  17.759  1.00  0.00     0.085 C 
HETATM    8  N4  UNL     1      13.943  15.265  16.899  1.00  0.00    -0.313 N 
ATOM      9  H4  UNL     1      14.009  14.473  16.259  1.00  0.00     0.185 HD
BRANCH   8  10
HETATM   10  N3  UNL     1      12.839  16.111  16.816  1.00  0.00    -0.277 N 
HETATM   11  C1  UNL     1      12.062  16.145  15.783  1.00  0.00     0.215 C 
HETATM   12  N1  UNL     1      10.959  17.058  15.820  1.00  0.00    -0.065 NA
HETATM   13  N2  UNL     1      12.279  15.323  14.657  1.00  0.00    -0.065 NA
ATOM     14  H3  UNL     1      12.636  16.728  17.602  1.00  0.00     0.189 HD
ENDBRANCH   8  10
ENDBRANCH   1   7
BRANCH   6  15
HETATM   15  C9  UNL     1      15.789  18.116  17.003  1.00  0.00     0.177 C 
HETATM   16  O1  UNL     1      16.826  18.152  16.290  1.00  0.00    -0.648 OA
HETATM   17  O2  UNL     1      14.557  18.512  16.487  1.00  0.00    -0.648 OA
ENDBRANCH   6  15
TORSDOF 3
ENDMDL
MODEL 3
REMARK VINA RESULT: -6.937464695      4.054      5.389
REMARK  3 active torsions:
REMARK  status: ('A' for Active; 'I' for Inactive)
REMARK    1  A    between atoms: N3_4  and  N4_6 
REMARK    2  A    between atoms: C2_8  and  C3_9 
REMARK    3  A    between atoms: C8_14  and  C9_15 
ROOT
HETATM    1  C3  UNL     1      15.918  16.557  20.383  1.00  0.00     0.040 C 
HETATM    2  C4  UNL     1      15.840  17.227  21.738  1.00  0.00     0.011 C 
HETATM    3  C5  UNL     1      14.775  16.600  22.613  1.00  0.00     0.001 C 
HETATM    4  C6  UNL     1      13.396  16.729  22.023  1.00  0.00     0.001 C 
HETATM    5  C7  UNL     1      13.492  16.689  20.521  1.00  0.00     0.016 C 
HETATM    6  C8  UNL     1      14.661  15.788  20.169  1.00  0.00     0.096 C 
ENDROOT
BRANCH   1   7
HETATM    7  C2  UNL     1      16.191  17.562  19.351  1.00  0.00     0.085 C 
HETATM    8  N4  UNL     1      17.378  17.735  18.884  1.00  0.00    -0.313 N 
ATOM      9  H4  UNL     1      17.530  18.445  18.167  1.00  0.00     0.185 HD
BRANCH   8  10
HETATM   10  N3  UNL     1      18.462  16.982  19.329  1.00  0.00    -0.277 N 
HETATM   11  C1  UNL     1      19.534  17.519  19.814  1.00  0.00     0.215 C 
HETATM   12  N1  UNL     1      20.577  16.635  20.238  1.00  0.00    -0.065 NA
HETATM   13  N2  UNL     1      19.684  18.917  19.927  1.00  0.00    -0.065 NA
ATOM     14  H3  UNL     1      18.408  15.965  19.270  1.00  0.00     0.189 HD
ENDBRANCH   8  10
ENDBRANCH   1   7
BRANCH   6  15
HETATM   15  C9  UNL     1      14.536  15.229  18.804  1.00  0.00     0.177 C 
HETATM   16  O1  UNL     1      15.381  14.426  18.329  1.00  0.00    -0.648 OA
HETATM   17  O2  UNL     1      13.433  15.629  18.052  1.00  0.00    -0.648 OA
ENDBRANCH   6  15
TORSDOF 3
ENDMDL
MODEL 4
REMARK VINA RESULT: -6.912477013      5.052      6.052
REMARK  3 active torsions:
REMARK  status: ('A' for Active; 'I' for Inactive)
REMARK    1  A    between atoms: N3_4  and  N4_6 
REMARK    2  A    between atoms: C2_8  and  C3_9 
REMARK    3  A    between atoms: C8_14  and  C9_15 
ROOT
HETATM    1  C3  UNL     1      14.166  16.447  18.505  1.00  0.00     0.040 C 
HETATM    2  C4  UNL     1      13.730  15.803  19.804  1.00  0.00     0.011 C 
HETATM    3  C5  UNL     1      14.078  16.663  21.001  1.00  0.00     0.001 C 
HETATM    4  C6  UNL     1      15.560  16.882  21.140  1.00  0.00     0.001 C 
HETATM    5  C7  UNL     1      16.190  16.913  19.773  1.00  0.00     0.016 C 
HETATM    6  C8  UNL     1      15.167  17.503  18.820  1.00  0.00     0.096 C 
ENDROOT
BRANCH   1   7
HETATM    7  C2  UNL     1      14.649  15.416  17.581  1.00  0.00     0.085 C 
HETATM    8  N4  UNL     1      14.226  15.356  16.367  1.00  0.00    -0.313 N 
ATOM      9  H4  UNL     1      14.584  14.624  15.754  1.00  0.00     0.185 HD
BRANCH   8  10
HETATM   10  N3  UNL     1      13.294  16.261  15.865  1.00  0.00    -0.277 N 
HETATM   11  C1  UNL     1      12.079  15.926  15.577  1.00  0.00     0.215 C 
HETATM   12  N1  UNL     1      11.218  16.950  15.069  1.00  0.00    -0.065 NA
HETATM   13  N2  UNL     1      11.606  14.608  15.752  1.00  0.00    -0.065 NA
ATOM     14  H3  UNL     1      13.583  17.228  15.719  1.00  0.00     0.189 HD
ENDBRANCH   8  10
ENDBRANCH   1   7
BRANCH   6  15
HETATM   15  C9  UNL     1      15.804  18.089  17.619  1.00  0.00     0.177 C 
HETATM   16  O1  UNL     1      17.053  18.207  17.514  1.00  0.00    -0.648 OA
HETATM   17  O2  UNL     1      14.961  18.510  16.594  1.00  0.00    -0.648 OA
ENDBRANCH   6  15
TORSDOF 3
ENDMDL
MODEL 5
REMARK VINA RESULT: -6.857470279      3.711      4.945
REMARK  3 active torsions:
REMARK  status: ('A' for Active; 'I' for Inactive)
REMARK    1  A    between atoms: N3_4  and  N4_6 
REMARK    2  A    between atoms: C2_8  and  C3_9 
REMARK    3  A    between atoms: C8_14  and  C9_15 
ROOT
HETATM    1  C3  UNL     1      14.925  16.555  21.939  1.00  0.00     0.040 C 
HETATM    2  C4  UNL     1      16.257  17.025  21.394  1.00  0.00     0.011 C 
HETATM    3  C5  UNL     1      17.292  17.168  22.490  1.00  0.00     0.001 C 
HETATM    4  C6  UNL     1      16.898  18.190  23.523  1.00  0.00     0.001 C 
HETATM    5  C7  UNL     1      15.401  18.200  23.668  1.00  0.00     0.016 C 
HETATM    6  C8  UNL     1      14.914  16.786  23.410  1.00  0.00     0.096 C 
ENDROOT
BRANCH   1   7
HETATM    7  C2  UNL     1      13.835  17.218  21.218  1.00  0.00     0.085 C 
HETATM    8  N4  UNL     1      13.187  16.615  20.284  1.00  0.00    -0.313 N 
ATOM      9  H4  UNL     1      12.435  17.109  19.804  1.00  0.00     0.185 HD
BRANCH   8  10
HETATM   10  N3  UNL     1      13.482  15.306  19.909  1.00  0.00    -0.277 N 
HETATM   11  C1  UNL     1      13.179  14.827  18.747  1.00  0.00     0.215 C 
HETATM   12  N1  UNL     1      13.537  13.466  18.484  1.00  0.00    -0.065 NA
HETATM   13  N2  UNL     1      12.523  15.601  17.767  1.00  0.00    -0.065 NA
ATOM     14  H3  UNL     1      13.956  14.701  20.580  1.00  0.00     0.189 HD
ENDBRANCH   8  10
ENDBRANCH   1   7
BRANCH   6  15
HETATM   15  C9  UNL     1      13.598  16.531  24.038  1.00  0.00     0.177 C 
HETATM   16  O1  UNL     1      13.162  15.366  24.229  1.00  0.00    -0.648 OA
HETATM   17  O2  UNL     1      12.849  17.643  24.417  1.00  0.00    -0.648 OA
ENDBRANCH   6  15
TORSDOF 3
ENDMDL
