MODEL 1
REMARK VINA RESULT: -6.334304106      0.000      0.000
REMARK  4 active torsions:
REMARK  status: ('A' for Active; 'I' for Inactive)
REMARK    1  A    between atoms: C3_3  and  N1_4 
REMARK    2  A    between atoms: C3_3  and  C5_9 
REMARK       I    between atoms: C5_9  and  N4_11 
REMARK    3  A    between atoms: N4_11  and  C6_13 
REMARK    4  A    between atoms: C6_13  and  C7_14 
ROOT
HETATM    1  C1  UNL     1      56.083  15.622  45.973  1.00  0.00     0.015 C 
HETATM    2  C2  UNL     1      56.893  16.111  45.230  1.00  0.00    -0.082 C 
HETATM    3  C3  UNL     1      57.884  16.685  44.334  1.00  0.00     0.255 C 
ENDROOT
BRANCH   3   4
HETATM    4  N1  UNL     1      58.636  17.746  44.937  1.00  0.00    -0.344 N 
HETATM    5  C4  UNL     1      59.895  17.900  44.770  1.00  0.00     0.198 C 
HETATM    6  N2  UNL     1      60.649  16.992  43.947  1.00  0.00    -0.067 NA
HETATM    7  N3  UNL     1      60.610  18.959  45.378  1.00  0.00    -0.067 NA
ATOM      8  H1  UNL     1      58.142  18.413  45.530  1.00  0.00     0.163 HD
ENDBRANCH   3   4
BRANCH   3   9
HETATM    9  C5  UNL     1      57.237  17.115  43.057  1.00  0.00     0.253 C 
HETATM   10  O1  UNL     1      57.441  18.327  42.734  1.00  0.00    -0.270 OA
HETATM   11  N4  UNL     1      56.468  16.232  42.289  1.00  0.00    -0.339 N 
ATOM     12  H4  UNL     1      56.378  15.282  42.650  1.00  0.00     0.164 HD
BRANCH  11  13
HETATM   13  C6  UNL     1      55.794  16.505  41.053  1.00  0.00     0.130 C 
HETATM   14  C8  UNL     1      54.885  15.349  40.713  1.00  0.00     0.053 C 
HETATM   15  C9  UNL     1      54.152  15.644  39.451  1.00  0.00     0.077 C 
HETATM   16  S1  UNL     1      54.055  17.480  39.488  1.00  0.00    -0.166 SA
HETATM   17  C10 UNL     1      54.865  17.684  41.131  1.00  0.00     0.116 C 
BRANCH  13  18
HETATM   18  C7  UNL     1      56.761  16.646  39.933  1.00  0.00     0.203 C 
HETATM   19  O2  UNL     1      57.101  17.807  39.600  1.00  0.00    -0.646 OA
HETATM   20  O3  UNL     1      57.316  15.598  39.230  1.00  0.00    -0.646 OA
ENDBRANCH  13  18
ENDBRANCH  11  13
ENDBRANCH   3   9
TORSDOF 4
ENDMDL
MODEL 2
REMARK VINA RESULT: -6.314033366      1.009      1.298
REMARK  4 active torsions:
REMARK  status: ('A' for Active; 'I' for Inactive)
REMARK    1  A    between atoms: C3_3  and  N1_4 
REMARK    2  A    between atoms: C3_3  and  C5_9 
REMARK       I    between atoms: C5_9  and  N4_11 
REMARK    3  A    between atoms: N4_11  and  C6_13 
REMARK    4  A    between atoms: C6_13  and  C7_14 
ROOT
HETATM    1  C1  UNL     1      56.470  15.648  46.219  1.00  0.00     0.015 C 
HETATM    2  C2  UNL     1      57.202  16.182  45.428  1.00  0.00    -0.082 C 
HETATM    3  C3  UNL     1      58.099  16.810  44.472  1.00  0.00     0.255 C 
ENDROOT
BRANCH   3   4
HETATM    4  N1  UNL     1      58.902  17.845  45.054  1.00  0.00    -0.344 N 
HETATM    5  C4  UNL     1      60.154  17.974  44.831  1.00  0.00     0.198 C 
HETATM    6  N2  UNL     1      60.850  17.062  43.962  1.00  0.00    -0.067 NA
HETATM    7  N3  UNL     1      60.921  19.008  45.421  1.00  0.00    -0.067 NA
ATOM      8  H1  UNL     1      58.451  18.514  45.678  1.00  0.00     0.163 HD
ENDBRANCH   3   4
BRANCH   3   9
HETATM    9  C5  UNL     1      57.330  17.300  43.288  1.00  0.00     0.253 C 
HETATM   10  O1  UNL     1      57.118  18.553  43.266  1.00  0.00    -0.270 OA
HETATM   11  N4  UNL     1      56.885  16.426  42.288  1.00  0.00    -0.339 N 
ATOM     12  H4  UNL     1      57.117  15.441  42.414  1.00  0.00     0.164 HD
BRANCH  11  13
HETATM   13  C6  UNL     1      56.142  16.754  41.106  1.00  0.00     0.130 C 
HETATM   14  C8  UNL     1      54.728  17.119  41.489  1.00  0.00     0.053 C 
HETATM   15  C9  UNL     1      53.961  17.499  40.270  1.00  0.00     0.077 C 
HETATM   16  S1  UNL     1      55.286  18.162  39.180  1.00  0.00    -0.166 SA
HETATM   17  C10 UNL     1      56.653  17.979  40.402  1.00  0.00     0.116 C 
BRANCH  13  18
HETATM   18  C7  UNL     1      56.059  15.591  40.184  1.00  0.00     0.203 C 
HETATM   19  O2  UNL     1      57.086  15.294  39.526  1.00  0.00    -0.646 OA
HETATM   20  O3  UNL     1      54.938  14.810  39.995  1.00  0.00    -0.646 OA
ENDBRANCH  13  18
ENDBRANCH  11  13
ENDBRANCH   3   9
TORSDOF 4
ENDMDL
MODEL 3
REMARK VINA RESULT: -5.857918868      2.970      5.853
REMARK  4 active torsions:
REMARK  status: ('A' for Active; 'I' for Inactive)
REMARK    1  A    between atoms: C3_3  and  N1_4 
REMARK    2  A    between atoms: C3_3  and  C5_9 
REMARK       I    between atoms: C5_9  and  N4_11 
REMARK    3  A    between atoms: N4_11  and  C6_13 
REMARK    4  A    between atoms: C6_13  and  C7_14 
ROOT
HETATM    1  C1  UNL     1      54.482  15.534  44.121  1.00  0.00     0.015 C 
HETATM    2  C2  UNL     1      54.873  16.239  43.228  1.00  0.00    -0.082 C 
HETATM    3  C3  UNL     1      55.327  17.103  42.150  1.00  0.00     0.255 C 
ENDROOT
BRANCH   3   4
HETATM    4  N1  UNL     1      55.239  16.483  40.861  1.00  0.00    -0.344 N 
HETATM    5  C4  UNL     1      54.651  17.020  39.860  1.00  0.00     0.198 C 
HETATM    6  N2  UNL     1      54.026  18.312  39.974  1.00  0.00    -0.067 NA
HETATM    7  N3  UNL     1      54.582  16.383  38.599  1.00  0.00    -0.067 NA
ATOM      8  H1  UNL     1      55.667  15.566  40.735  1.00  0.00     0.163 HD
ENDBRANCH   3   4
BRANCH   3   9
HETATM    9  C5  UNL     1      56.706  17.602  42.436  1.00  0.00     0.253 C 
HETATM   10  O1  UNL     1      57.275  18.196  41.467  1.00  0.00    -0.270 OA
HETATM   11  N4  UNL     1      57.309  17.419  43.688  1.00  0.00    -0.339 N 
ATOM     12  H4  UNL     1      56.753  16.929  44.388  1.00  0.00     0.164 HD
BRANCH  11  13
HETATM   13  C6  UNL     1      58.616  17.841  44.100  1.00  0.00     0.130 C 
HETATM   14  C8  UNL     1      58.883  17.346  45.501  1.00  0.00     0.053 C 
HETATM   15  C9  UNL     1      60.254  17.747  45.920  1.00  0.00     0.077 C 
HETATM   16  S1  UNL     1      61.142  17.807  44.310  1.00  0.00    -0.166 SA
HETATM   17  C10 UNL     1      59.722  17.232  43.285  1.00  0.00     0.116 C 
BRANCH  13  18
HETATM   18  C7  UNL     1      58.716  19.324  44.133  1.00  0.00     0.203 C 
HETATM   19  O2  UNL     1      58.244  19.918  45.132  1.00  0.00    -0.646 OA
HETATM   20  O3  UNL     1      59.290  20.100  43.147  1.00  0.00    -0.646 OA
ENDBRANCH  13  18
ENDBRANCH  11  13
ENDBRANCH   3   9
TORSDOF 4
ENDMDL
MODEL 4
REMARK VINA RESULT: -5.791790442      1.922      3.170
REMARK  4 active torsions:
REMARK  status: ('A' for Active; 'I' for Inactive)
REMARK    1  A    between atoms: C3_3  and  N1_4 
REMARK    2  A    between atoms: C3_3  and  C5_9 
REMARK       I    between atoms: C5_9  and  N4_11 
REMARK    3  A    between atoms: N4_11  and  C6_13 
REMARK    4  A    between atoms: C6_13  and  C7_14 
ROOT
HETATM    1  C1  UNL     1      60.847  18.756  43.857  1.00  0.00     0.015 C 
HETATM    2  C2  UNL     1      59.754  18.358  44.163  1.00  0.00    -0.082 C 
HETATM    3  C3  UNL     1      58.428  17.895  44.541  1.00  0.00     0.255 C 
ENDROOT
BRANCH   3   4
HETATM    4  N1  UNL     1      58.445  17.002  45.662  1.00  0.00    -0.344 N 
HETATM    5  C4  UNL     1      57.386  16.553  46.220  1.00  0.00     0.198 C 
HETATM    6  N2  UNL     1      56.081  16.930  45.745  1.00  0.00    -0.067 NA
HETATM    7  N3  UNL     1      57.435  15.671  47.326  1.00  0.00    -0.067 NA
ATOM      8  H1  UNL     1      59.348  16.709  46.033  1.00  0.00     0.163 HD
ENDBRANCH   3   4
BRANCH   3   9
HETATM    9  C5  UNL     1      57.735  17.296  43.360  1.00  0.00     0.253 C 
HETATM   10  O1  UNL     1      58.198  16.176  42.977  1.00  0.00    -0.270 OA
HETATM   11  N4  UNL     1      56.657  17.937  42.737  1.00  0.00    -0.339 N 
ATOM     12  H4  UNL     1      56.373  18.832  43.136  1.00  0.00     0.164 HD
BRANCH  11  13
HETATM   13  C6  UNL     1      55.904  17.483  41.605  1.00  0.00     0.130 C 
HETATM   14  C8  UNL     1      54.841  18.501  41.269  1.00  0.00     0.053 C 
HETATM   15  C9  UNL     1      54.081  18.054  40.069  1.00  0.00     0.077 C 
HETATM   16  S1  UNL     1      55.341  17.060  39.170  1.00  0.00    -0.166 SA
HETATM   17  C10 UNL     1      56.721  17.385  40.348  1.00  0.00     0.116 C 
BRANCH  13  18
HETATM   18  C7  UNL     1      55.206  16.204  41.902  1.00  0.00     0.203 C 
HETATM   19  O2  UNL     1      54.379  16.197  42.846  1.00  0.00    -0.646 OA
HETATM   20  O3  UNL     1      55.397  15.021  41.218  1.00  0.00    -0.646 OA
ENDBRANCH  13  18
ENDBRANCH  11  13
ENDBRANCH   3   9
TORSDOF 4
ENDMDL
MODEL 5
REMARK VINA RESULT: -5.763121641      3.119      6.043
REMARK  4 active torsions:
REMARK  status: ('A' for Active; 'I' for Inactive)
REMARK    1  A    between atoms: C3_3  and  N1_4 
REMARK    2  A    between atoms: C3_3  and  C5_9 
REMARK       I    between atoms: C5_9  and  N4_11 
REMARK    3  A    between atoms: N4_11  and  C6_13 
REMARK    4  A    between atoms: C6_13  and  C7_14 
ROOT
HETATM    1  C1  UNL     1      53.850  19.949  40.216  1.00  0.00     0.015 C 
HETATM    2  C2  UNL     1      54.489  18.930  40.200  1.00  0.00    -0.082 C 
HETATM    3  C3  UNL     1      55.269  17.703  40.162  1.00  0.00     0.255 C 
ENDROOT
BRANCH   3   4
HETATM    4  N1  UNL     1      54.464  16.534  39.961  1.00  0.00    -0.344 N 
HETATM    5  C4  UNL     1      53.972  16.204  38.828  1.00  0.00     0.198 C 
HETATM    6  N2  UNL     1      54.203  17.009  37.657  1.00  0.00    -0.067 NA
HETATM    7  N3  UNL     1      53.181  15.043  38.661  1.00  0.00    -0.067 NA
ATOM      8  H1  UNL     1      54.273  15.935  40.764  1.00  0.00     0.163 HD
ENDBRANCH   3   4
BRANCH   3   9
HETATM    9  C5  UNL     1      56.117  17.593  41.387  1.00  0.00     0.253 C 
HETATM   10  O1  UNL     1      57.216  18.228  41.339  1.00  0.00    -0.270 OA
HETATM   11  N4  UNL     1      55.710  16.841  42.497  1.00  0.00    -0.339 N 
ATOM     12  H4  UNL     1      54.806  16.376  42.419  1.00  0.00     0.164 HD
BRANCH  11  13
HETATM   13  C6  UNL     1      56.416  16.647  43.730  1.00  0.00     0.130 C 
HETATM   14  C8  UNL     1      56.731  17.991  44.343  1.00  0.00     0.053 C 
HETATM   15  C9  UNL     1      57.429  17.796  45.643  1.00  0.00     0.077 C 
HETATM   16  S1  UNL     1      56.757  16.176  46.197  1.00  0.00    -0.166 SA
HETATM   17  C10 UNL     1      55.598  15.953  44.781  1.00  0.00     0.116 C 
BRANCH  13  18
HETATM   18  C7  UNL     1      57.713  15.956  43.503  1.00  0.00     0.203 C 
HETATM   19  O2  UNL     1      57.698  14.704  43.410  1.00  0.00    -0.646 OA
HETATM   20  O3  UNL     1      58.935  16.585  43.387  1.00  0.00    -0.646 OA
ENDBRANCH  13  18
ENDBRANCH  11  13
ENDBRANCH   3   9
TORSDOF 4
ENDMDL
