MODEL 1
REMARK VINA RESULT: -5.040357149      0.000      0.000
REMARK  16 active torsions:
REMARK  status: ('A' for Active; 'I' for Inactive)
REMARK    1  A    between atoms: C1_4  and  N2_5 
REMARK    2  A    between atoms: C1_4  and  C7_30 
REMARK    3  A    between atoms: N2_5  and  O1_7 
REMARK    4  A    between atoms: O1_7  and  C2_8 
REMARK    5  A    between atoms: C3_10  and  N3_11 
REMARK    6  A    between atoms: C4_16  and  N6_17 
REMARK    7  A    between atoms: N7_20  and  N8_21 
REMARK    8  A    between atoms: C5_24  and  O3_25 
REMARK    9  A    between atoms: C6_27  and  O4_28 
REMARK   10  A    between atoms: C8_35  and  N11_36 
REMARK   11  A    between atoms: N11_36  and  C9_38 
REMARK   12  A    between atoms: C9_38  and  C10_39 
REMARK   13  A    between atoms: C10_39  and  C11_40 
REMARK   14  A    between atoms: C11_40  and  O5_41 
REMARK   15  A    between atoms: N12_43  and  N13_45 
REMARK   16  A    between atoms: N13_45  and  N14_47 
ROOT
HETATM    1  N1  UNL     1      21.401   0.693  16.434  1.00  0.00    -0.381 N 
ATOM      2  H11 UNL     1      20.830   0.215  17.132  1.00  0.00     0.157 HD
ATOM      3  H12 UNL     1      21.416   1.712  16.407  1.00  0.00     0.157 HD
HETATM    4  C1  UNL     1      22.085  -0.021  15.607  1.00  0.00     0.166 C 
ENDROOT
BRANCH   4   5
HETATM    5  N2  UNL     1      22.878   0.643  14.635  1.00  0.00    -0.245 N 
ATOM      6  H2  UNL     1      22.917   1.662  14.657  1.00  0.00     0.196 HD
BRANCH   5   7
HETATM    7  O1  UNL     1      23.573   0.005  13.697  1.00  0.00    -0.243 OA
BRANCH   7   8
HETATM    8  C2  UNL     1      22.916  -0.173  12.512  1.00  0.00     0.322 C 
HETATM    9  O2  UNL     1      23.783   0.270  11.487  1.00  0.00    -0.326 OA
HETATM   10  C3  UNL     1      23.124  -0.270  10.370  1.00  0.00     0.301 C 
HETATM   11  C5  UNL     1      23.040  -1.715  10.743  1.00  0.00     0.204 C 
HETATM   12  C6  UNL     1      22.560  -1.591  12.200  1.00  0.00     0.208 C 
BRANCH  10  13
HETATM   13  N3  UNL     1      23.749   0.021   9.141  1.00  0.00    -0.150 N 
HETATM   14  N4  UNL     1      23.122   0.673   8.146  1.00  0.00    -0.207 N 
HETATM   15  N5  UNL     1      23.924   0.809   7.128  1.00  0.00    -0.113 N 
ATOM     16  H4  UNL     1      22.161   1.010   8.182  1.00  0.00     0.211 HD
HETATM   17  C4  UNL     1      25.100   0.247   7.441  1.00  0.00     0.729 A 
ATOM     18  H5  UNL     1      23.697   1.266   6.245  1.00  0.00     0.207 HD
HETATM   19  N7  UNL     1      24.964  -0.229   8.681  1.00  0.00    -0.005 N 
BRANCH  17  20
HETATM   20  N6  UNL     1      26.145   0.168   6.722  1.00  0.00    -0.230 N 
ATOM     21  H62 UNL     1      26.220   0.444   5.743  1.00  0.00     0.174 HD
ATOM     22  H61 UNL     1      27.067  -0.174   6.991  1.00  0.00     0.174 HD
ENDBRANCH  17  20
BRANCH  19  23
HETATM   23  N8  UNL     1      25.928  -0.892   9.415  1.00  0.00    -0.308 N 
ATOM     24  H82 UNL     1      26.869  -0.557   9.619  1.00  0.00     0.179 HD
ATOM     25  H81 UNL     1      25.778  -1.809   9.835  1.00  0.00     0.179 HD
ENDBRANCH  19  23
ENDBRANCH  10  13
BRANCH  11  26
HETATM   26  O3  UNL     1      22.032  -2.379  10.059  1.00  0.00    -0.388 OA
ATOM     27  H3  UNL     1      21.259  -2.512  10.596  1.00  0.00     0.210 HD
ENDBRANCH  11  26
BRANCH  12  28
HETATM   28  O4  UNL     1      21.178  -1.820  12.280  1.00  0.00    -0.388 OA
ATOM     29  H4  UNL     1      20.947  -2.706  12.026  1.00  0.00     0.210 HD
ENDBRANCH  12  28
ENDBRANCH   7   8
ENDBRANCH   5   7
ENDBRANCH   4   5
BRANCH   4  30
HETATM   30  C7  UNL     1      22.063  -1.479  15.644  1.00  0.00     0.181 A 
HETATM   31  N9  UNL     1      23.050  -2.270  16.093  1.00  0.00    -0.268 N 
HETATM   32  N10 UNL     1      22.685  -3.551  15.979  1.00  0.00    -0.130 N 
ATOM     33  H9  UNL     1      23.943  -1.944  16.464  1.00  0.00     0.189 HD
HETATM   34  C8  UNL     1      21.440  -3.601  15.448  1.00  0.00     0.700 A 
ATOM     35  H10 UNL     1      23.251  -4.357  16.246  1.00  0.00     0.205 HD
HETATM   36  N15 UNL     1      21.087  -2.318  15.256  1.00  0.00    -0.170 N 
ATOM     37  H15 UNL     1      20.193  -2.020  14.865  1.00  0.00     0.186 HD
BRANCH  34  38
HETATM   38  N11 UNL     1      20.722  -4.649  15.176  1.00  0.00    -0.178 N 
ATOM     39  H11 UNL     1      20.621  -5.379  15.881  1.00  0.00     0.185 HD
BRANCH  38  40
HETATM   40  C9  UNL     1      20.081  -4.801  13.939  1.00  0.00     0.115 C 
HETATM   41  N12 UNL     1      20.824  -4.729  12.866  1.00  0.00    -0.274 N 
ATOM     42  H12 UNL     1      21.826  -4.569  12.971  1.00  0.00     0.189 HD
BRANCH  40  43
HETATM   43  C10 UNL     1      18.631  -5.033  13.819  1.00  0.00     0.104 C 
BRANCH  43  44
HETATM   44  C11 UNL     1      17.836  -3.744  13.890  1.00  0.00     0.171 C 
BRANCH  44  45
HETATM   45  O5  UNL     1      18.632  -2.697  13.480  1.00  0.00    -0.400 OA
ATOM     46  H5  UNL     1      18.329  -1.895  13.890  1.00  0.00     0.209 HD
ENDBRANCH  44  45
ENDBRANCH  43  44
ENDBRANCH  40  43
BRANCH  41  47
HETATM   47  N13 UNL     1      20.298  -4.864  11.594  1.00  0.00    -0.248 N 
ATOM     48  H13 UNL     1      20.315  -5.791  11.169  1.00  0.00     0.207 HD
BRANCH  47  49
HETATM   49  N14 UNL     1      19.745  -3.816  10.851  1.00  0.00    -0.331 N 
ATOM     50 2H14 UNL     1      20.132  -2.886  11.013  1.00  0.00     0.178 HD
ATOM     51 1H14 UNL     1      18.993  -3.925  10.170  1.00  0.00     0.178 HD
ENDBRANCH  47  49
ENDBRANCH  41  47
ENDBRANCH  38  40
ENDBRANCH  34  38
ENDBRANCH   4  30
TORSDOF 16
ENDMDL
MODEL 2
REMARK VINA RESULT: -4.969712753      1.787      4.371
REMARK  16 active torsions:
REMARK  status: ('A' for Active; 'I' for Inactive)
REMARK    1  A    between atoms: C1_4  and  N2_5 
REMARK    2  A    between atoms: C1_4  and  C7_30 
REMARK    3  A    between atoms: N2_5  and  O1_7 
REMARK    4  A    between atoms: O1_7  and  C2_8 
REMARK    5  A    between atoms: C3_10  and  N3_11 
REMARK    6  A    between atoms: C4_16  and  N6_17 
REMARK    7  A    between atoms: N7_20  and  N8_21 
REMARK    8  A    between atoms: C5_24  and  O3_25 
REMARK    9  A    between atoms: C6_27  and  O4_28 
REMARK   10  A    between atoms: C8_35  and  N11_36 
REMARK   11  A    between atoms: N11_36  and  C9_38 
REMARK   12  A    between atoms: C9_38  and  C10_39 
REMARK   13  A    between atoms: C10_39  and  C11_40 
REMARK   14  A    between atoms: C11_40  and  O5_41 
REMARK   15  A    between atoms: N12_43  and  N13_45 
REMARK   16  A    between atoms: N13_45  and  N14_47 
ROOT
HETATM    1  N1  UNL     1      21.700  -5.950  11.636  1.00  0.00    -0.381 N 
ATOM      2  H11 UNL     1      21.857  -6.564  12.436  1.00  0.00     0.157 HD
ATOM      3  H12 UNL     1      21.705  -6.340  10.693  1.00  0.00     0.157 HD
HETATM    4  C1  UNL     1      21.500  -4.696  11.854  1.00  0.00     0.166 C 
ENDROOT
BRANCH   4   5
HETATM    5  N2  UNL     1      21.283  -3.842  10.741  1.00  0.00    -0.245 N 
ATOM      6  H2  UNL     1      21.037  -4.266   9.847  1.00  0.00     0.196 HD
BRANCH   5   7
HETATM    7  O1  UNL     1      21.384  -2.516  10.804  1.00  0.00    -0.243 OA
BRANCH   7   8
HETATM    8  C2  UNL     1      22.614  -2.016  10.480  1.00  0.00     0.322 C 
HETATM    9  O2  UNL     1      22.576  -1.682   9.106  1.00  0.00    -0.326 OA
HETATM   10  C3  UNL     1      23.743  -0.906   9.019  1.00  0.00     0.301 C 
HETATM   11  C5  UNL     1      23.496   0.125  10.073  1.00  0.00     0.204 C 
HETATM   12  C6  UNL     1      22.999  -0.774  11.220  1.00  0.00     0.208 C 
BRANCH  10  13
HETATM   13  N3  UNL     1      24.012  -0.421   7.724  1.00  0.00    -0.150 N 
HETATM   14  N4  UNL     1      24.380   0.851   7.489  1.00  0.00    -0.207 N 
HETATM   15  N5  UNL     1      24.565   1.032   6.212  1.00  0.00    -0.113 N 
ATOM     16  H4  UNL     1      24.498   1.568   8.204  1.00  0.00     0.211 HD
HETATM   17  C4  UNL     1      24.320  -0.126   5.583  1.00  0.00     0.729 A 
ATOM     18  H5  UNL     1      24.848   1.905   5.766  1.00  0.00     0.207 HD
HETATM   19  N7  UNL     1      23.982  -0.999   6.535  1.00  0.00    -0.005 N 
BRANCH  17  20
HETATM   20  N6  UNL     1      24.387  -0.368   4.337  1.00  0.00    -0.230 N 
ATOM     21  H62 UNL     1      25.214  -0.263   3.750  1.00  0.00     0.174 HD
ATOM     22  H61 UNL     1      23.645  -0.705   3.723  1.00  0.00     0.174 HD
ENDBRANCH  17  20
BRANCH  19  23
HETATM   23  N8  UNL     1      23.645  -2.325   6.348  1.00  0.00    -0.308 N 
ATOM     24  H82 UNL     1      23.767  -3.081   7.021  1.00  0.00     0.179 HD
ATOM     25  H81 UNL     1      23.228  -2.679   5.486  1.00  0.00     0.179 HD
ENDBRANCH  19  23
ENDBRANCH  10  13
BRANCH  11  26
HETATM   26  O3  UNL     1      24.669   0.711  10.523  1.00  0.00    -0.388 OA
ATOM     27  H3  UNL     1      25.357   0.692   9.869  1.00  0.00     0.210 HD
ENDBRANCH  11  26
BRANCH  12  28
HETATM   28  O4  UNL     1      24.031  -1.006  12.141  1.00  0.00    -0.388 OA
ATOM     29  H4  UNL     1      24.122  -0.294  12.763  1.00  0.00     0.210 HD
ENDBRANCH  12  28
ENDBRANCH   7   8
ENDBRANCH   5   7
ENDBRANCH   4   5
BRANCH   4  30
HETATM   30  C7  UNL     1      21.493  -4.138  13.202  1.00  0.00     0.181 A 
HETATM   31  N9  UNL     1      20.737  -4.563  14.226  1.00  0.00    -0.268 N 
HETATM   32  N10 UNL     1      20.991  -3.823  15.309  1.00  0.00    -0.130 N 
ATOM     33  H9  UNL     1      20.070  -5.334  14.184  1.00  0.00     0.189 HD
HETATM   34  C8  UNL     1      21.929  -2.898  14.991  1.00  0.00     0.700 A 
ATOM     35  H10 UNL     1      20.552  -3.935  16.223  1.00  0.00     0.205 HD
HETATM   36  N15 UNL     1      22.215  -3.117  13.696  1.00  0.00    -0.170 N 
ATOM     37  H15 UNL     1      22.893  -2.578  13.157  1.00  0.00     0.186 HD
BRANCH  34  38
HETATM   38  N11 UNL     1      22.453  -1.987  15.754  1.00  0.00    -0.178 N 
ATOM     39  H11 UNL     1      22.957  -2.271  16.594  1.00  0.00     0.185 HD
BRANCH  38  40
HETATM   40  C9  UNL     1      22.343  -0.622  15.453  1.00  0.00     0.115 C 
HETATM   41  N12 UNL     1      23.264  -0.101  14.686  1.00  0.00    -0.274 N 
ATOM     42  H12 UNL     1      24.015  -0.700  14.342  1.00  0.00     0.189 HD
BRANCH  40  43
HETATM   43  C10 UNL     1      21.246   0.217  15.964  1.00  0.00     0.104 C 
BRANCH  43  44
HETATM   44  C11 UNL     1      21.423   0.565  17.429  1.00  0.00     0.171 C 
BRANCH  44  45
HETATM   45  O5  UNL     1      22.472  -0.166  17.944  1.00  0.00    -0.400 OA
ATOM     46  H5  UNL     1      22.344  -0.279  18.878  1.00  0.00     0.209 HD
ENDBRANCH  44  45
ENDBRANCH  43  44
ENDBRANCH  40  43
BRANCH  41  47
HETATM   47  N13 UNL     1      23.255   1.234  14.325  1.00  0.00    -0.248 N 
ATOM     48  H13 UNL     1      22.550   1.837  14.751  1.00  0.00     0.207 HD
BRANCH  47  49
HETATM   49  N14 UNL     1      24.147   1.814  13.417  1.00  0.00    -0.331 N 
ATOM     50 2H14 UNL     1      25.002   1.294  13.220  1.00  0.00     0.178 HD
ATOM     51 1H14 UNL     1      23.995   2.708  12.950  1.00  0.00     0.178 HD
ENDBRANCH  47  49
ENDBRANCH  41  47
ENDBRANCH  38  40
ENDBRANCH  34  38
ENDBRANCH   4  30
TORSDOF 16
ENDMDL
MODEL 3
REMARK VINA RESULT: -4.951793333      2.711      4.718
REMARK  16 active torsions:
REMARK  status: ('A' for Active; 'I' for Inactive)
REMARK    1  A    between atoms: C1_4  and  N2_5 
REMARK    2  A    between atoms: C1_4  and  C7_30 
REMARK    3  A    between atoms: N2_5  and  O1_7 
REMARK    4  A    between atoms: O1_7  and  C2_8 
REMARK    5  A    between atoms: C3_10  and  N3_11 
REMARK    6  A    between atoms: C4_16  and  N6_17 
REMARK    7  A    between atoms: N7_20  and  N8_21 
REMARK    8  A    between atoms: C5_24  and  O3_25 
REMARK    9  A    between atoms: C6_27  and  O4_28 
REMARK   10  A    between atoms: C8_35  and  N11_36 
REMARK   11  A    between atoms: N11_36  and  C9_38 
REMARK   12  A    between atoms: C9_38  and  C10_39 
REMARK   13  A    between atoms: C10_39  and  C11_40 
REMARK   14  A    between atoms: C11_40  and  O5_41 
REMARK   15  A    between atoms: N12_43  and  N13_45 
REMARK   16  A    between atoms: N13_45  and  N14_47 
ROOT
HETATM    1  N1  UNL     1      18.904  -5.059  16.719  1.00  0.00    -0.381 N 
ATOM      2  H11 UNL     1      18.048  -5.612  16.785  1.00  0.00     0.157 HD
ATOM      3  H12 UNL     1      19.229  -4.535  17.531  1.00  0.00     0.157 HD
HETATM    4  C1  UNL     1      19.544  -5.049  15.600  1.00  0.00     0.166 C 
ENDROOT
BRANCH   4   5
HETATM    5  N2  UNL     1      20.733  -4.282  15.507  1.00  0.00    -0.245 N 
ATOM      6  H2  UNL     1      20.792  -3.414  16.041  1.00  0.00     0.196 HD
BRANCH   5   7
HETATM    7  O1  UNL     1      21.777  -4.635  14.760  1.00  0.00    -0.243 OA
BRANCH   7   8
HETATM    8  C2  UNL     1      22.753  -3.684  14.647  1.00  0.00     0.322 C 
HETATM    9  O2  UNL     1      22.485  -2.954  13.465  1.00  0.00    -0.326 OA
HETATM   10  C3  UNL     1      23.337  -1.857  13.667  1.00  0.00     0.301 C 
HETATM   11  C5  UNL     1      22.878  -1.364  15.002  1.00  0.00     0.204 C 
HETATM   12  C6  UNL     1      22.796  -2.696  15.769  1.00  0.00     0.208 C 
BRANCH  10  13
HETATM   13  N3  UNL     1      23.320  -0.918  12.616  1.00  0.00    -0.150 N 
HETATM   14  N4  UNL     1      23.296   0.409  12.831  1.00  0.00    -0.207 N 
HETATM   15  N5  UNL     1      23.284   1.044  11.693  1.00  0.00    -0.113 N 
ATOM     16  H4  UNL     1      23.289   0.853  13.748  1.00  0.00     0.211 HD
HETATM   17  C4  UNL     1      23.300   0.137  10.706  1.00  0.00     0.729 A 
ATOM     18  H5  UNL     1      23.265   2.057  11.573  1.00  0.00     0.207 HD
HETATM   19  N7  UNL     1      23.321  -1.057  11.301  1.00  0.00    -0.005 N 
BRANCH  17  20
HETATM   20  N6  UNL     1      23.294   0.347   9.452  1.00  0.00    -0.230 N 
ATOM     21  H62 UNL     1      22.615   0.912   8.942  1.00  0.00     0.174 HD
ATOM     22  H61 UNL     1      23.952  -0.002   8.755  1.00  0.00     0.174 HD
ENDBRANCH  17  20
BRANCH  19  23
HETATM   23  N8  UNL     1      23.343  -2.286  10.671  1.00  0.00    -0.308 N 
ATOM     24  H82 UNL     1      23.988  -3.053  10.863  1.00  0.00     0.179 HD
ATOM     25  H81 UNL     1      22.691  -2.546   9.931  1.00  0.00     0.179 HD
ENDBRANCH  19  23
ENDBRANCH  10  13
BRANCH  11  26
HETATM   26  O3  UNL     1      23.845  -0.606  15.646  1.00  0.00    -0.388 OA
ATOM     27  H3  UNL     1      24.380  -1.127  16.233  1.00  0.00     0.210 HD
ENDBRANCH  11  26
BRANCH  12  28
HETATM   28  O4  UNL     1      23.930  -2.864  16.578  1.00  0.00    -0.388 OA
ATOM     29  H4  UNL     1      23.773  -2.592  17.474  1.00  0.00     0.210 HD
ENDBRANCH  12  28
ENDBRANCH   7   8
ENDBRANCH   5   7
ENDBRANCH   4   5
BRANCH   4  30
HETATM   30  C7  UNL     1      19.079  -5.800  14.438  1.00  0.00     0.181 A 
HETATM   31  N9  UNL     1      17.806  -6.138  14.177  1.00  0.00    -0.268 N 
HETATM   32  N10 UNL     1      17.750  -6.820  13.029  1.00  0.00    -0.130 N 
ATOM     33  H9  UNL     1      17.004  -5.909  14.765  1.00  0.00     0.189 HD
HETATM   34  C8  UNL     1      19.004  -6.930  12.529  1.00  0.00     0.700 A 
ATOM     35  H10 UNL     1      16.904  -7.195  12.600  1.00  0.00     0.205 HD
HETATM   36  N15 UNL     1      19.794  -6.296  13.413  1.00  0.00    -0.170 N 
ATOM     37  H15 UNL     1      20.805  -6.203  13.319  1.00  0.00     0.186 HD
BRANCH  34  38
HETATM   38  N11 UNL     1      19.386  -7.516  11.434  1.00  0.00    -0.178 N 
ATOM     39  H11 UNL     1      18.865  -8.324  11.095  1.00  0.00     0.185 HD
BRANCH  38  40
HETATM   40  C9  UNL     1      20.498  -7.066  10.708  1.00  0.00     0.115 C 
HETATM   41  N12 UNL     1      21.639  -7.663  10.928  1.00  0.00    -0.274 N 
ATOM     42  H12 UNL     1      21.676  -8.422  11.608  1.00  0.00     0.189 HD
BRANCH  40  43
HETATM   43  C10 UNL     1      20.414  -5.969   9.729  1.00  0.00     0.104 C 
BRANCH  43  44
HETATM   44  C11 UNL     1      20.629  -4.612  10.369  1.00  0.00     0.171 C 
BRANCH  44  45
HETATM   45  O5  UNL     1      21.427  -4.757  11.483  1.00  0.00    -0.400 OA
ATOM     46  H5  UNL     1      22.262  -4.331  11.327  1.00  0.00     0.209 HD
ENDBRANCH  44  45
ENDBRANCH  43  44
ENDBRANCH  40  43
BRANCH  41  47
HETATM   47  N13 UNL     1      22.800  -7.301  10.268  1.00  0.00    -0.248 N 
ATOM     48  H13 UNL     1      22.937  -7.651   9.320  1.00  0.00     0.207 HD
BRANCH  47  49
HETATM   49  N14 UNL     1      23.799  -6.488  10.814  1.00  0.00    -0.331 N 
ATOM     50 2H14 UNL     1      23.576  -6.013  11.688  1.00  0.00     0.178 HD
ATOM     51 1H14 UNL     1      24.719  -6.346  10.397  1.00  0.00     0.178 HD
ENDBRANCH  47  49
ENDBRANCH  41  47
ENDBRANCH  38  40
ENDBRANCH  34  38
ENDBRANCH   4  30
TORSDOF 16
ENDMDL
MODEL 4
REMARK VINA RESULT: -4.926857973      2.479      7.186
REMARK  16 active torsions:
REMARK  status: ('A' for Active; 'I' for Inactive)
REMARK    1  A    between atoms: C1_4  and  N2_5 
REMARK    2  A    between atoms: C1_4  and  C7_30 
REMARK    3  A    between atoms: N2_5  and  O1_7 
REMARK    4  A    between atoms: O1_7  and  C2_8 
REMARK    5  A    between atoms: C3_10  and  N3_11 
REMARK    6  A    between atoms: C4_16  and  N6_17 
REMARK    7  A    between atoms: N7_20  and  N8_21 
REMARK    8  A    between atoms: C5_24  and  O3_25 
REMARK    9  A    between atoms: C6_27  and  O4_28 
REMARK   10  A    between atoms: C8_35  and  N11_36 
REMARK   11  A    between atoms: N11_36  and  C9_38 
REMARK   12  A    between atoms: C9_38  and  C10_39 
REMARK   13  A    between atoms: C10_39  and  C11_40 
REMARK   14  A    between atoms: C11_40  and  O5_41 
REMARK   15  A    between atoms: N12_43  and  N13_45 
REMARK   16  A    between atoms: N13_45  and  N14_47 
ROOT
HETATM    1  N1  UNL     1      21.673   0.194  16.253  1.00  0.00    -0.381 N 
ATOM      2  H11 UNL     1      21.499   1.175  16.035  1.00  0.00     0.157 HD
ATOM      3  H12 UNL     1      21.324  -0.198  17.128  1.00  0.00     0.157 HD
HETATM    4  C1  UNL     1      22.334  -0.516  15.403  1.00  0.00     0.166 C 
ENDROOT
BRANCH   4   5
HETATM    5  N2  UNL     1      22.576  -1.881  15.706  1.00  0.00    -0.245 N 
ATOM      6  H2  UNL     1      23.489  -2.273  15.475  1.00  0.00     0.196 HD
BRANCH   5   7
HETATM    7  O1  UNL     1      21.673  -2.676  16.276  1.00  0.00    -0.243 OA
BRANCH   7   8
HETATM    8  C2  UNL     1      21.423  -3.839  15.602  1.00  0.00     0.322 C 
HETATM    9  O2  UNL     1      20.022  -4.028  15.609  1.00  0.00    -0.326 OA
HETATM   10  C3  UNL     1      19.914  -5.034  14.635  1.00  0.00     0.301 C 
HETATM   11  C5  UNL     1      20.602  -4.396  13.471  1.00  0.00     0.204 C 
HETATM   12  C6  UNL     1      21.855  -3.838  14.171  1.00  0.00     0.208 C 
BRANCH  10  13
HETATM   13  N3  UNL     1      18.594  -5.475  14.412  1.00  0.00    -0.150 N 
HETATM   14  N4  UNL     1      18.283  -6.385  13.472  1.00  0.00    -0.207 N 
HETATM   15  N5  UNL     1      17.000  -6.612  13.479  1.00  0.00    -0.113 N 
ATOM     16  H4  UNL     1      18.953  -6.831  12.846  1.00  0.00     0.211 HD
HETATM   17  C4  UNL     1      16.444  -5.850  14.431  1.00  0.00     0.729 A 
ATOM     18  H5  UNL     1      16.504  -7.259  12.865  1.00  0.00     0.207 HD
HETATM   19  N7  UNL     1      17.444  -5.163  14.987  1.00  0.00    -0.005 N 
BRANCH  17  20
HETATM   20  N6  UNL     1      15.217  -5.777  14.756  1.00  0.00    -0.230 N 
ATOM     21  H62 UNL     1      14.435  -6.171  14.234  1.00  0.00     0.174 HD
ATOM     22  H61 UNL     1      14.811  -5.327  15.576  1.00  0.00     0.174 HD
ENDBRANCH  17  20
BRANCH  19  23
HETATM   23  N8  UNL     1      17.338  -4.249  16.017  1.00  0.00    -0.308 N 
ATOM     24  H82 UNL     1      17.960  -4.168  16.820  1.00  0.00     0.179 HD
ATOM     25  H81 UNL     1      16.599  -3.547  16.066  1.00  0.00     0.179 HD
ENDBRANCH  19  23
ENDBRANCH  10  13
BRANCH  11  26
HETATM   26  O3  UNL     1      21.057  -5.329  12.551  1.00  0.00    -0.388 OA
ATOM     27  H3  UNL     1      21.516  -4.925  11.823  1.00  0.00     0.210 HD
ENDBRANCH  11  26
BRANCH  12  28
HETATM   28  O4  UNL     1      22.954  -4.682  13.949  1.00  0.00    -0.388 OA
ATOM     29  H4  UNL     1      22.702  -5.492  13.522  1.00  0.00     0.210 HD
ENDBRANCH  12  28
ENDBRANCH   7   8
ENDBRANCH   5   7
ENDBRANCH   4   5
BRANCH   4  30
HETATM   30  C7  UNL     1      22.834   0.045  14.152  1.00  0.00     0.181 A 
HETATM   31  N9  UNL     1      23.447   1.230  14.010  1.00  0.00    -0.268 N 
HETATM   32  N10 UNL     1      23.768   1.417  12.727  1.00  0.00    -0.130 N 
ATOM     33  H9  UNL     1      23.639   1.887  14.767  1.00  0.00     0.189 HD
HETATM   34  C8  UNL     1      23.360   0.339  12.016  1.00  0.00     0.700 A 
ATOM     35  H10 UNL     1      24.242   2.237  12.345  1.00  0.00     0.205 HD
HETATM   36  N15 UNL     1      22.793  -0.483  12.917  1.00  0.00    -0.170 N 
ATOM     37  H15 UNL     1      22.385  -1.390  12.691  1.00  0.00     0.186 HD
BRANCH  34  38
HETATM   38  N11 UNL     1      23.480   0.122  10.741  1.00  0.00    -0.178 N 
ATOM     39  H11 UNL     1      23.110   0.807  10.083  1.00  0.00     0.185 HD
BRANCH  38  40
HETATM   40  C9  UNL     1      24.107  -1.031  10.246  1.00  0.00     0.115 C 
HETATM   41  N12 UNL     1      25.317  -1.284  10.669  1.00  0.00    -0.274 N 
ATOM     42  H12 UNL     1      25.751  -0.643  11.333  1.00  0.00     0.189 HD
BRANCH  40  43
HETATM   43  C10 UNL     1      23.453  -1.940   9.289  1.00  0.00     0.104 C 
BRANCH  43  44
HETATM   44  C11 UNL     1      22.607  -2.990   9.981  1.00  0.00     0.171 C 
BRANCH  44  45
HETATM   45  O5  UNL     1      23.064  -3.164  11.269  1.00  0.00    -0.400 OA
ATOM     46  H5  UNL     1      22.370  -2.944  11.879  1.00  0.00     0.209 HD
ENDBRANCH  44  45
ENDBRANCH  43  44
ENDBRANCH  40  43
BRANCH  41  47
HETATM   47  N13 UNL     1      26.029  -2.392  10.247  1.00  0.00    -0.248 N 
ATOM     48  H13 UNL     1      26.526  -2.328   9.359  1.00  0.00     0.207 HD
BRANCH  47  49
HETATM   49  N14 UNL     1      26.114  -3.595  10.956  1.00  0.00    -0.331 N 
ATOM     50 2H14 UNL     1      25.377  -3.778  11.637  1.00  0.00     0.178 HD
ATOM     51 1H14 UNL     1      26.855  -4.286  10.834  1.00  0.00     0.178 HD
ENDBRANCH  47  49
ENDBRANCH  41  47
ENDBRANCH  38  40
ENDBRANCH  34  38
ENDBRANCH   4  30
TORSDOF 16
ENDMDL
MODEL 5
REMARK VINA RESULT: -4.916878262      2.677      4.720
REMARK  16 active torsions:
REMARK  status: ('A' for Active; 'I' for Inactive)
REMARK    1  A    between atoms: C1_4  and  N2_5 
REMARK    2  A    between atoms: C1_4  and  C7_30 
REMARK    3  A    between atoms: N2_5  and  O1_7 
REMARK    4  A    between atoms: O1_7  and  C2_8 
REMARK    5  A    between atoms: C3_10  and  N3_11 
REMARK    6  A    between atoms: C4_16  and  N6_17 
REMARK    7  A    between atoms: N7_20  and  N8_21 
REMARK    8  A    between atoms: C5_24  and  O3_25 
REMARK    9  A    between atoms: C6_27  and  O4_28 
REMARK   10  A    between atoms: C8_35  and  N11_36 
REMARK   11  A    between atoms: N11_36  and  C9_38 
REMARK   12  A    between atoms: C9_38  and  C10_39 
REMARK   13  A    between atoms: C10_39  and  C11_40 
REMARK   14  A    between atoms: C11_40  and  O5_41 
REMARK   15  A    between atoms: N12_43  and  N13_45 
REMARK   16  A    between atoms: N13_45  and  N14_47 
ROOT
HETATM    1  N1  UNL     1      19.285  -5.610  16.415  1.00  0.00    -0.381 N 
ATOM      2  H11 UNL     1      18.525  -6.159  16.013  1.00  0.00     0.157 HD
ATOM      3  H12 UNL     1      19.398  -5.571  17.428  1.00  0.00     0.157 HD
HETATM    4  C1  UNL     1      20.078  -4.982  15.615  1.00  0.00     0.166 C 
ENDROOT
BRANCH   4   5
HETATM    5  N2  UNL     1      21.135  -4.217  16.174  1.00  0.00    -0.245 N 
ATOM      6  H2  UNL     1      20.929  -3.618  16.973  1.00  0.00     0.196 HD
BRANCH   5   7
HETATM    7  O1  UNL     1      22.381  -4.242  15.708  1.00  0.00    -0.243 OA
BRANCH   7   8
HETATM    8  C2  UNL     1      22.874  -3.028  15.316  1.00  0.00     0.322 C 
HETATM    9  O2  UNL     1      22.876  -3.020  13.902  1.00  0.00    -0.326 OA
HETATM   10  C3  UNL     1      23.079  -1.649  13.674  1.00  0.00     0.301 C 
HETATM   11  C5  UNL     1      21.951  -1.048  14.450  1.00  0.00     0.204 C 
HETATM   12  C6  UNL     1      22.063  -1.852  15.757  1.00  0.00     0.208 C 
BRANCH  10  13
HETATM   13  N3  UNL     1      23.153  -1.300  12.310  1.00  0.00    -0.150 N 
HETATM   14  N4  UNL     1      22.923  -2.184  11.323  1.00  0.00    -0.207 N 
HETATM   15  N5  UNL     1      23.057  -1.602  10.165  1.00  0.00    -0.113 N 
ATOM     16  H4  UNL     1      22.680  -3.164  11.461  1.00  0.00     0.211 HD
HETATM   17  C4  UNL     1      23.378  -0.318  10.374  1.00  0.00     0.729 A 
ATOM     18  H5  UNL     1      22.938  -2.048   9.255  1.00  0.00     0.207 HD
HETATM   19  N7  UNL     1      23.430  -0.161  11.699  1.00  0.00    -0.005 N 
BRANCH  17  20
HETATM   20  N6  UNL     1      23.595   0.585   9.506  1.00  0.00    -0.230 N 
ATOM     21  H62 UNL     1      23.924   0.433   8.553  1.00  0.00     0.174 HD
ATOM     22  H61 UNL     1      23.479   1.594   9.608  1.00  0.00     0.174 HD
ENDBRANCH  17  20
BRANCH  19  23
HETATM   23  N8  UNL     1      23.726   1.007  12.374  1.00  0.00    -0.308 N 
ATOM     24  H82 UNL     1      23.778   1.124  13.386  1.00  0.00     0.179 HD
ATOM     25  H81 UNL     1      23.929   1.889  11.903  1.00  0.00     0.179 HD
ENDBRANCH  19  23
ENDBRANCH  10  13
BRANCH  11  26
HETATM   26  O3  UNL     1      22.190   0.276  14.789  1.00  0.00    -0.388 OA
ATOM     27  H3  UNL     1      22.594   0.362  15.645  1.00  0.00     0.210 HD
ENDBRANCH  11  26
BRANCH  12  28
HETATM   28  O4  UNL     1      22.720  -1.096  16.740  1.00  0.00    -0.388 OA
ATOM     29  H4  UNL     1      23.476  -0.637  16.393  1.00  0.00     0.210 HD
ENDBRANCH  12  28
ENDBRANCH   7   8
ENDBRANCH   5   7
ENDBRANCH   4   5
BRANCH   4  30
HETATM   30  C7  UNL     1      19.916  -5.037  14.166  1.00  0.00     0.181 A 
HETATM   31  N9  UNL     1      18.750  -5.137  13.508  1.00  0.00    -0.268 N 
HETATM   32  N10 UNL     1      18.980  -5.160  12.192  1.00  0.00    -0.130 N 
ATOM     33  H9  UNL     1      17.830  -5.187  13.945  1.00  0.00     0.189 HD
HETATM   34  C8  UNL     1      20.316  -5.074  11.983  1.00  0.00     0.700 A 
ATOM     35  H10 UNL     1      18.268  -5.232  11.464  1.00  0.00     0.205 HD
HETATM   36  N15 UNL     1      20.860  -4.999  13.211  1.00  0.00    -0.170 N 
ATOM     37  H15 UNL     1      21.860  -4.923  13.392  1.00  0.00     0.186 HD
BRANCH  34  38
HETATM   38  N11 UNL     1      20.956  -5.063  10.853  1.00  0.00    -0.178 N 
ATOM     39  H11 UNL     1      20.778  -4.310  10.189  1.00  0.00     0.185 HD
BRANCH  38  40
HETATM   40  C9  UNL     1      21.884  -6.060  10.523  1.00  0.00     0.115 C 
HETATM   41  N12 UNL     1      21.544  -7.298  10.764  1.00  0.00    -0.274 N 
ATOM     42  H12 UNL     1      20.630  -7.488  11.176  1.00  0.00     0.189 HD
BRANCH  40  43
HETATM   43  C10 UNL     1      23.196  -5.756   9.928  1.00  0.00     0.104 C 
BRANCH  43  44
HETATM   44  C11 UNL     1      24.253  -5.480  10.978  1.00  0.00     0.171 C 
BRANCH  44  45
HETATM   45  O5  UNL     1      23.637  -5.158  12.168  1.00  0.00    -0.400 OA
ATOM     46  H5  UNL     1      24.299  -4.989  12.827  1.00  0.00     0.209 HD
ENDBRANCH  44  45
ENDBRANCH  43  44
ENDBRANCH  40  43
BRANCH  41  47
HETATM   47  N13 UNL     1      22.382  -8.362  10.480  1.00  0.00    -0.248 N 
ATOM     48  H13 UNL     1      23.255  -8.162   9.991  1.00  0.00     0.207 HD
BRANCH  47  49
HETATM   49  N14 UNL     1      22.113  -9.693  10.816  1.00  0.00    -0.331 N 
ATOM     50 2H14 UNL     1      21.705  -9.859  11.735  1.00  0.00     0.178 HD
ATOM     51 1H14 UNL     1      22.297 -10.490  10.206  1.00  0.00     0.178 HD
ENDBRANCH  47  49
ENDBRANCH  41  47
ENDBRANCH  38  40
ENDBRANCH  34  38
ENDBRANCH   4  30
TORSDOF 16
ENDMDL
