MODEL 1
REMARK VINA RESULT: -8.647748172      0.000      0.000
REMARK  8 active torsions:
REMARK  status: ('A' for Active; 'I' for Inactive)
REMARK    1  A    between atoms: C2_2  and  C3_3 
REMARK    2  A    between atoms: C3_3  and  C11_14 
REMARK    3  A    between atoms: C4_4  and  C5_5 
REMARK       I    between atoms: C5_5  and  N1_7 
REMARK    4  A    between atoms: N1_7  and  C6_9 
REMARK    5  A    between atoms: C6_9  and  C7_10 
REMARK    6  A    between atoms: C7_10  and  C9_12 
REMARK    7  A    between atoms: C15_18  and  C16_19 
REMARK    8  A    between atoms: N2_23  and  C20_25 
ROOT
HETATM    1  C11 UNL     1      35.796  24.147   8.636  1.00  0.00     0.023 C 
HETATM    2  C12 UNL     1      36.909  25.000   9.197  1.00  0.00     0.010 C 
HETATM    3  C13 UNL     1      37.930  24.743   8.053  1.00  0.00     0.007 C 
HETATM    4  C14 UNL     1      37.058  24.901   6.839  1.00  0.00     0.004 C 
HETATM    5  C15 UNL     1      37.521  24.362   5.566  1.00  0.00     0.039 C 
HETATM    6  C19 UNL     1      36.406  23.972   4.657  1.00  0.00    -0.006 C 
HETATM    7  N2  UNL     1      36.205  24.357   3.476  1.00  0.00    -0.342 N 
ATOM      8  H2  UNL     1      35.371  23.947   3.057  1.00  0.00     0.167 HD
HETATM    9  C21 UNL     1      35.399  23.058   5.258  1.00  0.00     0.054 C 
HETATM   10  C22 UNL     1      34.830  23.718   6.442  1.00  0.00     0.016 C 
HETATM   11  C23 UNL     1      35.619  24.635   7.267  1.00  0.00    -0.032 C 
HETATM   12  C24 UNL     1      34.843  25.979   7.246  1.00  0.00     0.016 C 
ENDROOT
BRANCH   1  13
HETATM   13  C3  UNL     1      34.665  23.927   9.550  1.00  0.00    -0.070 C 
HETATM   14  C4  UNL     1      34.439  24.459  10.685  1.00  0.00     0.077 C 
BRANCH  13  15
HETATM   15  C2  UNL     1      33.690  22.930   8.969  1.00  0.00     0.030 C 
HETATM   16  C1  UNL     1      34.217  21.515   9.185  1.00  0.00     0.010 C 
ENDBRANCH  13  15
BRANCH  14  17
HETATM   17  C5  UNL     1      33.354  24.307  11.627  1.00  0.00     0.241 C 
HETATM   18  O1  UNL     1      32.184  23.927  11.376  1.00  0.00    -0.269 OA
HETATM   19  N1  UNL     1      33.564  24.605  13.027  1.00  0.00    -0.357 N 
ATOM     20  H1  UNL     1      34.477  24.923  13.352  1.00  0.00     0.162 HD
BRANCH  19  21
HETATM   21  C6  UNL     1      32.494  24.453  13.948  1.00  0.00     0.127 C 
BRANCH  21  22
HETATM   22  C7  UNL     1      32.782  23.461  15.044  1.00  0.00    -0.001 C 
HETATM   23  C8  UNL     1      33.852  24.087  15.933  1.00  0.00     0.011 C 
BRANCH  22  24
HETATM   24  C9  UNL     1      31.551  23.295  15.933  1.00  0.00     0.001 C 
HETATM   25  C10 UNL     1      30.530  22.468  15.180  1.00  0.00     0.005 C 
ENDBRANCH  22  24
ENDBRANCH  21  22
ENDBRANCH  19  21
ENDBRANCH  14  17
ENDBRANCH   1  13
BRANCH   5  26
HETATM   26  C16 UNL     1      38.571  23.291   5.556  1.00  0.00    -0.013 C 
HETATM   27  C17 UNL     1      39.926  23.902   5.113  1.00  0.00     0.010 C 
HETATM   28  C18 UNL     1      38.385  22.142   4.645  1.00  0.00     0.010 C 
ENDBRANCH   5  26
BRANCH   7  29
HETATM   29  C20 UNL     1      36.874  25.219   2.626  1.00  0.00     0.185 C 
HETATM   30  N3  UNL     1      36.628  26.587   2.409  1.00  0.00    -0.070 NA
HETATM   31  S1  UNL     1      38.118  24.573   1.734  1.00  0.00    -0.044 SA
ENDBRANCH   7  29
TORSDOF 8
ENDMDL
MODEL 2
REMARK VINA RESULT: -8.640573805      2.134      2.829
REMARK  8 active torsions:
REMARK  status: ('A' for Active; 'I' for Inactive)
REMARK    1  A    between atoms: C2_2  and  C3_3 
REMARK    2  A    between atoms: C3_3  and  C11_14 
REMARK    3  A    between atoms: C4_4  and  C5_5 
REMARK       I    between atoms: C5_5  and  N1_7 
REMARK    4  A    between atoms: N1_7  and  C6_9 
REMARK    5  A    between atoms: C6_9  and  C7_10 
REMARK    6  A    between atoms: C7_10  and  C9_12 
REMARK    7  A    between atoms: C15_18  and  C16_19 
REMARK    8  A    between atoms: N2_23  and  C20_25 
ROOT
HETATM    1  C11 UNL     1      35.778  23.830   8.481  1.00  0.00     0.023 C 
HETATM    2  C12 UNL     1      36.794  24.729   9.147  1.00  0.00     0.010 C 
HETATM    3  C13 UNL     1      37.873  24.644   8.030  1.00  0.00     0.007 C 
HETATM    4  C14 UNL     1      37.032  24.820   6.796  1.00  0.00     0.004 C 
HETATM    5  C15 UNL     1      37.584  24.418   5.507  1.00  0.00     0.039 C 
HETATM    6  C19 UNL     1      36.540  24.005   4.528  1.00  0.00    -0.006 C 
HETATM    7  N2  UNL     1      36.347  24.460   3.371  1.00  0.00    -0.342 N 
ATOM      8  H2  UNL     1      35.567  24.014   2.889  1.00  0.00     0.167 HD
HETATM    9  C21 UNL     1      35.596  22.967   5.020  1.00  0.00     0.054 C 
HETATM   10  C22 UNL     1      34.931  23.487   6.224  1.00  0.00     0.016 C 
HETATM   11  C23 UNL     1      35.608  24.403   7.145  1.00  0.00    -0.032 C 
HETATM   12  C24 UNL     1      34.720  25.674   7.189  1.00  0.00     0.016 C 
ENDROOT
BRANCH   1  13
HETATM   13  C3  UNL     1      34.640  23.448   9.330  1.00  0.00    -0.070 C 
HETATM   14  C4  UNL     1      33.525  22.934   8.989  1.00  0.00     0.077 C 
BRANCH  13  15
HETATM   15  C2  UNL     1      34.937  23.726  10.785  1.00  0.00     0.030 C 
HETATM   16  C1  UNL     1      34.295  25.047  11.194  1.00  0.00     0.010 C 
ENDBRANCH  13  15
BRANCH  14  17
HETATM   17  C5  UNL     1      32.375  22.520   9.758  1.00  0.00     0.241 C 
HETATM   18  O1  UNL     1      31.535  23.265  10.320  1.00  0.00    -0.269 OA
HETATM   19  N1  UNL     1      32.095  21.112   9.941  1.00  0.00    -0.357 N 
ATOM     20  H1  UNL     1      32.710  20.410   9.529  1.00  0.00     0.162 HD
BRANCH  19  21
HETATM   21  C6  UNL     1      30.962  20.712  10.698  1.00  0.00     0.127 C 
BRANCH  21  22
HETATM   22  C7  UNL     1      31.250  19.588  11.658  1.00  0.00    -0.001 C 
HETATM   23  C8  UNL     1      30.639  19.986  12.997  1.00  0.00     0.011 C 
BRANCH  22  24
HETATM   24  C9  UNL     1      30.505  18.328  11.222  1.00  0.00     0.001 C 
HETATM   25  C10 UNL     1      29.402  18.056  12.224  1.00  0.00     0.005 C 
ENDBRANCH  22  24
ENDBRANCH  21  22
ENDBRANCH  19  21
ENDBRANCH  14  17
ENDBRANCH   1  13
BRANCH   5  26
HETATM   26  C16 UNL     1      38.723  23.443   5.464  1.00  0.00    -0.013 C 
HETATM   27  C17 UNL     1      40.041  24.203   5.167  1.00  0.00     0.010 C 
HETATM   28  C18 UNL     1      38.688  22.377   4.439  1.00  0.00     0.010 C 
ENDBRANCH   5  26
BRANCH   7  29
HETATM   29  C20 UNL     1      36.968  25.435   2.613  1.00  0.00     0.185 C 
HETATM   30  N3  UNL     1      36.644  26.802   2.525  1.00  0.00    -0.070 NA
HETATM   31  S1  UNL     1      38.251  24.951   1.675  1.00  0.00    -0.044 SA
ENDBRANCH   7  29
TORSDOF 8
ENDMDL
MODEL 3
REMARK VINA RESULT: -8.261342380      2.652      3.284
REMARK  8 active torsions:
REMARK  status: ('A' for Active; 'I' for Inactive)
REMARK    1  A    between atoms: C2_2  and  C3_3 
REMARK    2  A    between atoms: C3_3  and  C11_14 
REMARK    3  A    between atoms: C4_4  and  C5_5 
REMARK       I    between atoms: C5_5  and  N1_7 
REMARK    4  A    between atoms: N1_7  and  C6_9 
REMARK    5  A    between atoms: C6_9  and  C7_10 
REMARK    6  A    between atoms: C7_10  and  C9_12 
REMARK    7  A    between atoms: C15_18  and  C16_19 
REMARK    8  A    between atoms: N2_23  and  C20_25 
ROOT
HETATM    1  C11 UNL     1      37.332  24.740   7.794  1.00  0.00     0.023 C 
HETATM    2  C12 UNL     1      38.329  25.821   8.139  1.00  0.00     0.010 C 
HETATM    3  C13 UNL     1      39.379  25.456   7.051  1.00  0.00     0.007 C 
HETATM    4  C14 UNL     1      38.499  25.247   5.851  1.00  0.00     0.004 C 
HETATM    5  C15 UNL     1      39.031  24.512   4.709  1.00  0.00     0.039 C 
HETATM    6  C19 UNL     1      37.977  23.807   3.927  1.00  0.00    -0.006 C 
HETATM    7  N2  UNL     1      37.734  23.907   2.696  1.00  0.00    -0.342 N 
ATOM      8  H2  UNL     1      36.959  23.319   2.391  1.00  0.00     0.167 HD
HETATM    9  C21 UNL     1      37.089  22.923   4.728  1.00  0.00     0.054 C 
HETATM   10  C22 UNL     1      36.437  23.744   5.760  1.00  0.00     0.016 C 
HETATM   11  C23 UNL     1      37.102  24.903   6.357  1.00  0.00    -0.032 C 
HETATM   12  C24 UNL     1      36.166  26.107   6.073  1.00  0.00     0.016 C 
ENDROOT
BRANCH   1  13
HETATM   13  C3  UNL     1      36.234  24.580   8.759  1.00  0.00    -0.070 C 
HETATM   14  C4  UNL     1      35.291  23.724   8.762  1.00  0.00     0.077 C 
BRANCH  13  15
HETATM   15  C2  UNL     1      36.336  25.606   9.863  1.00  0.00     0.030 C 
HETATM   16  C1  UNL     1      35.359  26.746   9.593  1.00  0.00     0.010 C 
ENDBRANCH  13  15
BRANCH  14  17
HETATM   17  C5  UNL     1      34.195  23.495   9.674  1.00  0.00     0.241 C 
HETATM   18  O1  UNL     1      34.224  23.582  10.926  1.00  0.00    -0.269 OA
HETATM   19  N1  UNL     1      32.893  23.123   9.163  1.00  0.00    -0.357 N 
ATOM     20  H1  UNL     1      32.747  23.021   8.158  1.00  0.00     0.162 HD
BRANCH  19  21
HETATM   21  C6  UNL     1      31.819  22.900  10.065  1.00  0.00     0.127 C 
BRANCH  21  22
HETATM   22  C7  UNL     1      31.068  21.622   9.798  1.00  0.00    -0.001 C 
HETATM   23  C8  UNL     1      32.070  20.639   9.203  1.00  0.00     0.011 C 
BRANCH  22  24
HETATM   24  C9  UNL     1      30.612  21.001  11.117  1.00  0.00     0.001 C 
HETATM   25  C10 UNL     1      31.113  19.573  11.168  1.00  0.00     0.005 C 
ENDBRANCH  22  24
ENDBRANCH  21  22
ENDBRANCH  19  21
ENDBRANCH  14  17
ENDBRANCH   1  13
BRANCH   5  26
HETATM   26  C16 UNL     1      40.206  23.600   4.900  1.00  0.00    -0.013 C 
HETATM   27  C17 UNL     1      41.516  24.384   4.631  1.00  0.00     0.010 C 
HETATM   28  C18 UNL     1      40.315  22.413   4.026  1.00  0.00     0.010 C 
ENDBRANCH   5  26
BRANCH   7  29
HETATM   29  C20 UNL     1      38.295  24.645   1.670  1.00  0.00     0.185 C 
HETATM   30  N3  UNL     1      39.557  24.478   1.072  1.00  0.00    -0.070 NA
HETATM   31  S1  UNL     1      37.384  25.895   1.064  1.00  0.00    -0.044 SA
ENDBRANCH   7  29
TORSDOF 8
ENDMDL
MODEL 4
REMARK VINA RESULT: -8.165847521      2.690      3.173
REMARK  8 active torsions:
REMARK  status: ('A' for Active; 'I' for Inactive)
REMARK    1  A    between atoms: C2_2  and  C3_3 
REMARK    2  A    between atoms: C3_3  and  C11_14 
REMARK    3  A    between atoms: C4_4  and  C5_5 
REMARK       I    between atoms: C5_5  and  N1_7 
REMARK    4  A    between atoms: N1_7  and  C6_9 
REMARK    5  A    between atoms: C6_9  and  C7_10 
REMARK    6  A    between atoms: C7_10  and  C9_12 
REMARK    7  A    between atoms: C15_18  and  C16_19 
REMARK    8  A    between atoms: N2_23  and  C20_25 
ROOT
HETATM    1  C11 UNL     1      35.720  23.739   7.949  1.00  0.00     0.023 C 
HETATM    2  C12 UNL     1      36.325  24.420   9.153  1.00  0.00     0.010 C 
HETATM    3  C13 UNL     1      37.700  24.749   8.505  1.00  0.00     0.007 C 
HETATM    4  C14 UNL     1      37.275  25.273   7.163  1.00  0.00     0.004 C 
HETATM    5  C15 UNL     1      38.259  25.332   6.087  1.00  0.00     0.039 C 
HETATM    6  C19 UNL     1      37.651  25.209   4.732  1.00  0.00    -0.006 C 
HETATM    7  N2  UNL     1      37.766  26.002   3.762  1.00  0.00    -0.342 N 
ATOM      8  H2  UNL     1      37.253  25.700   2.934  1.00  0.00     0.167 HD
HETATM    9  C21 UNL     1      36.769  24.026   4.547  1.00  0.00     0.054 C 
HETATM   10  C22 UNL     1      35.688  24.101   5.541  1.00  0.00     0.016 C 
HETATM   11  C23 UNL     1      35.894  24.702   6.860  1.00  0.00    -0.032 C 
HETATM   12  C24 UNL     1      34.855  25.850   6.957  1.00  0.00     0.016 C 
ENDROOT
BRANCH   1  13
HETATM   13  C3  UNL     1      34.444  23.052   8.203  1.00  0.00    -0.070 C 
HETATM   14  C4  UNL     1      33.714  23.083   9.246  1.00  0.00     0.077 C 
BRANCH  13  15
HETATM   15  C2  UNL     1      34.022  22.241   7.001  1.00  0.00     0.030 C 
HETATM   16  C1  UNL     1      34.654  20.855   7.072  1.00  0.00     0.010 C 
ENDBRANCH  13  15
BRANCH  14  17
HETATM   17  C5  UNL     1      32.453  22.455   9.563  1.00  0.00     0.241 C 
HETATM   18  O1  UNL     1      31.318  22.994   9.557  1.00  0.00    -0.269 OA
HETATM   19  N1  UNL     1      32.413  21.058   9.937  1.00  0.00    -0.357 N 
ATOM     20  H1  UNL     1      33.275  20.513   9.977  1.00  0.00     0.162 HD
BRANCH  19  21
HETATM   21  C6  UNL     1      31.169  20.446  10.247  1.00  0.00     0.127 C 
BRANCH  21  22
HETATM   22  C7  UNL     1      31.164  19.740  11.577  1.00  0.00    -0.001 C 
HETATM   23  C8  UNL     1      30.159  20.471  12.459  1.00  0.00     0.011 C 
BRANCH  22  24
HETATM   24  C9  UNL     1      30.616  18.323  11.412  1.00  0.00     0.001 C 
HETATM   25  C10 UNL     1      29.460  18.146  12.373  1.00  0.00     0.005 C 
ENDBRANCH  22  24
ENDBRANCH  21  22
ENDBRANCH  19  21
ENDBRANCH  14  17
ENDBRANCH   1  13
BRANCH   5  26
HETATM   26  C16 UNL     1      39.487  24.475   6.163  1.00  0.00    -0.013 C 
HETATM   27  C17 UNL     1      40.733  25.328   5.811  1.00  0.00     0.010 C 
HETATM   28  C18 UNL     1      39.583  23.313   5.254  1.00  0.00     0.010 C 
ENDBRANCH   5  26
BRANCH   7  29
HETATM   29  C20 UNL     1      38.438  27.197   3.581  1.00  0.00     0.185 C 
HETATM   30  N3  UNL     1      39.705  27.399   3.002  1.00  0.00    -0.070 NA
HETATM   31  S1  UNL     1      37.677  28.573   4.115  1.00  0.00    -0.044 SA
ENDBRANCH   7  29
TORSDOF 8
ENDMDL
MODEL 5
REMARK VINA RESULT: -8.119681529      2.755      3.382
REMARK  8 active torsions:
REMARK  status: ('A' for Active; 'I' for Inactive)
REMARK    1  A    between atoms: C2_2  and  C3_3 
REMARK    2  A    between atoms: C3_3  and  C11_14 
REMARK    3  A    between atoms: C4_4  and  C5_5 
REMARK       I    between atoms: C5_5  and  N1_7 
REMARK    4  A    between atoms: N1_7  and  C6_9 
REMARK    5  A    between atoms: C6_9  and  C7_10 
REMARK    6  A    between atoms: C7_10  and  C9_12 
REMARK    7  A    between atoms: C15_18  and  C16_19 
REMARK    8  A    between atoms: N2_23  and  C20_25 
ROOT
HETATM    1  C11 UNL     1      35.128  23.051   7.468  1.00  0.00     0.023 C 
HETATM    2  C12 UNL     1      35.129  24.527   7.791  1.00  0.00     0.010 C 
HETATM    3  C13 UNL     1      36.547  24.835   7.233  1.00  0.00     0.007 C 
HETATM    4  C14 UNL     1      36.517  24.093   5.927  1.00  0.00     0.004 C 
HETATM    5  C15 UNL     1      37.779  23.791   5.260  1.00  0.00     0.039 C 
HETATM    6  C19 UNL     1      37.717  22.564   4.418  1.00  0.00    -0.006 C 
HETATM    7  N2  UNL     1      37.998  22.452   3.197  1.00  0.00    -0.342 N 
ATOM      8  H2  UNL     1      37.877  21.504   2.842  1.00  0.00     0.167 HD
HETATM    9  C21 UNL     1      37.211  21.352   5.116  1.00  0.00     0.054 C 
HETATM   10  C22 UNL     1      35.861  21.644   5.621  1.00  0.00     0.016 C 
HETATM   11  C23 UNL     1      35.471  22.990   6.046  1.00  0.00    -0.032 C 
HETATM   12  C24 UNL     1      34.256  23.367   5.160  1.00  0.00     0.016 C 
ENDROOT
BRANCH   1  13
HETATM   13  C3  UNL     1      34.010  22.292   8.047  1.00  0.00    -0.070 C 
HETATM   14  C4  UNL     1      32.953  22.729   8.608  1.00  0.00     0.077 C 
BRANCH  13  15
HETATM   15  C2  UNL     1      34.231  20.806   7.891  1.00  0.00     0.030 C 
HETATM   16  C1  UNL     1      33.176  20.228   6.954  1.00  0.00     0.010 C 
ENDBRANCH  13  15
BRANCH  14  17
HETATM   17  C5  UNL     1      31.812  22.054   9.182  1.00  0.00     0.241 C 
HETATM   18  O1  UNL     1      30.604  22.225   8.884  1.00  0.00    -0.269 OA
HETATM   19  N1  UNL     1      32.004  21.059  10.215  1.00  0.00    -0.357 N 
ATOM     20  H1  UNL     1      32.944  20.833  10.541  1.00  0.00     0.162 HD
BRANCH  19  21
HETATM   21  C6  UNL     1      30.878  20.398  10.775  1.00  0.00     0.127 C 
BRANCH  21  22
HETATM   22  C7  UNL     1      31.245  19.282  11.716  1.00  0.00    -0.001 C 
HETATM   23  C8  UNL     1      30.806  19.720  13.110  1.00  0.00     0.011 C 
BRANCH  22  24
HETATM   24  C9  UNL     1      30.420  18.037  11.395  1.00  0.00     0.001 C 
HETATM   25  C10 UNL     1      29.378  17.864  12.480  1.00  0.00     0.005 C 
ENDBRANCH  22  24
ENDBRANCH  21  22
ENDBRANCH  19  21
ENDBRANCH  14  17
ENDBRANCH   1  13
BRANCH   5  26
HETATM   26  C16 UNL     1      39.051  23.788   6.055  1.00  0.00    -0.013 C 
HETATM   27  C17 UNL     1      39.507  25.248   6.305  1.00  0.00     0.010 C 
HETATM   28  C18 UNL     1      40.240  23.139   5.462  1.00  0.00     0.010 C 
ENDBRANCH   5  26
BRANCH   7  29
HETATM   29  C20 UNL     1      38.437  23.342   2.234  1.00  0.00     0.185 C 
HETATM   30  N3  UNL     1      37.711  24.374   1.612  1.00  0.00    -0.070 NA
HETATM   31  S1  UNL     1      40.012  23.181   1.729  1.00  0.00    -0.044 SA
ENDBRANCH   7  29
TORSDOF 8
ENDMDL
