MODEL 1
REMARK VINA RESULT: -8.869053530      0.000      0.000
REMARK  8 active torsions:
REMARK  status: ('A' for Active; 'I' for Inactive)
REMARK    1  A    between atoms: C3_3  and  C4_4 
REMARK    2  A    between atoms: C5_5  and  C7_7 
REMARK    3  A    between atoms: C7_7  and  C8_8 
REMARK    4  A    between atoms: C8_8  and  C9_9 
REMARK    5  A    between atoms: C9_9  and  C10_10 
REMARK    6  A    between atoms: C10_10  and  C12_12 
REMARK    7  A    between atoms: C18_20  and  C19_21 
REMARK    8  A    between atoms: C21_23  and  C22_24 
REMARK       I    between atoms: C22_24  and  N1_26 
ROOT
HETATM    1  C1  UNL     1      28.793  21.318  14.513  1.00  0.00     0.112 C 
HETATM    2  C2  UNL     1      29.490  20.970  13.258  1.00  0.00    -0.106 C 
HETATM    3  C3  UNL     1      30.076  20.690  12.244  1.00  0.00    -0.079 C 
ENDROOT
BRANCH   3   4
HETATM    4  C4  UNL     1      30.791  20.373  11.044  1.00  0.00     0.067 C 
HETATM    5  C5  UNL     1      31.230  21.368  10.297  1.00  0.00    -0.076 C 
HETATM    6  C6  UNL     1      30.992  22.776  10.686  1.00  0.00     0.044 C 
BRANCH   5   7
HETATM    7  C7  UNL     1      31.961  21.077   9.068  1.00  0.00     0.034 C 
BRANCH   7   8
HETATM    8  C8  UNL     1      33.379  21.702   9.071  1.00  0.00     0.005 C 
BRANCH   8   9
HETATM    9  C9  UNL     1      33.354  22.761   8.054  1.00  0.00     0.011 C 
BRANCH   9  10
HETATM   10  C10 UNL     1      34.106  22.549   6.769  1.00  0.00     0.039 C 
HETATM   11  C11 UNL     1      33.129  22.013   5.814  1.00  0.00     0.017 C 
BRANCH  10  12
HETATM   12  C12 UNL     1      34.985  23.676   6.409  1.00  0.00     0.064 C 
HETATM   13  O1  UNL     1      35.160  24.467   7.567  1.00  0.00    -0.279 OA
HETATM   14  C13 UNL     1      36.203  24.452   8.458  1.00  0.00     0.287 C 
HETATM   15  O2  UNL     1      36.043  24.295   9.702  1.00  0.00    -0.260 OA
HETATM   16  C14 UNL     1      37.607  24.616   8.077  1.00  0.00     0.079 C 
HETATM   17  C15 UNL     1      38.089  24.656   6.849  1.00  0.00    -0.006 C 
HETATM   18  C16 UNL     1      37.303  24.539   5.618  1.00  0.00     0.007 C 
HETATM   19  C17 UNL     1      36.834  25.899   5.195  1.00  0.00     0.025 C 
HETATM   20  C18 UNL     1      38.107  23.936   4.487  1.00  0.00     0.031 C 
HETATM   21  C26 UNL     1      36.167  23.534   5.633  1.00  0.00    -0.037 C 
HETATM   22  C24 UNL     1      38.293  22.538   5.039  1.00  0.00     0.015 C 
HETATM   23  C25 UNL     1      36.848  22.205   5.451  1.00  0.00     0.038 C 
BRANCH  20  24
HETATM   24  C19 UNL     1      39.370  24.579   4.135  1.00  0.00    -0.073 C 
HETATM   25  C20 UNL     1      39.517  25.661   3.152  1.00  0.00     0.044 C 
HETATM   26  C21 UNL     1      40.445  24.120   4.710  1.00  0.00     0.076 C 
BRANCH  26  27
HETATM   27  C22 UNL     1      41.771  24.641   4.479  1.00  0.00     0.241 C 
HETATM   28  O3  UNL     1      42.270  25.676   4.986  1.00  0.00    -0.269 OA
HETATM   29  N1  UNL     1      42.679  23.947   3.575  1.00  0.00    -0.362 N 
HETATM   30  C23 UNL     1      43.985  24.468   3.353  1.00  0.00     0.149 C 
ATOM     31  H1  UNL     1      42.381  23.092   3.105  1.00  0.00     0.162 HD
ENDBRANCH  26  27
ENDBRANCH  20  24
ENDBRANCH  10  12
ENDBRANCH   9  10
ENDBRANCH   8   9
ENDBRANCH   7   8
ENDBRANCH   5   7
ENDBRANCH   3   4
TORSDOF 8
ENDMDL
MODEL 2
REMARK VINA RESULT: -8.854804082      1.542      1.732
REMARK  8 active torsions:
REMARK  status: ('A' for Active; 'I' for Inactive)
REMARK    1  A    between atoms: C3_3  and  C4_4 
REMARK    2  A    between atoms: C5_5  and  C7_7 
REMARK    3  A    between atoms: C7_7  and  C8_8 
REMARK    4  A    between atoms: C8_8  and  C9_9 
REMARK    5  A    between atoms: C9_9  and  C10_10 
REMARK    6  A    between atoms: C10_10  and  C12_12 
REMARK    7  A    between atoms: C18_20  and  C19_21 
REMARK    8  A    between atoms: C21_23  and  C22_24 
REMARK       I    between atoms: C22_24  and  N1_26 
ROOT
HETATM    1  C1  UNL     1      29.675  20.666  14.248  1.00  0.00     0.112 C 
HETATM    2  C2  UNL     1      30.066  20.774  12.828  1.00  0.00    -0.106 C 
HETATM    3  C3  UNL     1      30.381  20.842  11.669  1.00  0.00    -0.079 C 
ENDROOT
BRANCH   3   4
HETATM    4  C4  UNL     1      30.762  20.899  10.288  1.00  0.00     0.067 C 
HETATM    5  C5  UNL     1      31.154  22.058   9.795  1.00  0.00    -0.076 C 
HETATM    6  C6  UNL     1      31.199  23.270  10.643  1.00  0.00     0.044 C 
BRANCH   5   7
HETATM    7  C7  UNL     1      31.547  22.148   8.392  1.00  0.00     0.034 C 
BRANCH   7   8
HETATM    8  C8  UNL     1      32.970  21.586   8.148  1.00  0.00     0.005 C 
BRANCH   8   9
HETATM    9  C9  UNL     1      33.636  22.548   7.261  1.00  0.00     0.011 C 
BRANCH   9  10
HETATM   10  C10 UNL     1      34.375  23.706   7.873  1.00  0.00     0.039 C 
HETATM   11  C11 UNL     1      34.853  23.236   9.177  1.00  0.00     0.017 C 
BRANCH  10  12
HETATM   12  C12 UNL     1      35.278  24.391   6.931  1.00  0.00     0.064 C 
HETATM   13  O1  UNL     1      36.039  25.324   7.670  1.00  0.00    -0.279 OA
HETATM   14  C13 UNL     1      37.309  25.183   8.169  1.00  0.00     0.287 C 
HETATM   15  O2  UNL     1      37.594  25.365   9.386  1.00  0.00    -0.260 OA
HETATM   16  C14 UNL     1      38.469  24.810   7.357  1.00  0.00     0.079 C 
HETATM   17  C15 UNL     1      38.454  24.422   6.096  1.00  0.00    -0.006 C 
HETATM   18  C16 UNL     1      37.261  24.286   5.257  1.00  0.00     0.007 C 
HETATM   19  C17 UNL     1      36.973  25.594   4.583  1.00  0.00     0.025 C 
HETATM   20  C18 UNL     1      37.434  23.226   4.192  1.00  0.00     0.031 C 
HETATM   21  C26 UNL     1      36.024  23.717   5.926  1.00  0.00    -0.037 C 
HETATM   22  C24 UNL     1      37.506  22.000   5.078  1.00  0.00     0.015 C 
HETATM   23  C25 UNL     1      36.284  22.237   5.984  1.00  0.00     0.038 C 
BRANCH  20  24
HETATM   24  C19 UNL     1      38.582  23.345   3.297  1.00  0.00    -0.073 C 
HETATM   25  C20 UNL     1      38.564  24.025   1.994  1.00  0.00     0.044 C 
HETATM   26  C21 UNL     1      39.685  22.764   3.673  1.00  0.00     0.076 C 
BRANCH  26  27
HETATM   27  C22 UNL     1      40.911  22.786   2.910  1.00  0.00     0.241 C 
HETATM   28  O3  UNL     1      41.817  23.653   2.971  1.00  0.00    -0.269 OA
HETATM   29  N1  UNL     1      41.192  21.725   1.952  1.00  0.00    -0.362 N 
HETATM   30  C23 UNL     1      42.404  21.756   1.205  1.00  0.00     0.149 C 
ATOM     31  H1  UNL     1      40.525  20.965   1.818  1.00  0.00     0.162 HD
ENDBRANCH  26  27
ENDBRANCH  20  24
ENDBRANCH  10  12
ENDBRANCH   9  10
ENDBRANCH   8   9
ENDBRANCH   7   8
ENDBRANCH   5   7
ENDBRANCH   3   4
TORSDOF 8
ENDMDL
MODEL 3
REMARK VINA RESULT: -8.765426256      2.889      3.670
REMARK  8 active torsions:
REMARK  status: ('A' for Active; 'I' for Inactive)
REMARK    1  A    between atoms: C3_3  and  C4_4 
REMARK    2  A    between atoms: C5_5  and  C7_7 
REMARK    3  A    between atoms: C7_7  and  C8_8 
REMARK    4  A    between atoms: C8_8  and  C9_9 
REMARK    5  A    between atoms: C9_9  and  C10_10 
REMARK    6  A    between atoms: C10_10  and  C12_12 
REMARK    7  A    between atoms: C18_20  and  C19_21 
REMARK    8  A    between atoms: C21_23  and  C22_24 
REMARK       I    between atoms: C22_24  and  N1_26 
ROOT
HETATM    1  C1  UNL     1      28.258  20.303  12.685  1.00  0.00     0.112 C 
HETATM    2  C2  UNL     1      29.479  20.189  11.863  1.00  0.00    -0.106 C 
HETATM    3  C3  UNL     1      30.465  20.103  11.177  1.00  0.00    -0.079 C 
ENDROOT
BRANCH   3   4
HETATM    4  C4  UNL     1      31.624  19.999  10.341  1.00  0.00     0.067 C 
HETATM    5  C5  UNL     1      31.999  21.063   9.657  1.00  0.00    -0.076 C 
HETATM    6  C6  UNL     1      31.243  22.333   9.749  1.00  0.00     0.044 C 
BRANCH   5   7
HETATM    7  C7  UNL     1      33.174  20.988   8.795  1.00  0.00     0.034 C 
BRANCH   7   8
HETATM    8  C8  UNL     1      32.796  20.980   7.292  1.00  0.00     0.005 C 
BRANCH   8   9
HETATM    9  C9  UNL     1      33.178  22.300   6.774  1.00  0.00     0.011 C 
BRANCH   9  10
HETATM   10  C10 UNL     1      34.634  22.676   6.754  1.00  0.00     0.039 C 
HETATM   11  C11 UNL     1      35.151  22.218   5.460  1.00  0.00     0.017 C 
BRANCH  10  12
HETATM   12  C12 UNL     1      34.894  24.043   7.239  1.00  0.00     0.064 C 
HETATM   13  O1  UNL     1      34.376  24.136   8.551  1.00  0.00    -0.279 OA
HETATM   14  C13 UNL     1      35.045  24.010   9.742  1.00  0.00     0.287 C 
HETATM   15  O2  UNL     1      34.697  23.197  10.643  1.00  0.00    -0.260 OA
HETATM   16  C14 UNL     1      36.227  24.796  10.103  1.00  0.00     0.079 C 
HETATM   17  C15 UNL     1      36.898  25.613   9.314  1.00  0.00    -0.006 C 
HETATM   18  C16 UNL     1      36.589  25.893   7.910  1.00  0.00     0.007 C 
HETATM   19  C17 UNL     1      35.621  27.036   7.829  1.00  0.00     0.025 C 
HETATM   20  C18 UNL     1      37.826  26.256   7.118  1.00  0.00     0.031 C 
HETATM   21  C26 UNL     1      36.134  24.715   7.069  1.00  0.00    -0.037 C 
HETATM   22  C24 UNL     1      38.546  24.925   7.165  1.00  0.00     0.015 C 
HETATM   23  C25 UNL     1      37.406  23.975   6.753  1.00  0.00     0.038 C 
BRANCH  20  24
HETATM   24  C19 UNL     1      38.645  27.361   7.609  1.00  0.00    -0.073 C 
HETATM   25  C20 UNL     1      38.700  28.699   7.005  1.00  0.00     0.044 C 
HETATM   26  C21 UNL     1      39.413  27.115   8.631  1.00  0.00     0.076 C 
BRANCH  26  27
HETATM   27  C22 UNL     1      40.282  28.092   9.243  1.00  0.00     0.241 C 
HETATM   28  O3  UNL     1      41.502  28.267   9.003  1.00  0.00    -0.269 OA
HETATM   29  N1  UNL     1      39.758  29.002  10.253  1.00  0.00    -0.362 N 
HETATM   30  C23 UNL     1      40.622  29.963  10.850  1.00  0.00     0.149 C 
ATOM     31  H1  UNL     1      38.777  28.952  10.529  1.00  0.00     0.162 HD
ENDBRANCH  26  27
ENDBRANCH  20  24
ENDBRANCH  10  12
ENDBRANCH   9  10
ENDBRANCH   8   9
ENDBRANCH   7   8
ENDBRANCH   5   7
ENDBRANCH   3   4
TORSDOF 8
ENDMDL
MODEL 4
REMARK VINA RESULT: -8.529904676      3.303      8.213
REMARK  8 active torsions:
REMARK  status: ('A' for Active; 'I' for Inactive)
REMARK    1  A    between atoms: C3_3  and  C4_4 
REMARK    2  A    between atoms: C5_5  and  C7_7 
REMARK    3  A    between atoms: C7_7  and  C8_8 
REMARK    4  A    between atoms: C8_8  and  C9_9 
REMARK    5  A    between atoms: C9_9  and  C10_10 
REMARK    6  A    between atoms: C10_10  and  C12_12 
REMARK    7  A    between atoms: C18_20  and  C19_21 
REMARK    8  A    between atoms: C21_23  and  C22_24 
REMARK       I    between atoms: C22_24  and  N1_26 
ROOT
HETATM    1  C1  UNL     1      35.386  20.897   5.543  1.00  0.00     0.112 C 
HETATM    2  C2  UNL     1      36.587  21.738   5.367  1.00  0.00    -0.106 C 
HETATM    3  C3  UNL     1      37.560  22.435   5.239  1.00  0.00    -0.079 C 
ENDROOT
BRANCH   3   4
HETATM    4  C4  UNL     1      38.706  23.285   5.095  1.00  0.00     0.067 C 
HETATM    5  C5  UNL     1      38.726  24.140   4.092  1.00  0.00    -0.076 C 
HETATM    6  C6  UNL     1      37.598  24.224   3.138  1.00  0.00     0.044 C 
BRANCH   5   7
HETATM    7  C7  UNL     1      39.880  25.018   3.919  1.00  0.00     0.034 C 
BRANCH   7   8
HETATM    8  C8  UNL     1      39.475  26.514   3.895  1.00  0.00     0.005 C 
BRANCH   8   9
HETATM    9  C9  UNL     1      39.748  27.026   5.243  1.00  0.00     0.011 C 
BRANCH   9  10
HETATM   10  C10 UNL     1      38.663  27.773   5.968  1.00  0.00     0.039 C 
HETATM   11  C11 UNL     1      37.674  28.139   4.948  1.00  0.00     0.017 C 
BRANCH  10  12
HETATM   12  C12 UNL     1      38.254  27.136   7.232  1.00  0.00     0.064 C 
HETATM   13  O1  UNL     1      38.031  28.164   8.176  1.00  0.00    -0.279 OA
HETATM   14  C13 UNL     1      36.842  28.741   8.541  1.00  0.00     0.287 C 
HETATM   15  O2  UNL     1      36.641  29.987   8.500  1.00  0.00    -0.260 OA
HETATM   16  C14 UNL     1      35.680  27.988   9.018  1.00  0.00     0.079 C 
HETATM   17  C15 UNL     1      35.546  26.675   9.032  1.00  0.00    -0.006 C 
HETATM   18  C16 UNL     1      36.543  25.708   8.566  1.00  0.00     0.007 C 
HETATM   19  C17 UNL     1      37.467  25.361   9.696  1.00  0.00     0.025 C 
HETATM   20  C18 UNL     1      35.904  24.433   8.061  1.00  0.00     0.031 C 
HETATM   21  C26 UNL     1      37.309  26.077   7.310  1.00  0.00    -0.037 C 
HETATM   22  C24 UNL     1      35.201  24.982   6.837  1.00  0.00     0.015 C 
HETATM   23  C25 UNL     1      36.346  25.784   6.192  1.00  0.00     0.038 C 
BRANCH  20  24
HETATM   24  C19 UNL     1      35.001  23.724   8.963  1.00  0.00    -0.073 C 
HETATM   25  C20 UNL     1      35.043  23.806  10.429  1.00  0.00     0.044 C 
HETATM   26  C21 UNL     1      34.128  22.928   8.415  1.00  0.00     0.076 C 
BRANCH  26  27
HETATM   27  C22 UNL     1      33.161  22.155   9.159  1.00  0.00     0.241 C 
HETATM   28  O3  UNL     1      33.327  21.007   9.638  1.00  0.00    -0.269 OA
HETATM   29  N1  UNL     1      31.835  22.701   9.416  1.00  0.00    -0.362 N 
HETATM   30  C23 UNL     1      30.888  21.932  10.150  1.00  0.00     0.149 C 
ATOM     31  H1  UNL     1      31.587  23.629   9.073  1.00  0.00     0.162 HD
ENDBRANCH  26  27
ENDBRANCH  20  24
ENDBRANCH  10  12
ENDBRANCH   9  10
ENDBRANCH   8   9
ENDBRANCH   7   8
ENDBRANCH   5   7
ENDBRANCH   3   4
TORSDOF 8
ENDMDL
MODEL 5
REMARK VINA RESULT: -8.520028934      2.429      2.743
REMARK  8 active torsions:
REMARK  status: ('A' for Active; 'I' for Inactive)
REMARK    1  A    between atoms: C3_3  and  C4_4 
REMARK    2  A    between atoms: C5_5  and  C7_7 
REMARK    3  A    between atoms: C7_7  and  C8_8 
REMARK    4  A    between atoms: C8_8  and  C9_9 
REMARK    5  A    between atoms: C9_9  and  C10_10 
REMARK    6  A    between atoms: C10_10  and  C12_12 
REMARK    7  A    between atoms: C18_20  and  C19_21 
REMARK    8  A    between atoms: C21_23  and  C22_24 
REMARK       I    between atoms: C22_24  and  N1_26 
ROOT
HETATM    1  C1  UNL     1      29.863  20.965  14.693  1.00  0.00     0.112 C 
HETATM    2  C2  UNL     1      30.099  20.972  13.235  1.00  0.00    -0.106 C 
HETATM    3  C3  UNL     1      30.311  20.978  12.050  1.00  0.00    -0.079 C 
ENDROOT
BRANCH   3   4
HETATM    4  C4  UNL     1      30.586  20.998  10.643  1.00  0.00     0.067 C 
HETATM    5  C5  UNL     1      31.051  22.112  10.113  1.00  0.00    -0.076 C 
HETATM    6  C6  UNL     1      31.285  23.313  10.946  1.00  0.00     0.044 C 
BRANCH   5   7
HETATM    7  C7  UNL     1      31.339  22.163   8.683  1.00  0.00     0.034 C 
BRANCH   7   8
HETATM    8  C8  UNL     1      32.359  21.079   8.254  1.00  0.00     0.005 C 
BRANCH   8   9
HETATM    9  C9  UNL     1      33.680  21.600   8.626  1.00  0.00     0.011 C 
BRANCH   9  10
HETATM   10  C10 UNL     1      34.569  22.157   7.548  1.00  0.00     0.039 C 
HETATM   11  C11 UNL     1      34.116  21.544   6.295  1.00  0.00     0.017 C 
BRANCH  10  12
HETATM   12  C12 UNL     1      34.778  23.612   7.653  1.00  0.00     0.064 C 
HETATM   13  O1  UNL     1      34.515  23.986   8.990  1.00  0.00    -0.279 OA
HETATM   14  C13 UNL     1      35.409  24.182  10.012  1.00  0.00     0.287 C 
HETATM   15  O2  UNL     1      35.324  23.588  11.124  1.00  0.00    -0.260 OA
HETATM   16  C14 UNL     1      36.553  25.093   9.934  1.00  0.00     0.079 C 
HETATM   17  C15 UNL     1      36.975  25.735   8.861  1.00  0.00    -0.006 C 
HETATM   18  C16 UNL     1      36.375  25.656   7.526  1.00  0.00     0.007 C 
HETATM   19  C17 UNL     1      35.300  26.694   7.400  1.00  0.00     0.025 C 
HETATM   20  C18 UNL     1      37.394  25.887   6.432  1.00  0.00     0.031 C 
HETATM   21  C26 UNL     1      35.889  24.290   7.081  1.00  0.00    -0.037 C 
HETATM   22  C24 UNL     1      38.240  24.645   6.621  1.00  0.00     0.015 C 
HETATM   23  C25 UNL     1      37.144  23.565   6.677  1.00  0.00     0.038 C 
BRANCH  20  24
HETATM   24  C19 UNL     1      38.177  27.119   6.483  1.00  0.00    -0.073 C 
HETATM   25  C20 UNL     1      37.730  28.420   5.968  1.00  0.00     0.044 C 
HETATM   26  C21 UNL     1      39.376  27.034   6.985  1.00  0.00     0.076 C 
BRANCH  26  27
HETATM   27  C22 UNL     1      40.280  28.153   7.113  1.00  0.00     0.241 C 
HETATM   28  O3  UNL     1      40.321  28.979   8.057  1.00  0.00    -0.269 OA
HETATM   29  N1  UNL     1      41.272  28.409   6.078  1.00  0.00    -0.362 N 
HETATM   30  C23 UNL     1      42.159  29.515   6.213  1.00  0.00     0.149 C 
ATOM     31  H1  UNL     1      41.330  27.801   5.261  1.00  0.00     0.162 HD
ENDBRANCH  26  27
ENDBRANCH  20  24
ENDBRANCH  10  12
ENDBRANCH   9  10
ENDBRANCH   8   9
ENDBRANCH   7   8
ENDBRANCH   5   7
ENDBRANCH   3   4
TORSDOF 8
ENDMDL
