MODEL 1
REMARK VINA RESULT: -8.240107276      0.000      0.000
REMARK  9 active torsions:
REMARK  status: ('A' for Active; 'I' for Inactive)
REMARK    1  A    between atoms: C2_2  and  C3_3 
REMARK    2  A    between atoms: C5_5  and  C6_6 
REMARK    3  A    between atoms: C6_6  and  C7_7 
REMARK    4  A    between atoms: C12_12  and  O1_13 
REMARK    5  A    between atoms: C13_15  and  C14_16 
REMARK    6  A    between atoms: N1_22  and  C18_23 
REMARK    7  A    between atoms: C18_23  and  C19_24 
REMARK    8  A    between atoms: C19_24  and  O4_25 
REMARK    9  A    between atoms: C21_28  and  O5_29 
ROOT
HETATM    1  C7  UNL     1      49.180  51.291  16.763  1.00  0.00     0.019 C 
HETATM    2  C8  UNL     1      48.228  52.038  17.685  1.00  0.00     0.015 C 
HETATM    3  C9  UNL     1      48.861  53.260  18.184  1.00  0.00     0.029 C 
HETATM    4  C10 UNL     1      50.398  53.233  18.126  1.00  0.00     0.026 C 
HETATM    5  C11 UNL     1      50.855  51.892  18.528  1.00  0.00     0.036 C 
HETATM    6  C12 UNL     1      50.470  50.927  17.396  1.00  0.00     0.128 C 
HETATM    7  C13 UNL     1      50.238  51.334  19.787  1.00  0.00     0.101 C 
HETATM    8  C15 UNL     1      49.431  52.361  20.481  1.00  0.00     0.042 C 
HETATM    9  C16 UNL     1      50.082  52.965  21.708  1.00  0.00     0.053 C 
HETATM   10  C17 UNL     1      51.282  53.807  21.403  1.00  0.00     0.059 C 
HETATM   11  N1  UNL     1      51.308  54.426  20.147  1.00  0.00    -0.383 N 
HETATM   12  C20 UNL     1      50.302  54.256  19.229  1.00  0.00     0.123 C 
HETATM   13  C21 UNL     1      49.034  53.533  19.631  1.00  0.00     0.087 C 
ENDROOT
BRANCH   1  14
HETATM   14  C6  UNL     1      48.428  50.062  16.224  1.00  0.00     0.034 C 
BRANCH  14  15
HETATM   15  C5  UNL     1      47.658  49.404  17.275  1.00  0.00    -0.024 C 
HETATM   16  C3  UNL     1      46.662  48.583  17.268  1.00  0.00    -0.088 C 
HETATM   17  C4  UNL     1      46.187  48.151  18.678  1.00  0.00     0.043 C 
BRANCH  16  18
HETATM   18  C2  UNL     1      45.882  47.966  16.205  1.00  0.00     0.029 C 
HETATM   19  C1  UNL     1      44.670  47.197  16.521  1.00  0.00     0.010 C 
ENDBRANCH  16  18
ENDBRANCH  14  15
ENDBRANCH   1  14
BRANCH   6  20
HETATM   20  O1  UNL     1      51.532  50.880  16.498  1.00  0.00    -0.395 OA
ATOM     21  H1  UNL     1      51.912  50.014  16.410  1.00  0.00     0.210 HD
ENDBRANCH   6  20
BRANCH  13  22
HETATM   22  O5  UNL     1      48.090  54.321  20.255  1.00  0.00    -0.387 OA
ATOM     23  H5  UNL     1      48.391  54.941  20.909  1.00  0.00     0.210 HD
ENDBRANCH  13  22
BRANCH   7  24
HETATM   24  C14 UNL     1      51.291  50.684  20.609  1.00  0.00     0.177 C 
HETATM   25  O2  UNL     1      50.981  49.863  21.506  1.00  0.00    -0.648 OA
HETATM   26  O3  UNL     1      52.628  50.971  20.404  1.00  0.00    -0.648 OA
ENDBRANCH   7  24
BRANCH  11  27
HETATM   27  C18 UNL     1      51.843  55.789  20.207  1.00  0.00     0.148 C 
BRANCH  27  28
HETATM   28  C19 UNL     1      51.504  56.497  21.476  1.00  0.00     0.183 C 
BRANCH  28  29
HETATM   29  O4  UNL     1      52.699  56.921  22.075  1.00  0.00    -0.399 OA
ATOM     30  H4  UNL     1      52.514  57.151  22.978  1.00  0.00     0.209 HD
ENDBRANCH  28  29
ENDBRANCH  27  28
ENDBRANCH  11  27
TORSDOF 9
ENDMDL
MODEL 2
REMARK VINA RESULT: -7.790668135      4.542      7.491
REMARK  9 active torsions:
REMARK  status: ('A' for Active; 'I' for Inactive)
REMARK    1  A    between atoms: C2_2  and  C3_3 
REMARK    2  A    between atoms: C5_5  and  C6_6 
REMARK    3  A    between atoms: C6_6  and  C7_7 
REMARK    4  A    between atoms: C12_12  and  O1_13 
REMARK    5  A    between atoms: C13_15  and  C14_16 
REMARK    6  A    between atoms: N1_22  and  C18_23 
REMARK    7  A    between atoms: C18_23  and  C19_24 
REMARK    8  A    between atoms: C19_24  and  O4_25 
REMARK    9  A    between atoms: C21_28  and  O5_29 
ROOT
HETATM    1  C7  UNL     1      46.943  58.547  19.381  1.00  0.00     0.019 C 
HETATM    2  C8  UNL     1      47.356  58.443  20.841  1.00  0.00     0.015 C 
HETATM    3  C9  UNL     1      48.815  58.438  20.956  1.00  0.00     0.029 C 
HETATM    4  C10 UNL     1      49.540  58.007  19.670  1.00  0.00     0.026 C 
HETATM    5  C11 UNL     1      48.795  56.886  19.070  1.00  0.00     0.036 C 
HETATM    6  C12 UNL     1      47.479  57.461  18.526  1.00  0.00     0.128 C 
HETATM    7  C13 UNL     1      48.412  55.769  20.010  1.00  0.00     0.101 C 
HETATM    8  C15 UNL     1      49.056  55.946  21.330  1.00  0.00     0.042 C 
HETATM    9  C16 UNL     1      50.239  55.037  21.591  1.00  0.00     0.053 C 
HETATM   10  C17 UNL     1      51.430  55.333  20.733  1.00  0.00     0.059 C 
HETATM   11  N1  UNL     1      51.570  56.656  20.295  1.00  0.00    -0.383 N 
HETATM   12  C20 UNL     1      50.656  57.630  20.611  1.00  0.00     0.123 C 
HETATM   13  C21 UNL     1      49.558  57.332  21.609  1.00  0.00     0.087 C 
ENDROOT
BRANCH   1  14
HETATM   14  C6  UNL     1      45.408  58.618  19.341  1.00  0.00     0.034 C 
BRANCH  14  15
HETATM   15  C5  UNL     1      44.937  59.999  19.307  1.00  0.00    -0.024 C 
HETATM   16  C3  UNL     1      45.470  61.112  18.929  1.00  0.00    -0.088 C 
HETATM   17  C4  UNL     1      44.544  62.344  19.087  1.00  0.00     0.043 C 
BRANCH  16  18
HETATM   18  C2  UNL     1      46.770  61.461  18.374  1.00  0.00     0.029 C 
HETATM   19  C1  UNL     1      46.880  62.473  17.314  1.00  0.00     0.010 C 
ENDBRANCH  16  18
ENDBRANCH  14  15
ENDBRANCH   1  14
BRANCH   6  20
HETATM   20  O1  UNL     1      47.698  57.853  17.208  1.00  0.00    -0.395 OA
ATOM     21  H1  UNL     1      47.612  57.142  16.584  1.00  0.00     0.210 HD
ENDBRANCH   6  20
BRANCH  13  22
HETATM   22  O5  UNL     1      49.918  57.490  22.931  1.00  0.00    -0.387 OA
ATOM     23  H5  UNL     1      49.355  58.018  23.484  1.00  0.00     0.210 HD
ENDBRANCH  13  22
BRANCH   7  24
HETATM   24  C14 UNL     1      48.653  54.462  19.350  1.00  0.00     0.177 C 
HETATM   25  O2  UNL     1      48.161  53.409  19.824  1.00  0.00    -0.648 OA
HETATM   26  O3  UNL     1      49.422  54.377  18.204  1.00  0.00    -0.648 OA
ENDBRANCH   7  24
BRANCH  11  27
HETATM   27  C18 UNL     1      52.963  57.108  20.320  1.00  0.00     0.148 C 
BRANCH  27  28
HETATM   28  C19 UNL     1      53.232  58.125  21.377  1.00  0.00     0.183 C 
BRANCH  28  29
HETATM   29  O4  UNL     1      53.545  57.451  22.566  1.00  0.00    -0.399 OA
ATOM     30  H4  UNL     1      54.455  57.179  22.523  1.00  0.00     0.209 HD
ENDBRANCH  28  29
ENDBRANCH  27  28
ENDBRANCH  11  27
TORSDOF 9
ENDMDL
MODEL 3
REMARK VINA RESULT: -7.715755593      1.843      2.836
REMARK  9 active torsions:
REMARK  status: ('A' for Active; 'I' for Inactive)
REMARK    1  A    between atoms: C2_2  and  C3_3 
REMARK    2  A    between atoms: C5_5  and  C6_6 
REMARK    3  A    between atoms: C6_6  and  C7_7 
REMARK    4  A    between atoms: C12_12  and  O1_13 
REMARK    5  A    between atoms: C13_15  and  C14_16 
REMARK    6  A    between atoms: N1_22  and  C18_23 
REMARK    7  A    between atoms: C18_23  and  C19_24 
REMARK    8  A    between atoms: C19_24  and  O4_25 
REMARK    9  A    between atoms: C21_28  and  O5_29 
ROOT
HETATM    1  C7  UNL     1      48.632  53.868  17.531  1.00  0.00     0.019 C 
HETATM    2  C8  UNL     1      48.162  55.185  18.128  1.00  0.00     0.015 C 
HETATM    3  C9  UNL     1      49.312  56.017  18.489  1.00  0.00     0.029 C 
HETATM    4  C10 UNL     1      50.615  55.224  18.692  1.00  0.00     0.026 C 
HETATM    5  C11 UNL     1      50.293  53.976  19.406  1.00  0.00     0.036 C 
HETATM    6  C12 UNL     1      49.518  53.084  18.426  1.00  0.00     0.128 C 
HETATM    7  C13 UNL     1      49.419  54.121  20.628  1.00  0.00     0.101 C 
HETATM    8  C15 UNL     1      49.228  55.547  20.975  1.00  0.00     0.042 C 
HETATM    9  C16 UNL     1      50.040  56.031  22.159  1.00  0.00     0.053 C 
HETATM   10  C17 UNL     1      51.515  56.069  21.905  1.00  0.00     0.059 C 
HETATM   11  N1  UNL     1      51.915  56.267  20.578  1.00  0.00    -0.383 N 
HETATM   12  C20 UNL     1      51.010  56.396  19.554  1.00  0.00     0.123 C 
HETATM   13  C21 UNL     1      49.534  56.513  19.869  1.00  0.00     0.087 C 
ENDROOT
BRANCH   1  14
HETATM   14  C6  UNL     1      47.379  53.080  17.114  1.00  0.00     0.034 C 
BRANCH  14  15
HETATM   15  C5  UNL     1      47.701  52.041  16.141  1.00  0.00    -0.024 C 
HETATM   16  C3  UNL     1      47.664  50.751  16.170  1.00  0.00    -0.088 C 
HETATM   17  C4  UNL     1      48.108  50.075  14.849  1.00  0.00     0.043 C 
BRANCH  16  18
HETATM   18  C2  UNL     1      47.285  49.784  17.190  1.00  0.00     0.029 C 
HETATM   19  C1  UNL     1      45.900  49.304  17.284  1.00  0.00     0.010 C 
ENDBRANCH  16  18
ENDBRANCH  14  15
ENDBRANCH   1  14
BRANCH   6  20
HETATM   20  O1  UNL     1      50.443  52.302  17.739  1.00  0.00    -0.395 OA
ATOM     21  H1  UNL     1      50.376  51.376  17.940  1.00  0.00     0.210 HD
ENDBRANCH   6  20
BRANCH  13  22
HETATM   22  O5  UNL     1      49.106  57.789  20.171  1.00  0.00    -0.387 OA
ATOM     23  H5  UNL     1      48.690  57.930  21.013  1.00  0.00     0.210 HD
ENDBRANCH  13  22
BRANCH   7  24
HETATM   24  C14 UNL     1      49.945  53.262  21.718  1.00  0.00     0.177 C 
HETATM   25  O2  UNL     1      49.226  52.977  22.707  1.00  0.00    -0.648 OA
HETATM   26  O3  UNL     1      51.232  52.760  21.667  1.00  0.00    -0.648 OA
ENDBRANCH   7  24
BRANCH  11  27
HETATM   27  C18 UNL     1      53.074  57.157  20.471  1.00  0.00     0.148 C 
BRANCH  27  28
HETATM   28  C19 UNL     1      52.898  58.441  21.208  1.00  0.00     0.183 C 
BRANCH  28  29
HETATM   29  O4  UNL     1      53.796  58.457  22.286  1.00  0.00    -0.399 OA
ATOM     30  H4  UNL     1      54.658  58.231  21.958  1.00  0.00     0.209 HD
ENDBRANCH  28  29
ENDBRANCH  27  28
ENDBRANCH  11  27
TORSDOF 9
ENDMDL
MODEL 4
REMARK VINA RESULT: -7.459927972      4.741      7.149
REMARK  9 active torsions:
REMARK  status: ('A' for Active; 'I' for Inactive)
REMARK    1  A    between atoms: C2_2  and  C3_3 
REMARK    2  A    between atoms: C5_5  and  C6_6 
REMARK    3  A    between atoms: C6_6  and  C7_7 
REMARK    4  A    between atoms: C12_12  and  O1_13 
REMARK    5  A    between atoms: C13_15  and  C14_16 
REMARK    6  A    between atoms: N1_22  and  C18_23 
REMARK    7  A    between atoms: C18_23  and  C19_24 
REMARK    8  A    between atoms: C19_24  and  O4_25 
REMARK    9  A    between atoms: C21_28  and  O5_29 
ROOT
HETATM    1  C7  UNL     1      46.978  58.496  19.293  1.00  0.00     0.019 C 
HETATM    2  C8  UNL     1      47.370  58.437  20.761  1.00  0.00     0.015 C 
HETATM    3  C9  UNL     1      48.828  58.447  20.896  1.00  0.00     0.029 C 
HETATM    4  C10 UNL     1      49.574  57.985  19.633  1.00  0.00     0.026 C 
HETATM    5  C11 UNL     1      48.847  56.842  19.056  1.00  0.00     0.036 C 
HETATM    6  C12 UNL     1      47.534  57.389  18.477  1.00  0.00     0.128 C 
HETATM    7  C13 UNL     1      48.460  55.749  20.022  1.00  0.00     0.101 C 
HETATM    8  C15 UNL     1      49.084  55.969  21.346  1.00  0.00     0.042 C 
HETATM    9  C16 UNL     1      50.271  55.078  21.649  1.00  0.00     0.053 C 
HETATM   10  C17 UNL     1      51.470  55.360  20.799  1.00  0.00     0.059 C 
HETATM   11  N1  UNL     1      51.606  56.670  20.324  1.00  0.00    -0.383 N 
HETATM   12  C20 UNL     1      50.680  57.645  20.599  1.00  0.00     0.123 C 
HETATM   13  C21 UNL     1      49.570  57.367  21.591  1.00  0.00     0.087 C 
ENDROOT
BRANCH   1  14
HETATM   14  C6  UNL     1      45.442  58.552  19.230  1.00  0.00     0.034 C 
BRANCH  14  15
HETATM   15  C5  UNL     1      44.958  59.929  19.221  1.00  0.00    -0.024 C 
HETATM   16  C3  UNL     1      43.787  60.461  19.326  1.00  0.00    -0.088 C 
HETATM   17  C4  UNL     1      43.787  62.009  19.262  1.00  0.00     0.043 C 
BRANCH  16  18
HETATM   18  C2  UNL     1      42.450  59.912  19.498  1.00  0.00     0.029 C 
HETATM   19  C1  UNL     1      41.859  59.053  18.462  1.00  0.00     0.010 C 
ENDBRANCH  16  18
ENDBRANCH  14  15
ENDBRANCH   1  14
BRANCH   6  20
HETATM   20  O1  UNL     1      47.769  57.745  17.151  1.00  0.00    -0.395 OA
ATOM     21  H1  UNL     1      47.401  58.589  16.917  1.00  0.00     0.210 HD
ENDBRANCH   6  20
BRANCH  13  22
HETATM   22  O5  UNL     1      49.910  57.566  22.912  1.00  0.00    -0.387 OA
ATOM     23  H5  UNL     1      49.595  56.938  23.551  1.00  0.00     0.210 HD
ENDBRANCH  13  22
BRANCH   7  24
HETATM   24  C14 UNL     1      48.720  54.425  19.404  1.00  0.00     0.177 C 
HETATM   25  O2  UNL     1      48.243  53.381  19.910  1.00  0.00    -0.648 OA
HETATM   26  O3  UNL     1      49.492  54.316  18.262  1.00  0.00    -0.648 OA
ENDBRANCH   7  24
BRANCH  11  27
HETATM   27  C18 UNL     1      52.995  57.134  20.355  1.00  0.00     0.148 C 
BRANCH  27  28
HETATM   28  C19 UNL     1      53.249  58.158  21.411  1.00  0.00     0.183 C 
BRANCH  28  29
HETATM   29  O4  UNL     1      53.603  57.492  22.593  1.00  0.00    -0.399 OA
ATOM     30  H4  UNL     1      52.807  57.198  23.019  1.00  0.00     0.209 HD
ENDBRANCH  28  29
ENDBRANCH  27  28
ENDBRANCH  11  27
TORSDOF 9
ENDMDL
MODEL 5
REMARK VINA RESULT: -7.447522398      2.567      6.661
REMARK  9 active torsions:
REMARK  status: ('A' for Active; 'I' for Inactive)
REMARK    1  A    between atoms: C2_2  and  C3_3 
REMARK    2  A    between atoms: C5_5  and  C6_6 
REMARK    3  A    between atoms: C6_6  and  C7_7 
REMARK    4  A    between atoms: C12_12  and  O1_13 
REMARK    5  A    between atoms: C13_15  and  C14_16 
REMARK    6  A    between atoms: N1_22  and  C18_23 
REMARK    7  A    between atoms: C18_23  and  C19_24 
REMARK    8  A    between atoms: C19_24  and  O4_25 
REMARK    9  A    between atoms: C21_28  and  O5_29 
ROOT
HETATM    1  C7  UNL     1      50.454  53.974  20.665  1.00  0.00     0.019 C 
HETATM    2  C8  UNL     1      50.670  52.496  20.949  1.00  0.00     0.015 C 
HETATM    3  C9  UNL     1      51.504  51.896  19.905  1.00  0.00     0.029 C 
HETATM    4  C10 UNL     1      51.504  52.681  18.582  1.00  0.00     0.026 C 
HETATM    5  C11 UNL     1      50.133  53.150  18.319  1.00  0.00     0.036 C 
HETATM    6  C12 UNL     1      49.829  54.249  19.349  1.00  0.00     0.128 C 
HETATM    7  C13 UNL     1      49.042  52.118  18.467  1.00  0.00     0.101 C 
HETATM    8  C15 UNL     1      49.614  50.767  18.655  1.00  0.00     0.042 C 
HETATM    9  C16 UNL     1      49.556  49.873  17.433  1.00  0.00     0.053 C 
HETATM   10  C17 UNL     1      50.439  50.323  16.311  1.00  0.00     0.059 C 
HETATM   11  N1  UNL     1      51.583  51.047  16.669  1.00  0.00    -0.383 N 
HETATM   12  C20 UNL     1      51.875  51.352  17.975  1.00  0.00     0.123 C 
HETATM   13  C21 UNL     1      51.050  50.743  19.089  1.00  0.00     0.087 C 
ENDROOT
BRANCH   1  14
HETATM   14  C6  UNL     1      49.634  54.550  21.832  1.00  0.00     0.034 C 
BRANCH  14  15
HETATM   15  C5  UNL     1      49.744  56.004  21.895  1.00  0.00    -0.024 C 
HETATM   16  C3  UNL     1      48.963  56.972  21.548  1.00  0.00    -0.088 C 
HETATM   17  C4  UNL     1      49.539  58.382  21.830  1.00  0.00     0.043 C 
BRANCH  16  18
HETATM   18  C2  UNL     1      47.639  57.022  20.944  1.00  0.00     0.029 C 
HETATM   19  C1  UNL     1      46.912  58.295  20.849  1.00  0.00     0.010 C 
ENDBRANCH  16  18
ENDBRANCH  14  15
ENDBRANCH   1  14
BRANCH   6  20
HETATM   20  O1  UNL     1      50.215  55.467  18.798  1.00  0.00    -0.395 OA
ATOM     21  H1  UNL     1      49.933  55.580  17.898  1.00  0.00     0.210 HD
ENDBRANCH   6  20
BRANCH  13  22
HETATM   22  O5  UNL     1      51.446  49.482  19.481  1.00  0.00    -0.387 OA
ATOM     23  H5  UNL     1      50.900  48.747  19.228  1.00  0.00     0.210 HD
ENDBRANCH  13  22
BRANCH   7  24
HETATM   24  C14 UNL     1      48.077  52.255  17.347  1.00  0.00     0.177 C 
HETATM   25  O2  UNL     1      48.286  53.078  16.423  1.00  0.00    -0.648 OA
HETATM   26  O3  UNL     1      46.931  51.482  17.300  1.00  0.00    -0.648 OA
ENDBRANCH   7  24
BRANCH  11  27
HETATM   27  C18 UNL     1      52.750  50.681  15.861  1.00  0.00     0.148 C 
BRANCH  27  28
HETATM   28  C19 UNL     1      52.425  50.481  14.419  1.00  0.00     0.183 C 
BRANCH  28  29
HETATM   29  O4  UNL     1      52.998  51.532  13.689  1.00  0.00    -0.399 OA
ATOM     30  H4  UNL     1      53.084  51.255  12.785  1.00  0.00     0.209 HD
ENDBRANCH  28  29
ENDBRANCH  27  28
ENDBRANCH  11  27
TORSDOF 9
ENDMDL
