MODEL 1
REMARK VINA RESULT: -8.640459890      0.000      0.000
REMARK  11 active torsions:
REMARK  status: ('A' for Active; 'I' for Inactive)
REMARK    1  A    between atoms: C2_2  and  C3_3 
REMARK    2  A    between atoms: C2_2  and  C12_14 
REMARK    3  A    between atoms: C5_5  and  C6_6 
REMARK    4  A    between atoms: C6_6  and  O1_7 
REMARK    5  A    between atoms: C6_6  and  C7_9 
REMARK    6  A    between atoms: C7_9  and  C9_11 
REMARK    7  A    between atoms: C15_17  and  O2_18 
REMARK    8  A    between atoms: C16_20  and  O3_21 
REMARK    9  A    between atoms: C16_20  and  C17_23 
REMARK   10  A    between atoms: C17_23  and  O4_24 
REMARK   11  A    between atoms: C21_29  and  O5_30 
ROOT
HETATM    1  C12 UNL     1      51.796  51.975  19.741  1.00  0.00     0.077 A 
HETATM    2  C13 UNL     1      50.815  53.012  20.172  1.00  0.00    -0.064 A 
HETATM    3  C14 UNL     1      49.942  53.362  21.080  1.00  0.00     0.011 C 
HETATM    4  C15 UNL     1      49.056  54.545  21.247  1.00  0.00     0.177 C 
HETATM    5  C16 UNL     1      49.868  55.747  20.785  1.00  0.00     0.108 C 
HETATM    6  C18 UNL     1      51.339  55.489  20.735  1.00  0.00     0.044 C 
HETATM    7  C19 UNL     1      51.838  55.063  19.359  1.00  0.00     0.015 C 
HETATM    8  C20 UNL     1      51.203  53.784  18.931  1.00  0.00     0.045 A 
HETATM    9  C21 UNL     1      52.092  52.667  18.478  1.00  0.00     0.139 A 
ENDROOT
BRANCH   1  10
HETATM   10  C2  UNL     1      51.489  50.578  19.882  1.00  0.00    -0.051 C 
HETATM   11  C1  UNL     1      52.649  49.841  20.067  1.00  0.00     0.020 C 
BRANCH  10  12
HETATM   12  C3  UNL     1      50.315  49.770  19.904  1.00  0.00    -0.057 C 
HETATM   13  C4  UNL     1      50.112  48.814  21.110  1.00  0.00     0.048 C 
HETATM   14  C5  UNL     1      49.319  49.649  19.086  1.00  0.00     0.012 C 
BRANCH  14  15
HETATM   15  C6  UNL     1      48.848  50.174  17.835  1.00  0.00     0.145 C 
BRANCH  15  16
HETATM   16  O1  UNL     1      49.908  49.912  16.895  1.00  0.00    -0.391 OA
ATOM     17  H1  UNL     1      49.844  50.607  16.251  1.00  0.00     0.210 HD
ENDBRANCH  15  16
BRANCH  15  18
HETATM   18  C7  UNL     1      47.663  49.459  17.236  1.00  0.00     0.017 C 
HETATM   19  C8  UNL     1      46.397  50.227  17.265  1.00  0.00     0.013 C 
BRANCH  18  20
HETATM   20  C9  UNL     1      47.464  48.140  17.939  1.00  0.00    -0.016 C 
HETATM   21  C10 UNL     1      47.725  47.016  16.930  1.00  0.00     0.010 C 
HETATM   22  C11 UNL     1      46.069  47.930  18.468  1.00  0.00     0.010 C 
ENDBRANCH  18  20
ENDBRANCH  15  18
ENDBRANCH  14  15
ENDBRANCH  10  12
ENDBRANCH   1  10
BRANCH   9  23
HETATM   23  O5  UNL     1      51.898  52.088  17.265  1.00  0.00    -0.394 OA
ATOM     24  H5  UNL     1      52.367  52.363  16.486  1.00  0.00     0.210 HD
ENDBRANCH   9  23
BRANCH   4  25
HETATM   25  O2  UNL     1      47.884  54.374  20.561  1.00  0.00    -0.389 OA
ATOM     26  H2  UNL     1      47.144  54.663  21.081  1.00  0.00     0.210 HD
ENDBRANCH   4  25
BRANCH   5  27
HETATM   27  O3  UNL     1      49.378  56.190  19.567  1.00  0.00    -0.385 OA
ATOM     28  H3  UNL     1      49.082  57.089  19.656  1.00  0.00     0.210 HD
ENDBRANCH   5  27
BRANCH   5  29
HETATM   29  C17 UNL     1      49.655  56.882  21.797  1.00  0.00     0.204 C 
BRANCH  29  30
HETATM   30  O4  UNL     1      50.831  57.519  22.121  1.00  0.00    -0.398 OA
ATOM     31  H4  UNL     1      51.053  57.420  23.039  1.00  0.00     0.209 HD
ENDBRANCH  29  30
ENDBRANCH   5  29
TORSDOF 11
ENDMDL
MODEL 2
REMARK VINA RESULT: -8.310092055      0.500      1.138
REMARK  11 active torsions:
REMARK  status: ('A' for Active; 'I' for Inactive)
REMARK    1  A    between atoms: C2_2  and  C3_3 
REMARK    2  A    between atoms: C2_2  and  C12_14 
REMARK    3  A    between atoms: C5_5  and  C6_6 
REMARK    4  A    between atoms: C6_6  and  O1_7 
REMARK    5  A    between atoms: C6_6  and  C7_9 
REMARK    6  A    between atoms: C7_9  and  C9_11 
REMARK    7  A    between atoms: C15_17  and  O2_18 
REMARK    8  A    between atoms: C16_20  and  O3_21 
REMARK    9  A    between atoms: C16_20  and  C17_23 
REMARK   10  A    between atoms: C17_23  and  O4_24 
REMARK   11  A    between atoms: C21_29  and  O5_30 
ROOT
HETATM    1  C12 UNL     1      51.739  51.886  19.724  1.00  0.00     0.077 A 
HETATM    2  C13 UNL     1      50.771  52.916  20.199  1.00  0.00    -0.064 A 
HETATM    3  C14 UNL     1      49.956  53.272  21.156  1.00  0.00     0.011 C 
HETATM    4  C15 UNL     1      49.062  54.444  21.359  1.00  0.00     0.177 C 
HETATM    5  C16 UNL     1      49.820  55.649  20.817  1.00  0.00     0.108 C 
HETATM    6  C18 UNL     1      51.288  55.413  20.672  1.00  0.00     0.044 C 
HETATM    7  C19 UNL     1      51.700  54.966  19.275  1.00  0.00     0.015 C 
HETATM    8  C20 UNL     1      51.060  53.667  18.918  1.00  0.00     0.045 A 
HETATM    9  C21 UNL     1      51.937  52.554  18.429  1.00  0.00     0.139 A 
ENDROOT
BRANCH   1  10
HETATM   10  C2  UNL     1      51.467  50.487  19.915  1.00  0.00    -0.051 C 
HETATM   11  C1  UNL     1      52.642  49.752  19.867  1.00  0.00     0.020 C 
BRANCH  10  12
HETATM   12  C3  UNL     1      50.321  49.677  20.160  1.00  0.00    -0.057 C 
HETATM   13  C4  UNL     1      50.218  48.957  21.532  1.00  0.00     0.048 C 
HETATM   14  C5  UNL     1      49.281  49.389  19.445  1.00  0.00     0.012 C 
BRANCH  14  15
HETATM   15  C6  UNL     1      48.720  49.665  18.152  1.00  0.00     0.145 C 
BRANCH  15  16
HETATM   16  O1  UNL     1      49.829  49.583  17.236  1.00  0.00    -0.391 OA
ATOM     17  H1  UNL     1      49.544  50.051  16.460  1.00  0.00     0.210 HD
ENDBRANCH  15  16
BRANCH  15  18
HETATM   18  C7  UNL     1      47.755  48.632  17.628  1.00  0.00     0.017 C 
HETATM   19  C8  UNL     1      48.319  47.719  16.608  1.00  0.00     0.013 C 
BRANCH  18  20
HETATM   20  C9  UNL     1      46.538  49.320  17.065  1.00  0.00    -0.016 C 
HETATM   21  C10 UNL     1      46.729  50.833  17.221  1.00  0.00     0.010 C 
HETATM   22  C11 UNL     1      45.253  48.973  17.772  1.00  0.00     0.010 C 
ENDBRANCH  18  20
ENDBRANCH  15  18
ENDBRANCH  14  15
ENDBRANCH  10  12
ENDBRANCH   1  10
BRANCH   9  23
HETATM   23  O5  UNL     1      51.671  51.946  17.245  1.00  0.00    -0.394 OA
ATOM     24  H5  UNL     1      51.010  52.266  16.642  1.00  0.00     0.210 HD
ENDBRANCH   9  23
BRANCH   4  25
HETATM   25  O2  UNL     1      47.850  54.239  20.757  1.00  0.00    -0.389 OA
ATOM     26  H2  UNL     1      47.153  54.644  21.259  1.00  0.00     0.210 HD
ENDBRANCH   4  25
BRANCH   5  27
HETATM   27  O3  UNL     1      49.240  56.057  19.626  1.00  0.00    -0.385 OA
ATOM     28  H3  UNL     1      48.332  55.776  19.607  1.00  0.00     0.210 HD
ENDBRANCH   5  27
BRANCH   5  29
HETATM   29  C17 UNL     1      49.656  56.802  21.817  1.00  0.00     0.204 C 
BRANCH  29  30
HETATM   30  O4  UNL     1      50.853  57.413  22.108  1.00  0.00    -0.398 OA
ATOM     31  H4  UNL     1      50.965  58.230  21.635  1.00  0.00     0.209 HD
ENDBRANCH  29  30
ENDBRANCH   5  29
TORSDOF 11
ENDMDL
MODEL 3
REMARK VINA RESULT: -8.112880993      2.159      3.080
REMARK  11 active torsions:
REMARK  status: ('A' for Active; 'I' for Inactive)
REMARK    1  A    between atoms: C2_2  and  C3_3 
REMARK    2  A    between atoms: C2_2  and  C12_14 
REMARK    3  A    between atoms: C5_5  and  C6_6 
REMARK    4  A    between atoms: C6_6  and  O1_7 
REMARK    5  A    between atoms: C6_6  and  C7_9 
REMARK    6  A    between atoms: C7_9  and  C9_11 
REMARK    7  A    between atoms: C15_17  and  O2_18 
REMARK    8  A    between atoms: C16_20  and  O3_21 
REMARK    9  A    between atoms: C16_20  and  C17_23 
REMARK   10  A    between atoms: C17_23  and  O4_24 
REMARK   11  A    between atoms: C21_29  and  O5_30 
ROOT
HETATM    1  C12 UNL     1      49.717  52.965  19.773  1.00  0.00     0.077 A 
HETATM    2  C13 UNL     1      50.459  54.243  19.963  1.00  0.00    -0.064 A 
HETATM    3  C14 UNL     1      50.787  55.391  19.431  1.00  0.00     0.011 C 
HETATM    4  C15 UNL     1      51.600  56.545  19.903  1.00  0.00     0.177 C 
HETATM    5  C16 UNL     1      51.281  56.705  21.383  1.00  0.00     0.108 C 
HETATM    6  C18 UNL     1      50.018  56.022  21.798  1.00  0.00     0.044 C 
HETATM    7  C19 UNL     1      50.237  54.621  22.356  1.00  0.00     0.015 C 
HETATM    8  C20 UNL     1      50.846  53.725  21.331  1.00  0.00     0.045 A 
HETATM    9  C21 UNL     1      50.183  52.411  21.053  1.00  0.00     0.139 A 
ENDROOT
BRANCH   1  10
HETATM   10  C2  UNL     1      49.743  52.287  18.505  1.00  0.00    -0.051 C 
HETATM   11  C1  UNL     1      51.047  52.153  18.052  1.00  0.00     0.020 C 
BRANCH  10  12
HETATM   12  C3  UNL     1      48.790  51.707  17.619  1.00  0.00    -0.057 C 
HETATM   13  C4  UNL     1      47.895  52.663  16.784  1.00  0.00     0.048 C 
HETATM   14  C5  UNL     1      48.485  50.480  17.340  1.00  0.00     0.012 C 
BRANCH  14  15
HETATM   15  C6  UNL     1      48.861  49.141  17.697  1.00  0.00     0.145 C 
BRANCH  15  16
HETATM   16  O1  UNL     1      49.239  49.215  19.085  1.00  0.00    -0.391 OA
ATOM     17  H1  UNL     1      48.447  49.470  19.544  1.00  0.00     0.210 HD
ENDBRANCH  15  16
BRANCH  15  18
HETATM   18  C7  UNL     1      47.742  48.129  17.692  1.00  0.00     0.017 C 
HETATM   19  C8  UNL     1      48.033  46.889  16.937  1.00  0.00     0.013 C 
BRANCH  18  20
HETATM   20  C9  UNL     1      46.491  48.767  17.145  1.00  0.00    -0.016 C 
HETATM   21  C10 UNL     1      45.344  48.487  18.122  1.00  0.00     0.010 C 
HETATM   22  C11 UNL     1      46.059  48.224  15.807  1.00  0.00     0.010 C 
ENDBRANCH  18  20
ENDBRANCH  15  18
ENDBRANCH  14  15
ENDBRANCH  10  12
ENDBRANCH   1  10
BRANCH   9  23
HETATM   23  O5  UNL     1      50.895  51.257  21.133  1.00  0.00    -0.394 OA
ATOM     24  H5  UNL     1      51.821  51.241  21.342  1.00  0.00     0.210 HD
ENDBRANCH   9  23
BRANCH   4  25
HETATM   25  O2  UNL     1      52.928  56.340  19.644  1.00  0.00    -0.389 OA
ATOM     26  H2  UNL     1      53.441  56.414  20.439  1.00  0.00     0.210 HD
ENDBRANCH   4  25
BRANCH   5  27
HETATM   27  O3  UNL     1      52.368  56.287  22.134  1.00  0.00    -0.385 OA
ATOM     28  H3  UNL     1      53.050  56.947  22.093  1.00  0.00     0.210 HD
ENDBRANCH   5  27
BRANCH   5  29
HETATM   29  C17 UNL     1      51.085  58.202  21.667  1.00  0.00     0.204 C 
BRANCH  29  30
HETATM   30  O4  UNL     1      52.268  58.900  21.617  1.00  0.00    -0.398 OA
ATOM     31  H4  UNL     1      52.156  59.816  21.846  1.00  0.00     0.209 HD
ENDBRANCH  29  30
ENDBRANCH   5  29
TORSDOF 11
ENDMDL
MODEL 4
REMARK VINA RESULT: -7.950148827      2.027      3.174
REMARK  11 active torsions:
REMARK  status: ('A' for Active; 'I' for Inactive)
REMARK    1  A    between atoms: C2_2  and  C3_3 
REMARK    2  A    between atoms: C2_2  and  C12_14 
REMARK    3  A    between atoms: C5_5  and  C6_6 
REMARK    4  A    between atoms: C6_6  and  O1_7 
REMARK    5  A    between atoms: C6_6  and  C7_9 
REMARK    6  A    between atoms: C7_9  and  C9_11 
REMARK    7  A    between atoms: C15_17  and  O2_18 
REMARK    8  A    between atoms: C16_20  and  O3_21 
REMARK    9  A    between atoms: C16_20  and  C17_23 
REMARK   10  A    between atoms: C17_23  and  O4_24 
REMARK   11  A    between atoms: C21_29  and  O5_30 
ROOT
HETATM    1  C12 UNL     1      49.652  53.504  19.865  1.00  0.00     0.077 A 
HETATM    2  C13 UNL     1      50.593  54.646  20.046  1.00  0.00    -0.064 A 
HETATM    3  C14 UNL     1      51.181  55.663  19.471  1.00  0.00     0.011 C 
HETATM    4  C15 UNL     1      52.137  56.698  19.949  1.00  0.00     0.177 C 
HETATM    5  C16 UNL     1      51.698  57.055  21.363  1.00  0.00     0.108 C 
HETATM    6  C18 UNL     1      50.295  56.644  21.673  1.00  0.00     0.044 C 
HETATM    7  C19 UNL     1      50.193  55.287  22.358  1.00  0.00     0.015 C 
HETATM    8  C20 UNL     1      50.731  54.204  21.486  1.00  0.00     0.045 A 
HETATM    9  C21 UNL     1      49.871  53.004  21.231  1.00  0.00     0.139 A 
ENDROOT
BRANCH   1  10
HETATM   10  C2  UNL     1      49.687  52.713  18.665  1.00  0.00    -0.051 C 
HETATM   11  C1  UNL     1      48.673  53.095  17.801  1.00  0.00     0.020 C 
BRANCH  10  12
HETATM   12  C3  UNL     1      50.499  51.669  18.135  1.00  0.00    -0.057 C 
HETATM   13  C4  UNL     1      52.021  51.703  18.441  1.00  0.00     0.048 C 
HETATM   14  C5  UNL     1      50.231  50.633  17.406  1.00  0.00     0.012 C 
BRANCH  14  15
HETATM   15  C6  UNL     1      49.114  49.989  16.773  1.00  0.00     0.145 C 
BRANCH  15  16
HETATM   16  O1  UNL     1      49.667  49.332  15.616  1.00  0.00    -0.391 OA
ATOM     17  H1  UNL     1      48.998  48.718  15.337  1.00  0.00     0.210 HD
ENDBRANCH  15  16
BRANCH  15  18
HETATM   18  C7  UNL     1      48.488  48.860  17.552  1.00  0.00     0.017 C 
HETATM   19  C8  UNL     1      48.259  47.622  16.771  1.00  0.00     0.013 C 
BRANCH  18  20
HETATM   20  C9  UNL     1      47.184  49.324  18.147  1.00  0.00    -0.016 C 
HETATM   21  C10 UNL     1      46.331  48.088  18.456  1.00  0.00     0.010 C 
HETATM   22  C11 UNL     1      46.364  50.194  17.230  1.00  0.00     0.010 C 
ENDBRANCH  18  20
ENDBRANCH  15  18
ENDBRANCH  14  15
ENDBRANCH  10  12
ENDBRANCH   1  10
BRANCH   9  23
HETATM   23  O5  UNL     1      50.346  51.758  21.485  1.00  0.00    -0.394 OA
ATOM     24  H5  UNL     1      50.850  51.552  22.264  1.00  0.00     0.210 HD
ENDBRANCH   9  23
BRANCH   4  25
HETATM   25  O2  UNL     1      53.425  56.242  19.869  1.00  0.00    -0.389 OA
ATOM     26  H2  UNL     1      53.542  55.470  20.410  1.00  0.00     0.210 HD
ENDBRANCH   4  25
BRANCH   5  27
HETATM   27  O3  UNL     1      52.604  56.529  22.270  1.00  0.00    -0.385 OA
ATOM     28  H3  UNL     1      52.389  55.619  22.437  1.00  0.00     0.210 HD
ENDBRANCH   5  27
BRANCH   5  29
HETATM   29  C17 UNL     1      51.751  58.583  21.506  1.00  0.00     0.204 C 
BRANCH  29  30
HETATM   30  O4  UNL     1      52.983  59.023  21.930  1.00  0.00    -0.398 OA
ATOM     31  H4  UNL     1      53.685  58.438  21.668  1.00  0.00     0.209 HD
ENDBRANCH  29  30
ENDBRANCH   5  29
TORSDOF 11
ENDMDL
MODEL 5
REMARK VINA RESULT: -7.843380848      2.019      7.377
REMARK  11 active torsions:
REMARK  status: ('A' for Active; 'I' for Inactive)
REMARK    1  A    between atoms: C2_2  and  C3_3 
REMARK    2  A    between atoms: C2_2  and  C12_14 
REMARK    3  A    between atoms: C5_5  and  C6_6 
REMARK    4  A    between atoms: C6_6  and  O1_7 
REMARK    5  A    between atoms: C6_6  and  C7_9 
REMARK    6  A    between atoms: C7_9  and  C9_11 
REMARK    7  A    between atoms: C15_17  and  O2_18 
REMARK    8  A    between atoms: C16_20  and  O3_21 
REMARK    9  A    between atoms: C16_20  and  C17_23 
REMARK   10  A    between atoms: C17_23  and  O4_24 
REMARK   11  A    between atoms: C21_29  and  O5_30 
ROOT
HETATM    1  C12 UNL     1      48.630  53.590  19.131  1.00  0.00     0.077 A 
HETATM    2  C13 UNL     1      48.929  52.387  18.304  1.00  0.00    -0.064 A 
HETATM    3  C14 UNL     1      49.460  51.192  18.288  1.00  0.00     0.011 C 
HETATM    4  C15 UNL     1      49.617  50.155  17.233  1.00  0.00     0.177 C 
HETATM    5  C16 UNL     1      48.330  50.188  16.418  1.00  0.00     0.108 C 
HETATM    6  C18 UNL     1      47.197  50.863  17.120  1.00  0.00     0.044 C 
HETATM    7  C19 UNL     1      47.049  52.336  16.763  1.00  0.00     0.015 C 
HETATM    8  C20 UNL     1      48.264  53.108  17.153  1.00  0.00     0.045 A 
HETATM    9  C21 UNL     1      48.085  54.338  17.989  1.00  0.00     0.139 A 
ENDROOT
BRANCH   1  10
HETATM   10  C2  UNL     1      49.595  54.085  20.076  1.00  0.00    -0.051 C 
HETATM   11  C1  UNL     1      49.253  53.705  21.365  1.00  0.00     0.020 C 
BRANCH  10  12
HETATM   12  C3  UNL     1      50.806  54.834  20.026  1.00  0.00    -0.057 C 
HETATM   13  C4  UNL     1      51.918  54.356  19.052  1.00  0.00     0.048 C 
HETATM   14  C5  UNL     1      51.211  55.890  20.654  1.00  0.00     0.012 C 
BRANCH  14  15
HETATM   15  C6  UNL     1      50.759  56.825  21.646  1.00  0.00     0.145 C 
BRANCH  15  16
HETATM   16  O1  UNL     1      51.956  57.457  22.140  1.00  0.00    -0.391 OA
ATOM     17  H1  UNL     1      51.665  58.013  22.854  1.00  0.00     0.210 HD
ENDBRANCH  15  16
BRANCH  15  18
HETATM   18  C7  UNL     1      49.943  57.981  21.124  1.00  0.00     0.017 C 
HETATM   19  C8  UNL     1      49.385  58.867  22.171  1.00  0.00     0.013 C 
BRANCH  18  20
HETATM   20  C9  UNL     1      48.821  57.456  20.264  1.00  0.00    -0.016 C 
HETATM   21  C10 UNL     1      48.401  58.567  19.295  1.00  0.00     0.010 C 
HETATM   22  C11 UNL     1      47.586  57.066  21.034  1.00  0.00     0.010 C 
ENDBRANCH  18  20
ENDBRANCH  15  18
ENDBRANCH  14  15
ENDBRANCH  10  12
ENDBRANCH   1  10
BRANCH   9  23
HETATM   23  O5  UNL     1      48.604  55.524  17.578  1.00  0.00    -0.394 OA
ATOM     24  H5  UNL     1      49.519  55.628  17.345  1.00  0.00     0.210 HD
ENDBRANCH   9  23
BRANCH   4  25
HETATM   25  O2  UNL     1      50.745  50.383  16.492  1.00  0.00    -0.389 OA
ATOM     26  H2  UNL     1      51.205  49.570  16.322  1.00  0.00     0.210 HD
ENDBRANCH   4  25
BRANCH   5  27
HETATM   27  O3  UNL     1      48.587  50.756  15.181  1.00  0.00    -0.385 OA
ATOM     28  H3  UNL     1      47.845  51.291  14.921  1.00  0.00     0.210 HD
ENDBRANCH   5  27
BRANCH   5  29
HETATM   29  C17 UNL     1      47.891  48.738  16.166  1.00  0.00     0.204 C 
BRANCH  29  30
HETATM   30  O4  UNL     1      48.845  47.829  16.560  1.00  0.00    -0.398 OA
ATOM     31  H4  UNL     1      49.498  47.678  15.886  1.00  0.00     0.209 HD
ENDBRANCH  29  30
ENDBRANCH   5  29
TORSDOF 11
ENDMDL
