MODEL 1
REMARK VINA RESULT: -8.366683573      0.000      0.000
REMARK  6 active torsions:
REMARK  status: ('A' for Active; 'I' for Inactive)
REMARK    1  A    between atoms: C5_8  and  C6_9 
REMARK    2  A    between atoms: C6_9  and  C7_10 
REMARK    3  A    between atoms: C7_10  and  C8_11 
REMARK    4  A    between atoms: C12_17  and  C13_18 
REMARK    5  A    between atoms: C13_18  and  O2_19 
REMARK    6  A    between atoms: C13_18  and  C14_21 
ROOT
HETATM    1  O1  UNL     1      51.303  54.593  22.716  1.00  0.00    -0.270 OA
HETATM    2  C1  UNL     1      50.895  55.534  22.009  1.00  0.00     0.259 C 
HETATM    3  N1  UNL     1      51.383  56.844  22.151  1.00  0.00    -0.354 N 
ATOM      4  H1  UNL     1      52.158  57.037  22.786  1.00  0.00     0.162 HD
HETATM    5  C2  UNL     1      50.785  57.911  21.397  1.00  0.00     0.163 C 
HETATM    6  C3  UNL     1      49.326  57.673  21.157  1.00  0.00    -0.012 A 
HETATM    7  C4  UNL     1      48.209  58.475  21.075  1.00  0.00     0.035 A 
HETATM    8  C5  UNL     1      47.104  57.719  20.833  1.00  0.00     0.010 A 
HETATM    9  N3  UNL     1      47.550  56.425  20.763  1.00  0.00    -0.360 N 
ATOM     10  H3  UNL     1      46.961  55.611  20.590  1.00  0.00     0.165 HD
HETATM   11  C15 UNL     1      48.871  56.391  20.955  1.00  0.00     0.062 A 
HETATM   12  C16 UNL     1      49.865  55.267  20.987  1.00  0.00     0.183 C 
HETATM   13  C17 UNL     1      49.212  53.937  21.222  1.00  0.00     0.057 C 
HETATM   14  C18 UNL     1      49.566  53.160  19.979  1.00  0.00     0.030 C 
HETATM   15  C19 UNL     1      49.859  54.264  18.995  1.00  0.00     0.170 C 
HETATM   16  O3  UNL     1      50.510  55.203  19.757  1.00  0.00    -0.364 OA
ENDROOT
BRANCH   8  17
HETATM   17  C6  UNL     1      45.668  58.054  20.678  1.00  0.00     0.057 C 
BRANCH  17  18
HETATM   18  C7  UNL     1      45.267  58.517  19.348  1.00  0.00     0.013 C 
BRANCH  18  19
HETATM   19  C8  UNL     1      45.822  59.771  18.812  1.00  0.00     0.011 C 
HETATM   20  C9  UNL     1      45.073  61.016  19.205  1.00  0.00     0.008 C 
HETATM   21  C10 UNL     1      45.987  62.187  18.859  1.00  0.00     0.020 C 
HETATM   22  C11 UNL     1      46.182  62.136  17.355  1.00  0.00     0.114 C 
HETATM   23  N2  UNL     1      45.490  61.038  16.759  1.00  0.00    -0.414 N 
HETATM   24  C12 UNL     1      45.829  59.754  17.282  1.00  0.00     0.110 C 
ATOM     25  H2  UNL     1      44.805  61.161  16.014  1.00  0.00     0.153 HD
BRANCH  24  26
HETATM   26  C13 UNL     1      47.166  59.295  16.746  1.00  0.00     0.151 C 
BRANCH  26  27
HETATM   27  O2  UNL     1      48.123  59.178  17.724  1.00  0.00    -0.393 OA
ATOM     28  H2  UNL     1      48.502  60.012  17.973  1.00  0.00     0.210 HD
ENDBRANCH  26  27
BRANCH  26  29
HETATM   29  C14 UNL     1      46.942  57.940  16.108  1.00  0.00     0.120 C 
HETATM   30  S1  UNL     1      47.993  56.750  17.019  1.00  0.00    -0.095 SA
ENDBRANCH  26  29
ENDBRANCH  24  26
ENDBRANCH  18  19
ENDBRANCH  17  18
ENDBRANCH   8  17
TORSDOF 6
ENDMDL
MODEL 2
REMARK VINA RESULT: -8.133266567      2.451      3.117
REMARK  6 active torsions:
REMARK  status: ('A' for Active; 'I' for Inactive)
REMARK    1  A    between atoms: C5_8  and  C6_9 
REMARK    2  A    between atoms: C6_9  and  C7_10 
REMARK    3  A    between atoms: C7_10  and  C8_11 
REMARK    4  A    between atoms: C12_17  and  C13_18 
REMARK    5  A    between atoms: C13_18  and  O2_19 
REMARK    6  A    between atoms: C13_18  and  C14_21 
ROOT
HETATM    1  O1  UNL     1      51.313  54.600  22.669  1.00  0.00    -0.270 OA
HETATM    2  C1  UNL     1      50.872  55.538  21.978  1.00  0.00     0.259 C 
HETATM    3  N1  UNL     1      51.304  56.864  22.150  1.00  0.00    -0.354 N 
ATOM      4  H1  UNL     1      52.066  57.075  22.795  1.00  0.00     0.162 HD
HETATM    5  C2  UNL     1      50.669  57.921  21.413  1.00  0.00     0.163 C 
HETATM    6  C3  UNL     1      49.222  57.627  21.157  1.00  0.00    -0.012 A 
HETATM    7  C4  UNL     1      48.074  58.384  21.082  1.00  0.00     0.035 A 
HETATM    8  C5  UNL     1      47.002  57.588  20.817  1.00  0.00     0.010 A 
HETATM    9  N3  UNL     1      47.502  56.316  20.725  1.00  0.00    -0.360 N 
ATOM     10  H3  UNL     1      46.948  55.481  20.531  1.00  0.00     0.165 HD
HETATM   11  C15 UNL     1      48.821  56.332  20.926  1.00  0.00     0.062 A 
HETATM   12  C16 UNL     1      49.861  55.250  20.943  1.00  0.00     0.183 C 
HETATM   13  C17 UNL     1      49.262  53.889  21.147  1.00  0.00     0.057 C 
HETATM   14  C18 UNL     1      49.656  53.153  19.891  1.00  0.00     0.030 C 
HETATM   15  C19 UNL     1      49.911  54.288  18.932  1.00  0.00     0.170 C 
HETATM   16  O3  UNL     1      50.517  55.237  19.717  1.00  0.00    -0.364 OA
ENDROOT
BRANCH   8  17
HETATM   17  C6  UNL     1      45.555  57.867  20.657  1.00  0.00     0.057 C 
BRANCH  17  18
HETATM   18  C7  UNL     1      45.221  58.988  19.776  1.00  0.00     0.013 C 
BRANCH  18  19
HETATM   19  C8  UNL     1      44.463  58.744  18.538  1.00  0.00     0.011 C 
HETATM   20  C9  UNL     1      45.305  58.545  17.306  1.00  0.00     0.008 C 
HETATM   21  C10 UNL     1      44.374  57.969  16.245  1.00  0.00     0.020 C 
HETATM   22  C11 UNL     1      43.314  59.026  15.998  1.00  0.00     0.114 C 
HETATM   23  N2  UNL     1      43.501  60.179  16.821  1.00  0.00    -0.414 N 
HETATM   24  C12 UNL     1      43.537  59.921  18.225  1.00  0.00     0.110 C 
ATOM     25  H2  UNL     1      43.601  61.117  16.435  1.00  0.00     0.153 HD
BRANCH  24  26
HETATM   26  C13 UNL     1      42.144  59.678  18.758  1.00  0.00     0.151 C 
BRANCH  26  27
HETATM   27  O2  UNL     1      42.140  59.047  19.978  1.00  0.00    -0.393 OA
ATOM     28  H2  UNL     1      42.057  59.650  20.707  1.00  0.00     0.210 HD
ENDBRANCH  26  27
BRANCH  26  29
HETATM   29  C14 UNL     1      41.486  61.035  18.901  1.00  0.00     0.120 C 
HETATM   30  S1  UNL     1      42.719  62.138  19.684  1.00  0.00    -0.095 SA
ENDBRANCH  26  29
ENDBRANCH  24  26
ENDBRANCH  18  19
ENDBRANCH  17  18
ENDBRANCH   8  17
TORSDOF 6
ENDMDL
MODEL 3
REMARK VINA RESULT: -8.054014235      3.595      6.124
REMARK  6 active torsions:
REMARK  status: ('A' for Active; 'I' for Inactive)
REMARK    1  A    between atoms: C5_8  and  C6_9 
REMARK    2  A    between atoms: C6_9  and  C7_10 
REMARK    3  A    between atoms: C7_10  and  C8_11 
REMARK    4  A    between atoms: C12_17  and  C13_18 
REMARK    5  A    between atoms: C13_18  and  O2_19 
REMARK    6  A    between atoms: C13_18  and  C14_21 
ROOT
HETATM    1  O1  UNL     1      49.092  49.506  16.513  1.00  0.00    -0.270 OA
HETATM    2  C1  UNL     1      49.690  50.512  16.937  1.00  0.00     0.259 C 
HETATM    3  N1  UNL     1      51.092  50.612  16.923  1.00  0.00    -0.354 N 
ATOM      4  H1  UNL     1      51.653  49.888  16.475  1.00  0.00     0.162 HD
HETATM    5  C2  UNL     1      51.731  51.740  17.542  1.00  0.00     0.163 C 
HETATM    6  C3  UNL     1      50.952  52.245  18.717  1.00  0.00    -0.012 A 
HETATM    7  C4  UNL     1      51.278  52.796  19.936  1.00  0.00     0.035 A 
HETATM    8  C5  UNL     1      50.149  53.082  20.641  1.00  0.00     0.010 A 
HETATM    9  N3  UNL     1      49.107  52.699  19.837  1.00  0.00    -0.360 N 
ATOM     10  H3  UNL     1      48.119  52.784  20.078  1.00  0.00     0.165 HD
HETATM   11  C15 UNL     1      49.577  52.200  18.692  1.00  0.00     0.062 A 
HETATM   12  C16 UNL     1      48.904  51.639  17.474  1.00  0.00     0.183 C 
HETATM   13  C17 UNL     1      47.490  51.220  17.749  1.00  0.00     0.057 C 
HETATM   14  C18 UNL     1      46.689  52.093  16.816  1.00  0.00     0.030 C 
HETATM   15  C19 UNL     1      47.639  53.237  16.568  1.00  0.00     0.170 C 
HETATM   16  O3  UNL     1      48.864  52.621  16.490  1.00  0.00    -0.364 OA
ENDROOT
BRANCH   8  17
HETATM   17  C6  UNL     1      49.920  53.653  21.990  1.00  0.00     0.057 C 
BRANCH  17  18
HETATM   18  C7  UNL     1      50.453  55.000  22.204  1.00  0.00     0.013 C 
BRANCH  18  19
HETATM   19  C8  UNL     1      49.757  56.162  21.627  1.00  0.00     0.011 C 
HETATM   20  C9  UNL     1      48.321  55.919  21.247  1.00  0.00     0.008 C 
HETATM   21  C10 UNL     1      47.705  57.295  21.016  1.00  0.00     0.020 C 
HETATM   22  C11 UNL     1      48.466  57.904  19.853  1.00  0.00     0.114 C 
HETATM   23  N2  UNL     1      49.495  57.039  19.370  1.00  0.00    -0.414 N 
HETATM   24  C12 UNL     1      50.452  56.633  20.348  1.00  0.00     0.110 C 
ATOM     25  H2  UNL     1      49.543  56.734  18.398  1.00  0.00     0.153 HD
BRANCH  24  26
HETATM   26  C13 UNL     1      51.428  57.751  20.635  1.00  0.00     0.151 C 
BRANCH  26  27
HETATM   27  O2  UNL     1      51.277  58.284  21.891  1.00  0.00    -0.393 OA
ATOM     28  H2  UNL     1      50.593  57.859  22.395  1.00  0.00     0.210 HD
ENDBRANCH  26  27
BRANCH  26  29
HETATM   29  C14 UNL     1      52.819  57.162  20.512  1.00  0.00     0.120 C 
HETATM   30  S1  UNL     1      53.781  57.784  21.940  1.00  0.00    -0.095 SA
ENDBRANCH  26  29
ENDBRANCH  24  26
ENDBRANCH  18  19
ENDBRANCH  17  18
ENDBRANCH   8  17
TORSDOF 6
ENDMDL
MODEL 4
REMARK VINA RESULT: -8.043371296      4.013      6.261
REMARK  6 active torsions:
REMARK  status: ('A' for Active; 'I' for Inactive)
REMARK    1  A    between atoms: C5_8  and  C6_9 
REMARK    2  A    between atoms: C6_9  and  C7_10 
REMARK    3  A    between atoms: C7_10  and  C8_11 
REMARK    4  A    between atoms: C12_17  and  C13_18 
REMARK    5  A    between atoms: C13_18  and  O2_19 
REMARK    6  A    between atoms: C13_18  and  C14_21 
ROOT
HETATM    1  O1  UNL     1      47.253  48.218  18.319  1.00  0.00    -0.270 OA
HETATM    2  C1  UNL     1      48.299  48.868  18.506  1.00  0.00     0.259 C 
HETATM    3  N1  UNL     1      49.223  48.528  19.510  1.00  0.00    -0.354 N 
ATOM      4  H1  UNL     1      49.096  47.675  20.056  1.00  0.00     0.162 HD
HETATM    5  C2  UNL     1      50.346  49.387  19.764  1.00  0.00     0.163 C 
HETATM    6  C3  UNL     1      50.018  50.824  19.497  1.00  0.00    -0.012 A 
HETATM    7  C4  UNL     1      50.383  52.026  20.062  1.00  0.00     0.035 A 
HETATM    8  C5  UNL     1      49.775  53.055  19.410  1.00  0.00     0.010 A 
HETATM    9  N3  UNL     1      49.023  52.474  18.424  1.00  0.00    -0.360 N 
ATOM     10  H3  UNL     1      48.443  52.980  17.754  1.00  0.00     0.165 HD
HETATM   11  C15 UNL     1      49.163  51.147  18.470  1.00  0.00     0.062 A 
HETATM   12  C16 UNL     1      48.582  50.034  17.648  1.00  0.00     0.183 C 
HETATM   13  C17 UNL     1      47.350  50.459  16.904  1.00  0.00     0.057 C 
HETATM   14  C18 UNL     1      47.739  50.257  15.461  1.00  0.00     0.030 C 
HETATM   15  C19 UNL     1      49.244  50.298  15.535  1.00  0.00     0.170 C 
HETATM   16  O3  UNL     1      49.522  49.634  16.704  1.00  0.00    -0.364 OA
ENDROOT
BRANCH   8  17
HETATM   17  C6  UNL     1      49.793  54.525  19.609  1.00  0.00     0.057 C 
BRANCH  17  18
HETATM   18  C7  UNL     1      49.178  55.002  20.849  1.00  0.00     0.013 C 
BRANCH  18  19
HETATM   19  C8  UNL     1      48.714  56.396  20.946  1.00  0.00     0.011 C 
HETATM   20  C9  UNL     1      47.290  56.622  20.512  1.00  0.00     0.008 C 
HETATM   21  C10 UNL     1      46.911  58.011  21.015  1.00  0.00     0.020 C 
HETATM   22  C11 UNL     1      47.842  58.981  20.309  1.00  0.00     0.114 C 
HETATM   23  N2  UNL     1      48.761  58.312  19.444  1.00  0.00    -0.414 N 
HETATM   24  C12 UNL     1      49.568  57.316  20.072  1.00  0.00     0.110 C 
ATOM     25  H2  UNL     1      48.835  58.531  18.451  1.00  0.00     0.153 HD
BRANCH  24  26
HETATM   26  C13 UNL     1      50.678  57.956  20.873  1.00  0.00     0.151 C 
BRANCH  26  27
HETATM   27  O2  UNL     1      50.465  57.895  22.228  1.00  0.00    -0.393 OA
ATOM     28  H2  UNL     1      51.248  57.668  22.717  1.00  0.00     0.210 HD
ENDBRANCH  26  27
BRANCH  26  29
HETATM   29  C14 UNL     1      51.951  57.206  20.537  1.00  0.00     0.120 C 
HETATM   30  S1  UNL     1      53.294  57.995  21.499  1.00  0.00    -0.095 SA
ENDBRANCH  26  29
ENDBRANCH  24  26
ENDBRANCH  18  19
ENDBRANCH  17  18
ENDBRANCH   8  17
TORSDOF 6
ENDMDL
MODEL 5
REMARK VINA RESULT: -7.945480576      2.375      7.283
REMARK  6 active torsions:
REMARK  status: ('A' for Active; 'I' for Inactive)
REMARK    1  A    between atoms: C5_8  and  C6_9 
REMARK    2  A    between atoms: C6_9  and  C7_10 
REMARK    3  A    between atoms: C7_10  and  C8_11 
REMARK    4  A    between atoms: C12_17  and  C13_18 
REMARK    5  A    between atoms: C13_18  and  O2_19 
REMARK    6  A    between atoms: C13_18  and  C14_21 
ROOT
HETATM    1  O1  UNL     1      43.950  62.809  19.678  1.00  0.00    -0.270 OA
HETATM    2  C1  UNL     1      43.968  61.575  19.513  1.00  0.00     0.259 C 
HETATM    3  N1  UNL     1      43.013  60.726  20.100  1.00  0.00    -0.354 N 
ATOM      4  H1  UNL     1      42.220  61.120  20.607  1.00  0.00     0.162 HD
HETATM    5  C2  UNL     1      43.158  59.302  19.981  1.00  0.00     0.163 C 
HETATM    6  C3  UNL     1      44.598  58.893  19.928  1.00  0.00    -0.012 A 
HETATM    7  C4  UNL     1      45.321  57.815  20.390  1.00  0.00     0.035 A 
HETATM    8  C5  UNL     1      46.633  57.952  20.057  1.00  0.00     0.010 A 
HETATM    9  N3  UNL     1      46.719  59.137  19.374  1.00  0.00    -0.360 N 
ATOM     10  H3  UNL     1      47.577  59.528  18.985  1.00  0.00     0.165 HD
HETATM   11  C15 UNL     1      45.513  59.702  19.295  1.00  0.00     0.062 A 
HETATM   12  C16 UNL     1      45.027  60.979  18.676  1.00  0.00     0.183 C 
HETATM   13  C17 UNL     1      46.140  61.959  18.447  1.00  0.00     0.057 C 
HETATM   14  C18 UNL     1      46.118  62.154  16.952  1.00  0.00     0.030 C 
HETATM   15  C19 UNL     1      45.428  60.899  16.484  1.00  0.00     0.170 C 
HETATM   16  O3  UNL     1      44.462  60.693  17.438  1.00  0.00    -0.364 OA
ENDROOT
BRANCH   8  17
HETATM   17  C6  UNL     1      47.831  57.116  20.315  1.00  0.00     0.057 C 
BRANCH  17  18
HETATM   18  C7  UNL     1      48.586  57.452  21.524  1.00  0.00     0.013 C 
BRANCH  18  19
HETATM   19  C8  UNL     1      50.055  57.353  21.521  1.00  0.00     0.011 C 
HETATM   20  C9  UNL     1      50.769  58.512  20.877  1.00  0.00     0.008 C 
HETATM   21  C10 UNL     1      52.232  58.388  21.287  1.00  0.00     0.020 C 
HETATM   22  C11 UNL     1      52.721  57.074  20.705  1.00  0.00     0.114 C 
HETATM   23  N2  UNL     1      51.690  56.380  20.000  1.00  0.00    -0.414 N 
HETATM   24  C12 UNL     1      50.514  56.107  20.762  1.00  0.00     0.110 C 
ATOM     25  H2  UNL     1      51.787  56.102  19.024  1.00  0.00     0.153 HD
BRANCH  24  26
HETATM   26  C13 UNL     1      50.748  54.948  21.703  1.00  0.00     0.151 C 
BRANCH  26  27
HETATM   27  O2  UNL     1      50.792  55.329  23.022  1.00  0.00    -0.393 OA
ATOM     28  H2  UNL     1      51.095  56.222  23.139  1.00  0.00     0.210 HD
ENDBRANCH  26  27
BRANCH  26  29
HETATM   29  C14 UNL     1      49.596  53.982  21.506  1.00  0.00     0.120 C 
HETATM   30  S1  UNL     1      50.315  52.437  20.840  1.00  0.00    -0.095 SA
ENDBRANCH  26  29
ENDBRANCH  24  26
ENDBRANCH  18  19
ENDBRANCH  17  18
ENDBRANCH   8  17
TORSDOF 6
ENDMDL
