MODEL 1
REMARK VINA RESULT: -7.047396168      0.000      0.000
REMARK  6 active torsions:
REMARK  status: ('A' for Active; 'I' for Inactive)
REMARK    1  A    between atoms: C2_2  and  C3_3 
REMARK    2  A    between atoms: C3_3  and  N1_4 
REMARK    3  A    between atoms: C7_8  and  C8_9 
REMARK    4  A    between atoms: C8_9  and  N2_10 
REMARK    5  A    between atoms: N2_10  and  C9_12 
REMARK    6  A    between atoms: C13_17  and  O2_18 
ROOT
HETATM    1  C8  UNL     1      47.758  49.685  18.079  1.00  0.00     0.062 C 
ENDROOT
BRANCH   1   2
HETATM    2  C7  UNL     1      46.923  48.416  18.054  1.00  0.00     0.052 C 
HETATM    3  C6  UNL     1      47.528  47.378  17.134  1.00  0.00     0.013 C 
HETATM    4  C5  UNL     1      46.674  46.158  17.172  1.00  0.00     0.031 C 
HETATM    5  C4  UNL     1      45.200  46.410  16.979  1.00  0.00     0.272 C 
HETATM    6  N1  UNL     1      44.741  47.571  17.713  1.00  0.00     0.089 N 
HETATM    7  C14 UNL     1      45.544  48.725  17.496  1.00  0.00     0.282 C 
BRANCH   6   8
HETATM    8  C3  UNL     1      44.447  47.298  19.076  1.00  0.00     0.272 C 
BRANCH   8   9
HETATM    9  C2  UNL     1      43.191  46.464  19.169  1.00  0.00     0.026 C 
HETATM   10  C1  UNL     1      43.056  46.081  20.643  1.00  0.00     0.007 C 
ENDBRANCH   8   9
ENDBRANCH   6   8
ENDBRANCH   1   2
BRANCH   1  11
HETATM   11  N2  UNL     1      49.087  49.389  17.715  1.00  0.00    -0.395 N 
ATOM     12  H2  UNL     1      49.288  48.889  16.849  1.00  0.00     0.159 HD
BRANCH  11  13
HETATM   13  C9  UNL     1      50.136  49.795  18.569  1.00  0.00     0.113 C 
HETATM   14  C10 UNL     1      49.958  49.382  20.015  1.00  0.00     0.054 C 
HETATM   15  C11 UNL     1      50.960  50.078  20.909  1.00  0.00     0.169 C 
HETATM   16  O1  UNL     1      51.877  50.824  20.169  1.00  0.00    -0.388 OA
HETATM   17  C12 UNL     1      51.161  51.853  19.561  1.00  0.00     0.201 C 
HETATM   18  C13 UNL     1      50.399  51.261  18.403  1.00  0.00     0.164 C 
BRANCH  18  19
HETATM   19  O2  UNL     1      51.119  51.479  17.222  1.00  0.00    -0.391 OA
ATOM     20  H2  UNL     1      51.114  52.405  17.011  1.00  0.00     0.210 HD
ENDBRANCH  18  19
ENDBRANCH  11  13
ENDBRANCH   1  11
TORSDOF 6
ENDMDL
MODEL 2
REMARK VINA RESULT: -6.866792224      1.606      3.074
REMARK  6 active torsions:
REMARK  status: ('A' for Active; 'I' for Inactive)
REMARK    1  A    between atoms: C2_2  and  C3_3 
REMARK    2  A    between atoms: C3_3  and  N1_4 
REMARK    3  A    between atoms: C7_8  and  C8_9 
REMARK    4  A    between atoms: C8_9  and  N2_10 
REMARK    5  A    between atoms: N2_10  and  C9_12 
REMARK    6  A    between atoms: C13_17  and  O2_18 
ROOT
HETATM    1  C8  UNL     1      47.862  48.441  18.843  1.00  0.00     0.062 C 
ENDROOT
BRANCH   1   2
HETATM    2  C7  UNL     1      46.671  48.311  17.909  1.00  0.00     0.052 C 
HETATM    3  C6  UNL     1      45.402  48.007  18.676  1.00  0.00     0.013 C 
HETATM    4  C5  UNL     1      44.276  47.912  17.705  1.00  0.00     0.031 C 
HETATM    5  C4  UNL     1      44.538  47.025  16.515  1.00  0.00     0.272 C 
HETATM    6  N1  UNL     1      45.870  47.208  15.977  1.00  0.00     0.089 N 
HETATM    7  C14 UNL     1      46.888  47.139  16.967  1.00  0.00     0.282 C 
BRANCH   6   8
HETATM    8  C3  UNL     1      45.976  48.314  15.091  1.00  0.00     0.272 C 
BRANCH   8   9
HETATM    9  C2  UNL     1      46.390  47.831  13.721  1.00  0.00     0.026 C 
HETATM   10  C1  UNL     1      47.790  48.399  13.486  1.00  0.00     0.007 C 
ENDBRANCH   8   9
ENDBRANCH   6   8
ENDBRANCH   1   2
BRANCH   1  11
HETATM   11  N2  UNL     1      48.965  48.965  18.139  1.00  0.00    -0.395 N 
ATOM     12  H2  UNL     1      48.983  48.949  17.119  1.00  0.00     0.159 HD
BRANCH  11  13
HETATM   13  C9  UNL     1      50.044  49.510  18.868  1.00  0.00     0.113 C 
HETATM   14  C10 UNL     1      49.897  49.410  20.372  1.00  0.00     0.054 C 
HETATM   15  C11 UNL     1      50.936  50.248  21.080  1.00  0.00     0.169 C 
HETATM   16  O1  UNL     1      51.849  50.802  20.182  1.00  0.00    -0.388 OA
HETATM   17  C12 UNL     1      51.139  51.702  19.390  1.00  0.00     0.201 C 
HETATM   18  C13 UNL     1      50.334  50.903  18.397  1.00  0.00     0.164 C 
BRANCH  18  19
HETATM   19  O2  UNL     1      51.026  50.854  17.181  1.00  0.00    -0.391 OA
ATOM     20  H2  UNL     1      50.418  50.977  16.461  1.00  0.00     0.210 HD
ENDBRANCH  18  19
ENDBRANCH  11  13
ENDBRANCH   1  11
TORSDOF 6
ENDMDL
MODEL 3
REMARK VINA RESULT: -6.753693922      1.413      1.605
REMARK  6 active torsions:
REMARK  status: ('A' for Active; 'I' for Inactive)
REMARK    1  A    between atoms: C2_2  and  C3_3 
REMARK    2  A    between atoms: C3_3  and  N1_4 
REMARK    3  A    between atoms: C7_8  and  C8_9 
REMARK    4  A    between atoms: C8_9  and  N2_10 
REMARK    5  A    between atoms: N2_10  and  C9_12 
REMARK    6  A    between atoms: C13_17  and  O2_18 
ROOT
HETATM    1  C8  UNL     1      47.977  49.158  17.446  1.00  0.00     0.062 C 
ENDROOT
BRANCH   1   2
HETATM    2  C7  UNL     1      46.792  48.209  17.392  1.00  0.00     0.052 C 
HETATM    3  C6  UNL     1      46.698  47.524  16.045  1.00  0.00     0.013 C 
HETATM    4  C5  UNL     1      45.531  46.598  16.068  1.00  0.00     0.031 C 
HETATM    5  C4  UNL     1      44.248  47.208  16.572  1.00  0.00     0.272 C 
HETATM    6  N1  UNL     1      44.458  48.047  17.734  1.00  0.00     0.089 N 
HETATM    7  C14 UNL     1      45.502  48.996  17.558  1.00  0.00     0.282 C 
BRANCH   6   8
HETATM    8  C3  UNL     1      44.513  47.321  18.953  1.00  0.00     0.272 C 
BRANCH   8   9
HETATM    9  C2  UNL     1      43.263  46.484  19.104  1.00  0.00     0.026 C 
HETATM   10  C1  UNL     1      43.149  46.175  20.597  1.00  0.00     0.007 C 
ENDBRANCH   8   9
ENDBRANCH   6   8
ENDBRANCH   1   2
BRANCH   1  11
HETATM   11  N2  UNL     1      48.943  48.663  18.346  1.00  0.00    -0.395 N 
ATOM     12  H2  UNL     1      49.327  47.726  18.230  1.00  0.00     0.159 HD
BRANCH  11  13
HETATM   13  C9  UNL     1      49.369  49.486  19.411  1.00  0.00     0.113 C 
HETATM   14  C10 UNL     1      48.706  50.847  19.453  1.00  0.00     0.054 C 
HETATM   15  C11 UNL     1      49.401  51.764  20.434  1.00  0.00     0.169 C 
HETATM   16  O1  UNL     1      50.393  51.094  21.149  1.00  0.00    -0.388 OA
HETATM   17  C12 UNL     1      51.378  50.737  20.231  1.00  0.00     0.201 C 
HETATM   18  C13 UNL     1      50.865  49.559  19.442  1.00  0.00     0.164 C 
BRANCH  18  19
HETATM   19  O2  UNL     1      51.383  48.380  19.991  1.00  0.00    -0.391 OA
ATOM     20  H2  UNL     1      51.334  48.420  20.939  1.00  0.00     0.210 HD
ENDBRANCH  18  19
ENDBRANCH  11  13
ENDBRANCH   1  11
TORSDOF 6
ENDMDL
MODEL 4
REMARK VINA RESULT: -6.691923704      1.504      2.707
REMARK  6 active torsions:
REMARK  status: ('A' for Active; 'I' for Inactive)
REMARK    1  A    between atoms: C2_2  and  C3_3 
REMARK    2  A    between atoms: C3_3  and  N1_4 
REMARK    3  A    between atoms: C7_8  and  C8_9 
REMARK    4  A    between atoms: C8_9  and  N2_10 
REMARK    5  A    between atoms: N2_10  and  C9_12 
REMARK    6  A    between atoms: C13_17  and  O2_18 
ROOT
HETATM    1  C8  UNL     1      47.714  49.381  18.378  1.00  0.00     0.062 C 
ENDROOT
BRANCH   1   2
HETATM    2  C7  UNL     1      46.652  48.494  17.751  1.00  0.00     0.052 C 
HETATM    3  C6  UNL     1      45.632  48.049  18.778  1.00  0.00     0.013 C 
HETATM    4  C5  UNL     1      44.614  47.202  18.095  1.00  0.00     0.031 C 
HETATM    5  C4  UNL     1      45.180  46.104  17.231  1.00  0.00     0.272 C 
HETATM    6  N1  UNL     1      46.312  46.551  16.446  1.00  0.00     0.089 N 
HETATM    7  C14 UNL     1      47.298  47.225  17.219  1.00  0.00     0.282 C 
BRANCH   6   8
HETATM    8  C3  UNL     1      45.942  47.214  15.245  1.00  0.00     0.272 C 
BRANCH   8   9
HETATM    9  C2  UNL     1      44.859  46.427  14.543  1.00  0.00     0.026 C 
HETATM   10  C1  UNL     1      44.680  47.094  13.179  1.00  0.00     0.007 C 
ENDBRANCH   8   9
ENDBRANCH   6   8
ENDBRANCH   1   2
BRANCH   1  11
HETATM   11  N2  UNL     1      48.821  48.599  18.765  1.00  0.00    -0.395 N 
ATOM     12  H2  UNL     1      48.820  47.590  18.614  1.00  0.00     0.159 HD
BRANCH  11  13
HETATM   13  C9  UNL     1      49.929  49.234  19.366  1.00  0.00     0.113 C 
HETATM   14  C10 UNL     1      49.732  49.586  20.826  1.00  0.00     0.054 C 
HETATM   15  C11 UNL     1      50.830  50.498  21.322  1.00  0.00     0.169 C 
HETATM   16  O1  UNL     1      51.818  50.686  20.355  1.00  0.00    -0.388 OA
HETATM   17  C12 UNL     1      51.223  51.378  19.302  1.00  0.00     0.201 C 
HETATM   18  C13 UNL     1      50.370  50.401  18.534  1.00  0.00     0.164 C 
BRANCH  18  19
HETATM   19  O2  UNL     1      51.086  49.942  17.423  1.00  0.00    -0.391 OA
ATOM     20  H2  UNL     1      51.811  50.530  17.244  1.00  0.00     0.210 HD
ENDBRANCH  18  19
ENDBRANCH  11  13
ENDBRANCH   1  11
TORSDOF 6
ENDMDL
MODEL 5
REMARK VINA RESULT: -6.588643188      5.326      8.037
REMARK  6 active torsions:
REMARK  status: ('A' for Active; 'I' for Inactive)
REMARK    1  A    between atoms: C2_2  and  C3_3 
REMARK    2  A    between atoms: C3_3  and  N1_4 
REMARK    3  A    between atoms: C7_8  and  C8_9 
REMARK    4  A    between atoms: C8_9  and  N2_10 
REMARK    5  A    between atoms: N2_10  and  C9_12 
REMARK    6  A    between atoms: C13_17  and  O2_18 
ROOT
HETATM    1  C8  UNL     1      50.438  54.763  19.990  1.00  0.00     0.062 C 
ENDROOT
BRANCH   1   2
HETATM    2  C7  UNL     1      49.372  55.829  20.180  1.00  0.00     0.052 C 
HETATM    3  C6  UNL     1      49.381  56.368  21.595  1.00  0.00     0.013 C 
HETATM    4  C5  UNL     1      48.329  57.417  21.705  1.00  0.00     0.031 C 
HETATM    5  C4  UNL     1      46.976  57.017  21.176  1.00  0.00     0.272 C 
HETATM    6  N1  UNL     1      47.067  56.292  19.925  1.00  0.00     0.089 N 
HETATM    7  C14 UNL     1      47.997  55.217  19.969  1.00  0.00     0.282 C 
BRANCH   6   8
HETATM    8  C3  UNL     1      47.186  57.137  18.790  1.00  0.00     0.272 C 
BRANCH   8   9
HETATM    9  C2  UNL     1      46.086  58.172  18.808  1.00  0.00     0.026 C 
HETATM   10  C1  UNL     1      46.717  59.459  18.276  1.00  0.00     0.007 C 
ENDBRANCH   8   9
ENDBRANCH   6   8
ENDBRANCH   1   2
BRANCH   1  11
HETATM   11  N2  UNL     1      49.835  53.490  19.937  1.00  0.00    -0.395 N 
ATOM     12  H2  UNL     1      48.830  53.399  19.786  1.00  0.00     0.159 HD
BRANCH  11  13
HETATM   13  C9  UNL     1      50.643  52.344  20.098  1.00  0.00     0.113 C 
HETATM   14  C10 UNL     1      50.747  51.475  18.862  1.00  0.00     0.054 C 
HETATM   15  C11 UNL     1      51.388  50.143  19.182  1.00  0.00     0.169 C 
HETATM   16  O1  UNL     1      51.839  50.094  20.501  1.00  0.00    -0.388 OA
HETATM   17  C12 UNL     1      50.710  50.155  21.315  1.00  0.00     0.201 C 
HETATM   18  C13 UNL     1      50.224  51.582  21.319  1.00  0.00     0.164 C 
BRANCH  18  19
HETATM   19  O2  UNL     1      50.706  52.227  22.464  1.00  0.00    -0.391 OA
ATOM     20  H2  UNL     1      51.454  51.752  22.808  1.00  0.00     0.210 HD
ENDBRANCH  18  19
ENDBRANCH  11  13
ENDBRANCH   1  11
TORSDOF 6
ENDMDL
