MODEL 1
REMARK VINA RESULT: -9.183603352      0.000      0.000
REMARK  13 active torsions:
REMARK  status: ('A' for Active; 'I' for Inactive)
REMARK    1  A    between atoms: C2_2  and  C3_3 
REMARK    2  A    between atoms: C3_3  and  C4_4 
REMARK    3  A    between atoms: C4_4  and  C5_5 
REMARK    4  A    between atoms: C5_5  and  C6_7 
REMARK    5  A    between atoms: C6_7  and  C7_8 
REMARK    6  A    between atoms: C7_8  and  N1_10 
REMARK    7  A    between atoms: N1_10  and  C9_12 
REMARK    8  A    between atoms: C9_12  and  C10_13 
REMARK    9  A    between atoms: C10_13  and  O3_15 
REMARK   10  A    between atoms: O3_15  and  C11_16 
REMARK   11  A    between atoms: C13_20  and  O6_21 
REMARK   12  A    between atoms: C24_33  and  C26_35 
REMARK   13  A    between atoms: C26_35  and  O7_36 
ROOT
HETATM    1  C11 UNL     1      50.017  51.620  19.475  1.00  0.00     0.286 C 
HETATM    2  O4  UNL     1      50.053  52.113  18.137  1.00  0.00    -0.307 OA
HETATM    3  C12 UNL     1      48.761  51.905  17.606  1.00  0.00     0.418 C 
HETATM    4  O5  UNL     1      48.944  51.669  16.300  1.00  0.00    -0.307 OA
HETATM    5  C13 UNL     1      48.897  50.363  15.878  1.00  0.00     0.273 C 
HETATM    6  C14 UNL     1      48.243  49.389  16.789  1.00  0.00     0.038 C 
HETATM    7  C15 UNL     1      48.626  48.006  16.413  1.00  0.00     0.024 C 
HETATM    8  C16 UNL     1      46.749  49.492  16.350  1.00  0.00     0.018 C 
HETATM    9  C17 UNL     1      46.131  48.670  17.398  1.00  0.00     0.009 C 
HETATM   10  C18 UNL     1      46.840  49.140  18.622  1.00  0.00     0.025 C 
HETATM   11  C19 UNL     1      46.835  47.975  19.542  1.00  0.00    -0.012 C 
HETATM   12  C20 UNL     1      45.400  47.584  19.786  1.00  0.00     0.010 C 
HETATM   13  C21 UNL     1      47.480  48.524  20.761  1.00  0.00     0.005 C 
HETATM   14  C22 UNL     1      48.964  48.525  20.385  1.00  0.00     0.009 C 
HETATM   15  C23 UNL     1      49.321  49.204  19.108  1.00  0.00     0.037 C 
HETATM   16  C24 UNL     1      50.436  50.197  19.398  1.00  0.00     0.034 C 
HETATM   17  C25 UNL     1      51.515  50.097  18.275  1.00  0.00     0.023 C 
HETATM   18  C27 UNL     1      48.196  49.708  18.260  1.00  0.00     0.086 C 
HETATM   19  O8  UNL     1      48.069  51.072  18.367  1.00  0.00    -0.326 OA
ENDROOT
BRANCH   1  20
HETATM   20  O3  UNL     1      50.918  52.498  20.120  1.00  0.00    -0.284 OA
BRANCH  20  21
HETATM   21  C10 UNL     1      51.677  53.459  19.409  1.00  0.00     0.300 C 
HETATM   22  O2  UNL     1      52.607  53.058  18.706  1.00  0.00    -0.259 OA
BRANCH  21  23
HETATM   23  C9  UNL     1      51.223  54.891  19.591  1.00  0.00     0.166 C 
BRANCH  23  24
HETATM   24  N1  UNL     1      50.059  55.050  18.851  1.00  0.00    -0.389 N 
ATOM     25  H1  UNL     1      49.994  54.694  17.897  1.00  0.00     0.159 HD
BRANCH  24  26
HETATM   26  C7  UNL     1      48.939  55.734  19.467  1.00  0.00     0.084 C 
HETATM   27  C8  UNL     1      48.061  54.551  19.978  1.00  0.00     0.032 C 
BRANCH  26  28
HETATM   28  C6  UNL     1      49.350  56.467  20.731  1.00  0.00     0.103 C 
BRANCH  28  29
HETATM   29  C5  UNL     1      48.465  57.623  21.040  1.00  0.00     0.129 C 
HETATM   30  O1  UNL     1      48.421  58.093  22.155  1.00  0.00    -0.298 OA
BRANCH  29  31
HETATM   31  C4  UNL     1      47.624  58.185  19.922  1.00  0.00     0.082 C 
BRANCH  31  32
HETATM   32  C3  UNL     1      46.218  57.771  19.920  1.00  0.00     0.033 C 
BRANCH  32  33
HETATM   33  C2  UNL     1      45.470  58.112  18.720  1.00  0.00    -0.037 C 
HETATM   34  C1  UNL     1      44.274  58.743  18.885  1.00  0.00     0.007 C 
ENDBRANCH  32  33
ENDBRANCH  31  32
ENDBRANCH  29  31
ENDBRANCH  28  29
ENDBRANCH  26  28
ENDBRANCH  24  26
ENDBRANCH  23  24
ENDBRANCH  21  23
ENDBRANCH  20  21
ENDBRANCH   1  20
BRANCH  16  35
HETATM   35  C26 UNL     1      51.229  49.892  20.656  1.00  0.00     0.178 C 
BRANCH  35  36
HETATM   36  O7  UNL     1      52.577  50.242  20.519  1.00  0.00    -0.400 OA
ATOM     37  H7  UNL     1      53.095  49.526  20.172  1.00  0.00     0.209 HD
ENDBRANCH  35  36
ENDBRANCH  16  35
BRANCH   5  38
HETATM   38  O6  UNL     1      48.194  50.494  14.633  1.00  0.00    -0.370 OA
ATOM     39  H6  UNL     1      48.466  49.703  14.180  1.00  0.00     0.212 HD
ENDBRANCH   5  38
TORSDOF 13
ENDMDL
MODEL 2
REMARK VINA RESULT: -9.159670038      2.143      7.211
REMARK  13 active torsions:
REMARK  status: ('A' for Active; 'I' for Inactive)
REMARK    1  A    between atoms: C2_2  and  C3_3 
REMARK    2  A    between atoms: C3_3  and  C4_4 
REMARK    3  A    between atoms: C4_4  and  C5_5 
REMARK    4  A    between atoms: C5_5  and  C6_7 
REMARK    5  A    between atoms: C6_7  and  C7_8 
REMARK    6  A    between atoms: C7_8  and  N1_10 
REMARK    7  A    between atoms: N1_10  and  C9_12 
REMARK    8  A    between atoms: C9_12  and  C10_13 
REMARK    9  A    between atoms: C10_13  and  O3_15 
REMARK   10  A    between atoms: O3_15  and  C11_16 
REMARK   11  A    between atoms: C13_20  and  O6_21 
REMARK   12  A    between atoms: C24_33  and  C26_35 
REMARK   13  A    between atoms: C26_35  and  O7_36 
ROOT
HETATM    1  C11 UNL     1      49.958  52.032  19.994  1.00  0.00     0.286 C 
HETATM    2  O4  UNL     1      50.760  52.227  21.157  1.00  0.00    -0.307 OA
HETATM    3  C12 UNL     1      50.132  53.248  21.903  1.00  0.00     0.418 C 
HETATM    4  O5  UNL     1      51.125  53.907  22.515  1.00  0.00    -0.307 OA
HETATM    5  C13 UNL     1      51.528  55.101  21.967  1.00  0.00     0.273 C 
HETATM    6  C14 UNL     1      50.584  55.757  21.027  1.00  0.00     0.038 C 
HETATM    7  C15 UNL     1      51.298  56.778  20.221  1.00  0.00     0.024 C 
HETATM    8  C16 UNL     1      49.701  56.603  21.998  1.00  0.00     0.018 C 
HETATM    9  C17 UNL     1      48.678  57.068  21.053  1.00  0.00     0.009 C 
HETATM   10  C18 UNL     1      48.390  55.831  20.272  1.00  0.00     0.025 C 
HETATM   11  C19 UNL     1      47.963  56.311  18.933  1.00  0.00    -0.012 C 
HETATM   12  C20 UNL     1      46.762  57.202  19.121  1.00  0.00     0.010 C 
HETATM   13  C21 UNL     1      47.618  55.048  18.234  1.00  0.00     0.005 C 
HETATM   14  C22 UNL     1      48.991  54.485  17.859  1.00  0.00     0.009 C 
HETATM   15  C23 UNL     1      49.977  54.356  18.968  1.00  0.00     0.037 C 
HETATM   16  C24 UNL     1      50.517  52.934  18.955  1.00  0.00     0.034 C 
HETATM   17  C25 UNL     1      52.063  52.972  19.164  1.00  0.00     0.023 C 
HETATM   18  C27 UNL     1      49.581  54.897  20.305  1.00  0.00     0.086 C 
HETATM   19  O8  UNL     1      49.235  53.883  21.165  1.00  0.00    -0.326 OA
ENDROOT
BRANCH   1  20
HETATM   20  O3  UNL     1      50.126  50.646  19.768  1.00  0.00    -0.284 OA
BRANCH  20  21
HETATM   21  C10 UNL     1      49.568  49.667  20.626  1.00  0.00     0.300 C 
HETATM   22  O2  UNL     1      50.043  49.549  21.756  1.00  0.00    -0.259 OA
BRANCH  21  23
HETATM   23  C9  UNL     1      48.414  48.887  20.035  1.00  0.00     0.166 C 
BRANCH  23  24
HETATM   24  N1  UNL     1      48.845  48.374  18.818  1.00  0.00    -0.389 N 
ATOM     25  H1  UNL     1      49.727  48.678  18.406  1.00  0.00     0.159 HD
BRANCH  24  26
HETATM   26  C7  UNL     1      48.009  47.396  18.148  1.00  0.00     0.084 C 
HETATM   27  C8  UNL     1      46.571  47.911  18.462  1.00  0.00     0.032 C 
BRANCH  26  28
HETATM   28  C6  UNL     1      48.121  47.496  16.638  1.00  0.00     0.103 C 
BRANCH  28  29
HETATM   29  C5  UNL     1      48.420  48.878  16.173  1.00  0.00     0.129 C 
HETATM   30  O1  UNL     1      49.533  49.344  16.278  1.00  0.00    -0.298 OA
BRANCH  29  31
HETATM   31  C4  UNL     1      47.292  49.679  15.572  1.00  0.00     0.082 C 
BRANCH  31  32
HETATM   32  C3  UNL     1      47.572  51.101  15.358  1.00  0.00     0.033 C 
BRANCH  32  33
HETATM   33  C2  UNL     1      46.857  52.015  16.234  1.00  0.00    -0.037 C 
HETATM   34  C1  UNL     1      46.539  51.570  17.481  1.00  0.00     0.007 C 
ENDBRANCH  32  33
ENDBRANCH  31  32
ENDBRANCH  29  31
ENDBRANCH  28  29
ENDBRANCH  26  28
ENDBRANCH  24  26
ENDBRANCH  23  24
ENDBRANCH  21  23
ENDBRANCH  20  21
ENDBRANCH   1  20
BRANCH  16  35
HETATM   35  C26 UNL     1      50.374  52.226  17.619  1.00  0.00     0.178 C 
BRANCH  35  36
HETATM   36  O7  UNL     1      51.526  51.503  17.288  1.00  0.00    -0.400 OA
ATOM     37  H7  UNL     1      51.604  51.373  16.351  1.00  0.00     0.209 HD
ENDBRANCH  35  36
ENDBRANCH  16  35
BRANCH   5  38
HETATM   38  O6  UNL     1      51.755  55.890  23.145  1.00  0.00    -0.370 OA
ATOM     39  H6  UNL     1      51.133  56.597  23.019  1.00  0.00     0.212 HD
ENDBRANCH   5  38
TORSDOF 13
ENDMDL
MODEL 3
REMARK VINA RESULT: -9.120077383      2.281      7.719
REMARK  13 active torsions:
REMARK  status: ('A' for Active; 'I' for Inactive)
REMARK    1  A    between atoms: C2_2  and  C3_3 
REMARK    2  A    between atoms: C3_3  and  C4_4 
REMARK    3  A    between atoms: C4_4  and  C5_5 
REMARK    4  A    between atoms: C5_5  and  C6_7 
REMARK    5  A    between atoms: C6_7  and  C7_8 
REMARK    6  A    between atoms: C7_8  and  N1_10 
REMARK    7  A    between atoms: N1_10  and  C9_12 
REMARK    8  A    between atoms: C9_12  and  C10_13 
REMARK    9  A    between atoms: C10_13  and  O3_15 
REMARK   10  A    between atoms: O3_15  and  C11_16 
REMARK   11  A    between atoms: C13_20  and  O6_21 
REMARK   12  A    between atoms: C24_33  and  C26_35 
REMARK   13  A    between atoms: C26_35  and  O7_36 
ROOT
HETATM    1  C11 UNL     1      50.027  51.807  20.103  1.00  0.00     0.286 C 
HETATM    2  O4  UNL     1      50.792  52.065  21.279  1.00  0.00    -0.307 OA
HETATM    3  C12 UNL     1      50.133  53.114  21.956  1.00  0.00     0.418 C 
HETATM    4  O5  UNL     1      51.102  53.811  22.566  1.00  0.00    -0.307 OA
HETATM    5  C13 UNL     1      51.511  54.981  21.973  1.00  0.00     0.273 C 
HETATM    6  C14 UNL     1      50.591  55.583  20.975  1.00  0.00     0.038 C 
HETATM    7  C15 UNL     1      51.320  56.571  20.143  1.00  0.00     0.024 C 
HETATM    8  C16 UNL     1      49.672  56.466  21.878  1.00  0.00     0.018 C 
HETATM    9  C17 UNL     1      48.675  56.875  20.882  1.00  0.00     0.009 C 
HETATM   10  C18 UNL     1      48.420  55.600  20.153  1.00  0.00     0.025 C 
HETATM   11  C19 UNL     1      48.029  56.011  18.781  1.00  0.00    -0.012 C 
HETATM   12  C20 UNL     1      46.816  56.898  18.890  1.00  0.00     0.010 C 
HETATM   13  C21 UNL     1      47.716  54.713  18.132  1.00  0.00     0.005 C 
HETATM   14  C22 UNL     1      49.105  54.146  17.825  1.00  0.00     0.009 C 
HETATM   15  C23 UNL     1      50.058  54.079  18.968  1.00  0.00     0.037 C 
HETATM   16  C24 UNL     1      50.610  52.664  19.039  1.00  0.00     0.034 C 
HETATM   17  C25 UNL     1      52.148  52.727  19.293  1.00  0.00     0.023 C 
HETATM   18  C27 UNL     1      49.617  54.679  20.266  1.00  0.00     0.086 C 
HETATM   19  O8  UNL     1      49.253  53.704  21.163  1.00  0.00    -0.326 OA
ENDROOT
BRANCH   1  20
HETATM   20  O3  UNL     1      50.213  50.413  19.949  1.00  0.00    -0.284 OA
BRANCH  20  21
HETATM   21  C10 UNL     1      49.524  49.466  20.745  1.00  0.00     0.300 C 
HETATM   22  O2  UNL     1      49.872  49.334  21.920  1.00  0.00    -0.259 OA
BRANCH  21  23
HETATM   23  C9  UNL     1      48.405  48.734  20.037  1.00  0.00     0.166 C 
BRANCH  23  24
HETATM   24  N1  UNL     1      48.885  48.358  18.789  1.00  0.00    -0.389 N 
ATOM     25  H1  UNL     1      49.839  48.015  18.678  1.00  0.00     0.159 HD
BRANCH  24  26
HETATM   26  C7  UNL     1      47.995  48.465  17.649  1.00  0.00     0.084 C 
HETATM   27  C8  UNL     1      48.983  48.733  16.474  1.00  0.00     0.032 C 
BRANCH  26  28
HETATM   28  C6  UNL     1      47.355  47.133  17.303  1.00  0.00     0.103 C 
BRANCH  28  29
HETATM   29  C5  UNL     1      45.873  47.217  17.197  1.00  0.00     0.129 C 
HETATM   30  O1  UNL     1      45.273  46.593  16.349  1.00  0.00    -0.298 OA
BRANCH  29  31
HETATM   31  C4  UNL     1      45.145  48.105  18.174  1.00  0.00     0.082 C 
BRANCH  31  32
HETATM   32  C3  UNL     1      43.908  47.549  18.731  1.00  0.00     0.033 C 
BRANCH  32  33
HETATM   33  C2  UNL     1      44.069  46.764  19.944  1.00  0.00    -0.037 C 
HETATM   34  C1  UNL     1      44.962  47.214  20.869  1.00  0.00     0.007 C 
ENDBRANCH  32  33
ENDBRANCH  31  32
ENDBRANCH  29  31
ENDBRANCH  28  29
ENDBRANCH  26  28
ENDBRANCH  24  26
ENDBRANCH  23  24
ENDBRANCH  21  23
ENDBRANCH  20  21
ENDBRANCH   1  20
BRANCH  16  35
HETATM   35  C26 UNL     1      50.513  51.892  17.736  1.00  0.00     0.178 C 
BRANCH  35  36
HETATM   36  O7  UNL     1      51.720  51.914  17.028  1.00  0.00    -0.400 OA
ATOM     37  H7  UNL     1      51.866  51.104  16.553  1.00  0.00     0.209 HD
ENDBRANCH  35  36
ENDBRANCH  16  35
BRANCH   5  38
HETATM   38  O6  UNL     1      51.696  55.827  23.118  1.00  0.00    -0.370 OA
ATOM     39  H6  UNL     1      52.640  55.938  23.118  1.00  0.00     0.212 HD
ENDBRANCH   5  38
TORSDOF 13
ENDMDL
MODEL 4
REMARK VINA RESULT: -9.066448929      1.262      1.613
REMARK  13 active torsions:
REMARK  status: ('A' for Active; 'I' for Inactive)
REMARK    1  A    between atoms: C2_2  and  C3_3 
REMARK    2  A    between atoms: C3_3  and  C4_4 
REMARK    3  A    between atoms: C4_4  and  C5_5 
REMARK    4  A    between atoms: C5_5  and  C6_7 
REMARK    5  A    between atoms: C6_7  and  C7_8 
REMARK    6  A    between atoms: C7_8  and  N1_10 
REMARK    7  A    between atoms: N1_10  and  C9_12 
REMARK    8  A    between atoms: C9_12  and  C10_13 
REMARK    9  A    between atoms: C10_13  and  O3_15 
REMARK   10  A    between atoms: O3_15  and  C11_16 
REMARK   11  A    between atoms: C13_20  and  O6_21 
REMARK   12  A    between atoms: C24_33  and  C26_35 
REMARK   13  A    between atoms: C26_35  and  O7_36 
ROOT
HETATM    1  C11 UNL     1      49.341  51.355  19.879  1.00  0.00     0.286 C 
HETATM    2  O4  UNL     1      49.720  51.861  18.600  1.00  0.00    -0.307 OA
HETATM    3  C12 UNL     1      48.603  51.675  17.756  1.00  0.00     0.418 C 
HETATM    4  O5  UNL     1      49.109  51.450  16.536  1.00  0.00    -0.307 OA
HETATM    5  C13 UNL     1      49.158  50.148  16.100  1.00  0.00     0.273 C 
HETATM    6  C14 UNL     1      48.285  49.173  16.803  1.00  0.00     0.038 C 
HETATM    7  C15 UNL     1      48.737  47.790  16.518  1.00  0.00     0.024 C 
HETATM    8  C16 UNL     1      46.952  49.300  16.000  1.00  0.00     0.018 C 
HETATM    9  C17 UNL     1      46.080  48.476  16.846  1.00  0.00     0.009 C 
HETATM   10  C18 UNL     1      46.461  48.924  18.216  1.00  0.00     0.025 C 
HETATM   11  C19 UNL     1      46.211  47.750  19.090  1.00  0.00    -0.012 C 
HETATM   12  C20 UNL     1      44.758  47.374  18.958  1.00  0.00     0.010 C 
HETATM   13  C21 UNL     1      46.531  48.279  20.439  1.00  0.00     0.005 C 
HETATM   14  C22 UNL     1      48.062  48.265  20.452  1.00  0.00     0.009 C 
HETATM   15  C23 UNL     1      48.737  48.952  19.316  1.00  0.00     0.037 C 
HETATM   16  C24 UNL     1      49.752  49.928  19.892  1.00  0.00     0.034 C 
HETATM   17  C25 UNL     1      51.080  49.826  19.078  1.00  0.00     0.023 C 
HETATM   18  C27 UNL     1      47.870  49.479  18.217  1.00  0.00     0.086 C 
HETATM   19  O8  UNL     1      47.733  50.843  18.307  1.00  0.00    -0.326 OA
ENDROOT
BRANCH   1  20
HETATM   20  O3  UNL     1      50.058  52.216  20.743  1.00  0.00    -0.284 OA
BRANCH  20  21
HETATM   21  C10 UNL     1      49.828  53.612  20.779  1.00  0.00     0.300 C 
HETATM   22  O2  UNL     1      48.681  54.016  20.579  1.00  0.00    -0.259 OA
BRANCH  21  23
HETATM   23  C9  UNL     1      51.049  54.450  21.091  1.00  0.00     0.166 C 
BRANCH  23  24
HETATM   24  N1  UNL     1      50.625  55.519  21.870  1.00  0.00    -0.389 N 
ATOM     25  H1  UNL     1      50.171  55.362  22.769  1.00  0.00     0.159 HD
BRANCH  24  26
HETATM   26  C7  UNL     1      50.846  56.863  21.372  1.00  0.00     0.084 C 
HETATM   27  C8  UNL     1      52.056  56.672  20.408  1.00  0.00     0.032 C 
BRANCH  26  28
HETATM   28  C6  UNL     1      49.717  57.324  20.469  1.00  0.00     0.103 C 
BRANCH  28  29
HETATM   29  C5  UNL     1      48.462  57.613  21.217  1.00  0.00     0.129 C 
HETATM   30  O1  UNL     1      48.496  58.096  22.327  1.00  0.00    -0.298 OA
BRANCH  29  31
HETATM   31  C4  UNL     1      47.152  57.281  20.550  1.00  0.00     0.082 C 
BRANCH  31  32
HETATM   32  C3  UNL     1      47.107  57.502  19.102  1.00  0.00     0.033 C 
BRANCH  32  33
HETATM   33  C2  UNL     1      46.285  58.620  18.667  1.00  0.00    -0.037 C 
HETATM   34  C1  UNL     1      46.878  59.844  18.594  1.00  0.00     0.007 C 
ENDBRANCH  32  33
ENDBRANCH  31  32
ENDBRANCH  29  31
ENDBRANCH  28  29
ENDBRANCH  26  28
ENDBRANCH  24  26
ENDBRANCH  23  24
ENDBRANCH  21  23
ENDBRANCH  20  21
ENDBRANCH   1  20
BRANCH  16  35
HETATM   35  C26 UNL     1      50.197  49.601  21.306  1.00  0.00     0.178 C 
BRANCH  35  36
HETATM   36  O7  UNL     1      51.491  50.067  21.565  1.00  0.00    -0.400 OA
ATOM     37  H7  UNL     1      52.077  49.362  21.816  1.00  0.00     0.209 HD
ENDBRANCH  35  36
ENDBRANCH  16  35
BRANCH   5  38
HETATM   38  O6  UNL     1      48.795  50.300  14.718  1.00  0.00    -0.370 OA
ATOM     39  H6  UNL     1      48.466  49.432  14.514  1.00  0.00     0.212 HD
ENDBRANCH   5  38
TORSDOF 13
ENDMDL
MODEL 5
REMARK VINA RESULT: -9.003974469      1.261      1.731
REMARK  13 active torsions:
REMARK  status: ('A' for Active; 'I' for Inactive)
REMARK    1  A    between atoms: C2_2  and  C3_3 
REMARK    2  A    between atoms: C3_3  and  C4_4 
REMARK    3  A    between atoms: C4_4  and  C5_5 
REMARK    4  A    between atoms: C5_5  and  C6_7 
REMARK    5  A    between atoms: C6_7  and  C7_8 
REMARK    6  A    between atoms: C7_8  and  N1_10 
REMARK    7  A    between atoms: N1_10  and  C9_12 
REMARK    8  A    between atoms: C9_12  and  C10_13 
REMARK    9  A    between atoms: C10_13  and  O3_15 
REMARK   10  A    between atoms: O3_15  and  C11_16 
REMARK   11  A    between atoms: C13_20  and  O6_21 
REMARK   12  A    between atoms: C24_33  and  C26_35 
REMARK   13  A    between atoms: C26_35  and  O7_36 
ROOT
HETATM    1  C11 UNL     1      49.851  51.772  19.622  1.00  0.00     0.286 C 
HETATM    2  O4  UNL     1      49.900  52.301  18.298  1.00  0.00    -0.307 OA
HETATM    3  C12 UNL     1      48.634  52.047  17.726  1.00  0.00     0.418 C 
HETATM    4  O5  UNL     1      48.864  51.853  16.420  1.00  0.00    -0.307 OA
HETATM    5  C13 UNL     1      48.889  50.556  15.966  1.00  0.00     0.273 C 
HETATM    6  C14 UNL     1      48.258  49.530  16.835  1.00  0.00     0.038 C 
HETATM    7  C15 UNL     1      48.715  48.177  16.437  1.00  0.00     0.024 C 
HETATM    8  C16 UNL     1      46.773  49.575  16.356  1.00  0.00     0.018 C 
HETATM    9  C17 UNL     1      46.166  48.700  17.366  1.00  0.00     0.009 C 
HETATM   10  C18 UNL     1      46.819  49.171  18.620  1.00  0.00     0.025 C 
HETATM   11  C19 UNL     1      46.844  47.984  19.512  1.00  0.00    -0.012 C 
HETATM   12  C20 UNL     1      45.423  47.520  19.706  1.00  0.00     0.010 C 
HETATM   13  C21 UNL     1      47.429  48.531  20.761  1.00  0.00     0.005 C 
HETATM   14  C22 UNL     1      48.921  48.610  20.427  1.00  0.00     0.009 C 
HETATM   15  C23 UNL     1      49.280  49.338  19.178  1.00  0.00     0.037 C 
HETATM   16  C24 UNL     1      50.339  50.373  19.523  1.00  0.00     0.034 C 
HETATM   17  C25 UNL     1      51.451  50.352  18.429  1.00  0.00     0.023 C 
HETATM   18  C27 UNL     1      48.156  49.810  18.311  1.00  0.00     0.086 C 
HETATM   19  O8  UNL     1      47.962  51.163  18.448  1.00  0.00    -0.326 OA
ENDROOT
BRANCH   1  20
HETATM   20  O3  UNL     1      50.693  52.675  20.314  1.00  0.00    -0.284 OA
BRANCH  20  21
HETATM   21  C10 UNL     1      50.180  53.708  21.136  1.00  0.00     0.300 C 
HETATM   22  O2  UNL     1      50.807  54.004  22.154  1.00  0.00    -0.259 OA
BRANCH  21  23
HETATM   23  C9  UNL     1      48.905  54.348  20.631  1.00  0.00     0.166 C 
BRANCH  23  24
HETATM   24  N1  UNL     1      49.200  55.672  20.332  1.00  0.00    -0.389 N 
ATOM     25  H1  UNL     1      50.108  55.930  19.948  1.00  0.00     0.159 HD
BRANCH  24  26
HETATM   26  C7  UNL     1      48.184  56.677  20.581  1.00  0.00     0.084 C 
HETATM   27  C8  UNL     1      48.802  57.498  21.753  1.00  0.00     0.032 C 
BRANCH  26  28
HETATM   28  C6  UNL     1      48.082  57.672  19.439  1.00  0.00     0.103 C 
BRANCH  28  29
HETATM   29  C5  UNL     1      47.394  57.109  18.245  1.00  0.00     0.129 C 
HETATM   30  O1  UNL     1      47.792  56.094  17.718  1.00  0.00    -0.298 OA
BRANCH  29  31
HETATM   31  C4  UNL     1      46.190  57.845  17.713  1.00  0.00     0.082 C 
BRANCH  31  32
HETATM   32  C3  UNL     1      45.434  58.617  18.704  1.00  0.00     0.033 C 
BRANCH  32  33
HETATM   33  C2  UNL     1      45.238  60.021  18.382  1.00  0.00    -0.037 C 
HETATM   34  C1  UNL     1      46.330  60.835  18.433  1.00  0.00     0.007 C 
ENDBRANCH  32  33
ENDBRANCH  31  32
ENDBRANCH  29  31
ENDBRANCH  28  29
ENDBRANCH  26  28
ENDBRANCH  24  26
ENDBRANCH  23  24
ENDBRANCH  21  23
ENDBRANCH  20  21
ENDBRANCH   1  20
BRANCH  16  35
HETATM   35  C26 UNL     1      51.111  50.074  20.796  1.00  0.00     0.178 C 
BRANCH  35  36
HETATM   36  O7  UNL     1      52.488  50.249  20.622  1.00  0.00    -0.400 OA
ATOM     37  H7  UNL     1      52.974  50.038  21.411  1.00  0.00     0.209 HD
ENDBRANCH  35  36
ENDBRANCH  16  35
BRANCH   5  38
HETATM   38  O6  UNL     1      48.215  50.686  14.705  1.00  0.00    -0.370 OA
ATOM     39  H6  UNL     1      47.342  50.935  14.984  1.00  0.00     0.212 HD
ENDBRANCH   5  38
TORSDOF 13
ENDMDL
