MODEL 1
REMARK VINA RESULT: -8.978848164      0.000      0.000
REMARK  15 active torsions:
REMARK  status: ('A' for Active; 'I' for Inactive)
REMARK    1  A    between atoms: C2_2  and  C3_3 
REMARK    2  A    between atoms: C3_3  and  C5_5 
REMARK    3  A    between atoms: C5_5  and  C7_7 
REMARK    4  A    between atoms: C7_7  and  C8_8 
REMARK    5  A    between atoms: C8_8  and  C9_9 
REMARK    6  A    between atoms: C9_9  and  O2_11 
REMARK    7  A    between atoms: O2_11  and  C10_12 
REMARK    8  A    between atoms: C10_12  and  C11_13 
REMARK    9  A    between atoms: C13_16  and  O4_17 
REMARK   10  A    between atoms: C14_19  and  C15_20 
REMARK   11  A    between atoms: C16_21  and  C17_22 
REMARK   12  A    between atoms: C17_22  and  O5_23 
REMARK   13  A    between atoms: O5_23  and  C18_24 
REMARK   14  A    between atoms: C26_34  and  O7_35 
REMARK   15  A    between atoms: C27_37  and  O8_38 
ROOT
HETATM    1  C11 UNL     1      50.543  54.317  20.901  1.00  0.00     0.177 C 
HETATM    2  O3  UNL     1      51.045  53.097  21.413  1.00  0.00    -0.370 OA
HETATM    3  C12 UNL     1      50.138  52.141  21.059  1.00  0.00     0.190 C 
HETATM    4  C13 UNL     1      50.404  50.767  21.567  1.00  0.00     0.182 C 
HETATM    5  C14 UNL     1      49.966  49.890  20.363  1.00  0.00     0.177 C 
HETATM    6  O6  UNL     1      49.403  50.783  19.469  1.00  0.00    -0.363 OA
HETATM    7  C24 UNL     1      50.247  51.894  19.563  1.00  0.00     0.115 C 
HETATM    8  C25 UNL     1      51.665  51.619  19.144  1.00  0.00     0.052 C 
HETATM    9  C26 UNL     1      49.771  53.112  18.854  1.00  0.00     0.186 C 
HETATM   10  C27 UNL     1      50.570  54.297  19.385  1.00  0.00     0.181 C 
ENDROOT
BRANCH   1  11
HETATM   11  C10 UNL     1      51.398  55.464  21.362  1.00  0.00     0.213 C 
BRANCH  11  12
HETATM   12  O2  UNL     1      50.688  56.513  21.976  1.00  0.00    -0.319 OA
BRANCH  12  13
HETATM   13  C9  UNL     1      49.871  57.404  21.350  1.00  0.00     0.258 C 
HETATM   14  O1  UNL     1      50.349  58.081  20.376  1.00  0.00    -0.265 OA
BRANCH  13  15
HETATM   15  C8  UNL     1      48.454  57.694  21.668  1.00  0.00     0.111 C 
BRANCH  15  16
HETATM   16  C7  UNL     1      47.516  57.028  20.692  1.00  0.00     0.014 C 
BRANCH  16  17
HETATM   17  C5  UNL     1      46.707  58.062  19.906  1.00  0.00    -0.014 C 
HETATM   18  C6  UNL     1      45.283  57.696  19.899  1.00  0.00     0.010 C 
BRANCH  17  19
HETATM   19  C3  UNL     1      47.299  58.368  18.591  1.00  0.00    -0.015 C 
HETATM   20  C4  UNL     1      47.119  59.901  18.313  1.00  0.00     0.010 C 
BRANCH  19  21
HETATM   21  C2  UNL     1      46.632  57.693  17.447  1.00  0.00    -0.000 C 
HETATM   22  C1  UNL     1      47.307  56.536  16.800  1.00  0.00     0.005 C 
ENDBRANCH  19  21
ENDBRANCH  17  19
ENDBRANCH  16  17
ENDBRANCH  15  16
ENDBRANCH  13  15
ENDBRANCH  12  13
ENDBRANCH  11  12
ENDBRANCH   1  11
BRANCH  10  23
HETATM   23  O8  UNL     1      50.041  55.499  18.938  1.00  0.00    -0.390 OA
ATOM     24  H8  UNL     1      49.094  55.433  18.986  1.00  0.00     0.210 HD
ENDBRANCH  10  23
BRANCH   9  25
HETATM   25  O7  UNL     1      50.027  53.043  17.476  1.00  0.00    -0.390 OA
ATOM     26  H7  UNL     1      50.870  53.422  17.256  1.00  0.00     0.210 HD
ENDBRANCH   9  25
BRANCH   4  27
HETATM   27  O4  UNL     1      51.687  50.504  21.962  1.00  0.00    -0.390 OA
ATOM     28  H4  UNL     1      51.885  49.601  22.179  1.00  0.00     0.210 HD
ENDBRANCH   4  27
BRANCH   5  29
HETATM   29  C15 UNL     1      49.123  48.796  20.807  1.00  0.00     0.010 C 
HETATM   30  C16 UNL     1      48.046  48.228  20.437  1.00  0.00     0.038 C 
BRANCH  30  31
HETATM   31  C17 UNL     1      47.105  48.399  19.347  1.00  0.00     0.103 C 
HETATM   32  C22 UNL     1      45.863  48.060  19.601  1.00  0.00     0.123 C 
HETATM   33  C23 UNL     1      44.662  48.098  18.778  1.00  0.00     0.085 C 
HETATM   34  F1  UNL     1      45.646  47.567  20.904  1.00  0.00    -0.208 F 
BRANCH  31  35
HETATM   35  O5  UNL     1      47.484  48.878  18.134  1.00  0.00    -0.339 OA
BRANCH  35  36
HETATM   36  C18 UNL     1      47.821  48.332  16.933  1.00  0.00     0.057 C 
HETATM   37  C19 UNL     1      49.053  49.125  16.421  1.00  0.00     0.045 C 
HETATM   38  C20 UNL     1      48.279  46.882  17.010  1.00  0.00     0.045 C 
HETATM   39  C21 UNL     1      46.835  48.462  15.776  1.00  0.00     0.045 C 
ENDBRANCH  35  36
ENDBRANCH  31  35
ENDBRANCH  30  31
ENDBRANCH   5  29
TORSDOF 15
ENDMDL
MODEL 2
REMARK VINA RESULT: -8.965164436      2.037      3.957
REMARK  15 active torsions:
REMARK  status: ('A' for Active; 'I' for Inactive)
REMARK    1  A    between atoms: C2_2  and  C3_3 
REMARK    2  A    between atoms: C3_3  and  C5_5 
REMARK    3  A    between atoms: C5_5  and  C7_7 
REMARK    4  A    between atoms: C7_7  and  C8_8 
REMARK    5  A    between atoms: C8_8  and  C9_9 
REMARK    6  A    between atoms: C9_9  and  O2_11 
REMARK    7  A    between atoms: O2_11  and  C10_12 
REMARK    8  A    between atoms: C10_12  and  C11_13 
REMARK    9  A    between atoms: C13_16  and  O4_17 
REMARK   10  A    between atoms: C14_19  and  C15_20 
REMARK   11  A    between atoms: C16_21  and  C17_22 
REMARK   12  A    between atoms: C17_22  and  O5_23 
REMARK   13  A    between atoms: O5_23  and  C18_24 
REMARK   14  A    between atoms: C26_34  and  O7_35 
REMARK   15  A    between atoms: C27_37  and  O8_38 
ROOT
HETATM    1  C11 UNL     1      51.555  51.900  19.036  1.00  0.00     0.177 C 
HETATM    2  O3  UNL     1      50.259  52.106  18.506  1.00  0.00    -0.370 OA
HETATM    3  C12 UNL     1      49.959  50.976  17.800  1.00  0.00     0.190 C 
HETATM    4  C13 UNL     1      48.664  50.988  17.066  1.00  0.00     0.182 C 
HETATM    5  C14 UNL     1      48.175  49.527  17.255  1.00  0.00     0.177 C 
HETATM    6  O6  UNL     1      49.232  48.884  17.874  1.00  0.00    -0.363 OA
HETATM    7  C24 UNL     1      49.696  49.843  18.780  1.00  0.00     0.115 C 
HETATM    8  C25 UNL     1      48.687  50.232  19.825  1.00  0.00     0.052 C 
HETATM    9  C26 UNL     1      50.976  49.506  19.458  1.00  0.00     0.186 C 
HETATM   10  C27 UNL     1      51.525  50.791  20.070  1.00  0.00     0.181 C 
ENDROOT
BRANCH   1  11
HETATM   11  C10 UNL     1      52.042  53.150  19.715  1.00  0.00     0.213 C 
BRANCH  11  12
HETATM   12  O2  UNL     1      51.570  53.322  21.030  1.00  0.00    -0.319 OA
BRANCH  12  13
HETATM   13  C9  UNL     1      50.894  54.403  21.505  1.00  0.00     0.258 C 
HETATM   14  O1  UNL     1      51.304  54.944  22.589  1.00  0.00    -0.265 OA
BRANCH  13  15
HETATM   15  C8  UNL     1      49.704  55.049  20.904  1.00  0.00     0.111 C 
BRANCH  15  16
HETATM   16  C7  UNL     1      49.998  56.466  20.476  1.00  0.00     0.014 C 
BRANCH  16  17
HETATM   17  C5  UNL     1      48.745  57.341  20.557  1.00  0.00    -0.014 C 
HETATM   18  C6  UNL     1      48.586  57.880  21.916  1.00  0.00     0.010 C 
BRANCH  17  19
HETATM   19  C3  UNL     1      47.556  56.686  19.982  1.00  0.00    -0.015 C 
HETATM   20  C4  UNL     1      47.666  56.746  18.418  1.00  0.00     0.010 C 
BRANCH  19  21
HETATM   21  C2  UNL     1      46.270  57.360  20.299  1.00  0.00    -0.000 C 
HETATM   22  C1  UNL     1      45.584  58.139  19.234  1.00  0.00     0.005 C 
ENDBRANCH  19  21
ENDBRANCH  17  19
ENDBRANCH  16  17
ENDBRANCH  15  16
ENDBRANCH  13  15
ENDBRANCH  12  13
ENDBRANCH  11  12
ENDBRANCH   1  11
BRANCH  10  23
HETATM   23  O8  UNL     1      52.822  50.611  20.532  1.00  0.00    -0.390 OA
ATOM     24  H8  UNL     1      52.780  50.512  21.476  1.00  0.00     0.210 HD
ENDBRANCH  10  23
BRANCH   9  25
HETATM   25  O7  UNL     1      50.780  48.610  20.519  1.00  0.00    -0.390 OA
ATOM     26  H7  UNL     1      51.140  48.945  21.332  1.00  0.00     0.210 HD
ENDBRANCH   9  25
BRANCH   4  27
HETATM   27  O4  UNL     1      47.738  51.905  17.483  1.00  0.00    -0.390 OA
ATOM     28  H4  UNL     1      47.116  52.203  16.830  1.00  0.00     0.210 HD
ENDBRANCH   4  27
BRANCH   5  29
HETATM   29  C15 UNL     1      47.724  48.971  15.994  1.00  0.00     0.010 C 
HETATM   30  C16 UNL     1      46.903  48.083  15.597  1.00  0.00     0.038 C 
BRANCH  30  31
HETATM   31  C17 UNL     1      45.980  47.164  16.235  1.00  0.00     0.103 C 
HETATM   32  C22 UNL     1      45.212  46.470  15.430  1.00  0.00     0.123 C 
HETATM   33  C23 UNL     1      44.190  45.465  15.695  1.00  0.00     0.085 C 
HETATM   34  F1  UNL     1      45.403  46.740  14.060  1.00  0.00    -0.208 F 
BRANCH  31  35
HETATM   35  O5  UNL     1      45.909  47.034  17.585  1.00  0.00    -0.339 OA
BRANCH  35  36
HETATM   36  C18 UNL     1      45.190  47.616  18.585  1.00  0.00     0.057 C 
HETATM   37  C19 UNL     1      46.172  47.817  19.770  1.00  0.00     0.045 C 
HETATM   38  C20 UNL     1      44.669  49.007  18.253  1.00  0.00     0.045 C 
HETATM   39  C21 UNL     1      44.057  46.818  19.221  1.00  0.00     0.045 C 
ENDBRANCH  35  36
ENDBRANCH  31  35
ENDBRANCH  30  31
ENDBRANCH   5  29
TORSDOF 15
ENDMDL
MODEL 3
REMARK VINA RESULT: -8.895893112      0.340      1.217
REMARK  15 active torsions:
REMARK  status: ('A' for Active; 'I' for Inactive)
REMARK    1  A    between atoms: C2_2  and  C3_3 
REMARK    2  A    between atoms: C3_3  and  C5_5 
REMARK    3  A    between atoms: C5_5  and  C7_7 
REMARK    4  A    between atoms: C7_7  and  C8_8 
REMARK    5  A    between atoms: C8_8  and  C9_9 
REMARK    6  A    between atoms: C9_9  and  O2_11 
REMARK    7  A    between atoms: O2_11  and  C10_12 
REMARK    8  A    between atoms: C10_12  and  C11_13 
REMARK    9  A    between atoms: C13_16  and  O4_17 
REMARK   10  A    between atoms: C14_19  and  C15_20 
REMARK   11  A    between atoms: C16_21  and  C17_22 
REMARK   12  A    between atoms: C17_22  and  O5_23 
REMARK   13  A    between atoms: O5_23  and  C18_24 
REMARK   14  A    between atoms: C26_34  and  O7_35 
REMARK   15  A    between atoms: C27_37  and  O8_38 
ROOT
HETATM    1  C11 UNL     1      50.537  54.321  20.880  1.00  0.00     0.177 C 
HETATM    2  O3  UNL     1      51.035  53.103  21.402  1.00  0.00    -0.370 OA
HETATM    3  C12 UNL     1      50.131  52.145  21.044  1.00  0.00     0.190 C 
HETATM    4  C13 UNL     1      50.392  50.773  21.561  1.00  0.00     0.182 C 
HETATM    5  C14 UNL     1      49.965  49.891  20.357  1.00  0.00     0.177 C 
HETATM    6  O6  UNL     1      49.411  50.780  19.454  1.00  0.00    -0.363 OA
HETATM    7  C24 UNL     1      50.253  51.892  19.550  1.00  0.00     0.115 C 
HETATM    8  C25 UNL     1      51.675  51.614  19.146  1.00  0.00     0.052 C 
HETATM    9  C26 UNL     1      49.783  53.106  18.831  1.00  0.00     0.186 C 
HETATM   10  C27 UNL     1      50.578  54.294  19.365  1.00  0.00     0.181 C 
ENDROOT
BRANCH   1  11
HETATM   11  C10 UNL     1      51.388  55.470  21.343  1.00  0.00     0.213 C 
BRANCH  11  12
HETATM   12  O2  UNL     1      50.669  56.536  21.916  1.00  0.00    -0.319 OA
BRANCH  12  13
HETATM   13  C9  UNL     1      49.831  57.384  21.258  1.00  0.00     0.258 C 
HETATM   14  O1  UNL     1      50.305  58.071  20.289  1.00  0.00    -0.265 OA
BRANCH  13  15
HETATM   15  C8  UNL     1      48.395  57.616  21.535  1.00  0.00     0.111 C 
BRANCH  15  16
HETATM   16  C7  UNL     1      47.515  56.952  20.506  1.00  0.00     0.014 C 
BRANCH  16  17
HETATM   17  C5  UNL     1      46.390  57.884  20.052  1.00  0.00    -0.014 C 
HETATM   18  C6  UNL     1      45.087  57.361  20.490  1.00  0.00     0.010 C 
BRANCH  17  19
HETATM   19  C3  UNL     1      46.491  58.246  18.627  1.00  0.00    -0.015 C 
HETATM   20  C4  UNL     1      47.289  57.117  17.886  1.00  0.00     0.010 C 
BRANCH  19  21
HETATM   21  C2  UNL     1      47.259  59.491  18.363  1.00  0.00    -0.000 C 
HETATM   22  C1  UNL     1      46.568  60.803  18.479  1.00  0.00     0.005 C 
ENDBRANCH  19  21
ENDBRANCH  17  19
ENDBRANCH  16  17
ENDBRANCH  15  16
ENDBRANCH  13  15
ENDBRANCH  12  13
ENDBRANCH  11  12
ENDBRANCH   1  11
BRANCH  10  23
HETATM   23  O8  UNL     1      50.052  55.494  18.907  1.00  0.00    -0.390 OA
ATOM     24  H8  UNL     1      49.294  55.291  18.371  1.00  0.00     0.210 HD
ENDBRANCH  10  23
BRANCH   9  25
HETATM   25  O7  UNL     1      50.051  53.031  17.456  1.00  0.00    -0.390 OA
ATOM     26  H7  UNL     1      49.593  53.707  16.972  1.00  0.00     0.210 HD
ENDBRANCH   9  25
BRANCH   4  27
HETATM   27  O4  UNL     1      51.672  50.512  21.968  1.00  0.00    -0.390 OA
ATOM     28  H4  UNL     1      51.896  49.598  22.094  1.00  0.00     0.210 HD
ENDBRANCH   4  27
BRANCH   5  29
HETATM   29  C15 UNL     1      49.119  48.799  20.798  1.00  0.00     0.010 C 
HETATM   30  C16 UNL     1      48.041  48.233  20.425  1.00  0.00     0.038 C 
BRANCH  30  31
HETATM   31  C17 UNL     1      47.104  48.407  19.333  1.00  0.00     0.103 C 
HETATM   32  C22 UNL     1      45.863  48.058  19.579  1.00  0.00     0.123 C 
HETATM   33  C23 UNL     1      44.665  48.094  18.751  1.00  0.00     0.085 C 
HETATM   34  F1  UNL     1      45.644  47.554  20.877  1.00  0.00    -0.208 F 
BRANCH  31  35
HETATM   35  O5  UNL     1      47.485  48.897  18.125  1.00  0.00    -0.339 OA
BRANCH  35  36
HETATM   36  C18 UNL     1      47.992  48.371  16.976  1.00  0.00     0.057 C 
HETATM   37  C19 UNL     1      46.866  48.475  15.913  1.00  0.00     0.045 C 
HETATM   38  C20 UNL     1      49.166  49.148  16.397  1.00  0.00     0.045 C 
HETATM   39  C21 UNL     1      48.340  46.887  16.950  1.00  0.00     0.045 C 
ENDBRANCH  35  36
ENDBRANCH  31  35
ENDBRANCH  30  31
ENDBRANCH   5  29
TORSDOF 15
ENDMDL
MODEL 4
REMARK VINA RESULT: -8.866613135      0.993      1.167
REMARK  15 active torsions:
REMARK  status: ('A' for Active; 'I' for Inactive)
REMARK    1  A    between atoms: C2_2  and  C3_3 
REMARK    2  A    between atoms: C3_3  and  C5_5 
REMARK    3  A    between atoms: C5_5  and  C7_7 
REMARK    4  A    between atoms: C7_7  and  C8_8 
REMARK    5  A    between atoms: C8_8  and  C9_9 
REMARK    6  A    between atoms: C9_9  and  O2_11 
REMARK    7  A    between atoms: O2_11  and  C10_12 
REMARK    8  A    between atoms: C10_12  and  C11_13 
REMARK    9  A    between atoms: C13_16  and  O4_17 
REMARK   10  A    between atoms: C14_19  and  C15_20 
REMARK   11  A    between atoms: C16_21  and  C17_22 
REMARK   12  A    between atoms: C17_22  and  O5_23 
REMARK   13  A    between atoms: O5_23  and  C18_24 
REMARK   14  A    between atoms: C26_34  and  O7_35 
REMARK   15  A    between atoms: C27_37  and  O8_38 
ROOT
HETATM    1  C11 UNL     1      50.627  53.854  19.929  1.00  0.00     0.177 C 
HETATM    2  O3  UNL     1      51.068  52.566  20.315  1.00  0.00    -0.370 OA
HETATM    3  C12 UNL     1      49.957  51.773  20.311  1.00  0.00     0.190 C 
HETATM    4  C13 UNL     1      50.152  50.372  20.776  1.00  0.00     0.182 C 
HETATM    5  C14 UNL     1      49.223  49.583  19.815  1.00  0.00     0.177 C 
HETATM    6  O6  UNL     1      48.552  50.560  19.101  1.00  0.00    -0.363 OA
HETATM    7  C24 UNL     1      49.545  51.518  18.870  1.00  0.00     0.115 C 
HETATM    8  C25 UNL     1      50.694  51.015  18.041  1.00  0.00     0.052 C 
HETATM    9  C26 UNL     1      49.065  52.800  18.289  1.00  0.00     0.186 C 
HETATM   10  C27 UNL     1      50.167  53.836  18.484  1.00  0.00     0.181 C 
ENDROOT
BRANCH   1  11
HETATM   11  C10 UNL     1      51.753  54.844  20.041  1.00  0.00     0.213 C 
BRANCH  11  12
HETATM   12  O2  UNL     1      51.364  56.126  20.470  1.00  0.00    -0.319 OA
BRANCH  12  13
HETATM   13  C9  UNL     1      50.533  56.405  21.512  1.00  0.00     0.258 C 
HETATM   14  O1  UNL     1      50.790  55.878  22.648  1.00  0.00    -0.265 OA
BRANCH  13  15
HETATM   15  C8  UNL     1      49.331  57.270  21.490  1.00  0.00     0.111 C 
BRANCH  15  16
HETATM   16  C7  UNL     1      48.234  56.677  20.639  1.00  0.00     0.014 C 
BRANCH  16  17
HETATM   17  C5  UNL     1      47.260  57.754  20.158  1.00  0.00    -0.014 C 
HETATM   18  C6  UNL     1      45.875  57.355  20.447  1.00  0.00     0.010 C 
BRANCH  17  19
HETATM   19  C3  UNL     1      47.529  58.187  18.775  1.00  0.00    -0.015 C 
HETATM   20  C4  UNL     1      47.105  59.691  18.637  1.00  0.00     0.010 C 
BRANCH  19  21
HETATM   21  C2  UNL     1      46.735  57.472  17.742  1.00  0.00    -0.000 C 
HETATM   22  C1  UNL     1      47.389  57.100  16.459  1.00  0.00     0.005 C 
ENDBRANCH  19  21
ENDBRANCH  17  19
ENDBRANCH  16  17
ENDBRANCH  15  16
ENDBRANCH  13  15
ENDBRANCH  12  13
ENDBRANCH  11  12
ENDBRANCH   1  11
BRANCH  10  23
HETATM   23  O8  UNL     1      49.718  55.110  18.168  1.00  0.00    -0.390 OA
ATOM     24  H8  UNL     1      50.390  55.531  17.645  1.00  0.00     0.210 HD
ENDBRANCH  10  23
BRANCH   9  25
HETATM   25  O7  UNL     1      48.855  52.695  16.906  1.00  0.00    -0.390 OA
ATOM     26  H7  UNL     1      49.572  52.244  16.475  1.00  0.00     0.210 HD
ENDBRANCH   9  25
BRANCH   4  27
HETATM   27  O4  UNL     1      51.437  49.901  20.759  1.00  0.00    -0.390 OA
ATOM     28  H4  UNL     1      51.690  49.342  21.485  1.00  0.00     0.210 HD
ENDBRANCH   4  27
BRANCH   5  29
HETATM   29  C15 UNL     1      48.404  48.641  20.554  1.00  0.00     0.010 C 
HETATM   30  C16 UNL     1      47.292  48.040  20.403  1.00  0.00     0.038 C 
BRANCH  30  31
HETATM   31  C17 UNL     1      46.266  47.999  19.379  1.00  0.00     0.103 C 
HETATM   32  C22 UNL     1      45.102  47.523  19.752  1.00  0.00     0.123 C 
HETATM   33  C23 UNL     1      43.854  47.337  19.021  1.00  0.00     0.085 C 
HETATM   34  F1  UNL     1      45.039  47.114  21.099  1.00  0.00    -0.208 F 
BRANCH  31  35
HETATM   35  O5  UNL     1      46.496  48.421  18.110  1.00  0.00    -0.339 OA
BRANCH  35  36
HETATM   36  C18 UNL     1      46.998  47.864  16.972  1.00  0.00     0.057 C 
HETATM   37  C19 UNL     1      47.475  49.041  16.081  1.00  0.00     0.045 C 
HETATM   38  C20 UNL     1      48.231  46.998  17.190  1.00  0.00     0.045 C 
HETATM   39  C21 UNL     1      46.042  47.113  16.051  1.00  0.00     0.045 C 
ENDBRANCH  35  36
ENDBRANCH  31  35
ENDBRANCH  30  31
ENDBRANCH   5  29
TORSDOF 15
ENDMDL
MODEL 5
REMARK VINA RESULT: -8.664513972      1.936      3.519
REMARK  15 active torsions:
REMARK  status: ('A' for Active; 'I' for Inactive)
REMARK    1  A    between atoms: C2_2  and  C3_3 
REMARK    2  A    between atoms: C3_3  and  C5_5 
REMARK    3  A    between atoms: C5_5  and  C7_7 
REMARK    4  A    between atoms: C7_7  and  C8_8 
REMARK    5  A    between atoms: C8_8  and  C9_9 
REMARK    6  A    between atoms: C9_9  and  O2_11 
REMARK    7  A    between atoms: O2_11  and  C10_12 
REMARK    8  A    between atoms: C10_12  and  C11_13 
REMARK    9  A    between atoms: C13_16  and  O4_17 
REMARK   10  A    between atoms: C14_19  and  C15_20 
REMARK   11  A    between atoms: C16_21  and  C17_22 
REMARK   12  A    between atoms: C17_22  and  O5_23 
REMARK   13  A    between atoms: O5_23  and  C18_24 
REMARK   14  A    between atoms: C26_34  and  O7_35 
REMARK   15  A    between atoms: C27_37  and  O8_38 
ROOT
HETATM    1  C11 UNL     1      51.193  55.742  20.565  1.00  0.00     0.177 C 
HETATM    2  O3  UNL     1      50.367  55.301  19.505  1.00  0.00    -0.370 OA
HETATM    3  C12 UNL     1      50.698  53.993  19.291  1.00  0.00     0.190 C 
HETATM    4  C13 UNL     1      50.017  53.324  18.149  1.00  0.00     0.182 C 
HETATM    5  C14 UNL     1      49.774  51.898  18.712  1.00  0.00     0.177 C 
HETATM    6  O6  UNL     1      50.433  51.887  19.928  1.00  0.00    -0.363 OA
HETATM    7  C24 UNL     1      50.162  53.159  20.443  1.00  0.00     0.115 C 
HETATM    8  C25 UNL     1      48.701  53.418  20.687  1.00  0.00     0.052 C 
HETATM    9  C26 UNL     1      50.920  53.519  21.671  1.00  0.00     0.186 C 
HETATM   10  C27 UNL     1      50.817  55.030  21.850  1.00  0.00     0.181 C 
ENDROOT
BRANCH   1  11
HETATM   11  C10 UNL     1      51.009  57.218  20.786  1.00  0.00     0.213 C 
BRANCH  11  12
HETATM   12  O2  UNL     1      49.761  57.719  20.372  1.00  0.00    -0.319 OA
BRANCH  12  13
HETATM   13  C9  UNL     1      48.618  57.738  21.111  1.00  0.00     0.258 C 
HETATM   14  O1  UNL     1      48.693  58.115  22.330  1.00  0.00    -0.265 OA
BRANCH  13  15
HETATM   15  C8  UNL     1      47.257  57.362  20.663  1.00  0.00     0.111 C 
BRANCH  15  16
HETATM   16  C7  UNL     1      47.278  56.724  19.295  1.00  0.00     0.014 C 
BRANCH  16  17
HETATM   17  C5  UNL     1      46.477  57.548  18.286  1.00  0.00    -0.014 C 
HETATM   18  C6  UNL     1      47.229  57.687  17.030  1.00  0.00     0.010 C 
BRANCH  17  19
HETATM   19  C3  UNL     1      45.952  58.799  18.862  1.00  0.00    -0.015 C 
HETATM   20  C4  UNL     1      44.407  58.855  18.598  1.00  0.00     0.010 C 
BRANCH  19  21
HETATM   21  C2  UNL     1      46.489  60.036  18.237  1.00  0.00    -0.000 C 
HETATM   22  C1  UNL     1      45.833  61.337  18.534  1.00  0.00     0.005 C 
ENDBRANCH  19  21
ENDBRANCH  17  19
ENDBRANCH  16  17
ENDBRANCH  15  16
ENDBRANCH  13  15
ENDBRANCH  12  13
ENDBRANCH  11  12
ENDBRANCH   1  11
BRANCH  10  23
HETATM   23  O8  UNL     1      51.675  55.476  22.846  1.00  0.00    -0.390 OA
ATOM     24  H8  UNL     1      52.564  55.355  22.535  1.00  0.00     0.210 HD
ENDBRANCH  10  23
BRANCH   9  25
HETATM   25  O7  UNL     1      50.353  52.942  22.818  1.00  0.00    -0.390 OA
ATOM     26  H7  UNL     1      50.432  51.995  22.810  1.00  0.00     0.210 HD
ENDBRANCH   9  25
BRANCH   4  27
HETATM   27  O4  UNL     1      48.864  53.911  17.702  1.00  0.00    -0.390 OA
ATOM     28  H4  UNL     1      48.557  53.637  16.845  1.00  0.00     0.210 HD
ENDBRANCH   4  27
BRANCH   5  29
HETATM   29  C15 UNL     1      50.173  50.892  17.747  1.00  0.00     0.010 C 
HETATM   30  C16 UNL     1      49.614  50.140  16.885  1.00  0.00     0.038 C 
BRANCH  30  31
HETATM   31  C17 UNL     1      48.256  49.918  16.428  1.00  0.00     0.103 C 
HETATM   32  C22 UNL     1      48.072  49.965  15.129  1.00  0.00     0.123 C 
HETATM   33  C23 UNL     1      46.877  49.787  14.315  1.00  0.00     0.085 C 
HETATM   34  F1  UNL     1      49.236  50.237  14.382  1.00  0.00    -0.208 F 
BRANCH  31  35
HETATM   35  O5  UNL     1      47.234  49.682  17.289  1.00  0.00    -0.339 OA
BRANCH  35  36
HETATM   36  C18 UNL     1      46.778  48.607  17.991  1.00  0.00     0.057 C 
HETATM   37  C19 UNL     1      45.239  48.775  18.099  1.00  0.00     0.045 C 
HETATM   38  C20 UNL     1      46.989  47.270  17.294  1.00  0.00     0.045 C 
HETATM   39  C21 UNL     1      47.202  48.460  19.448  1.00  0.00     0.045 C 
ENDBRANCH  35  36
ENDBRANCH  31  35
ENDBRANCH  30  31
ENDBRANCH   5  29
TORSDOF 15
ENDMDL
