MODEL 1
REMARK VINA RESULT: -8.366808804      0.000      0.000
REMARK  12 active torsions:
REMARK  status: ('A' for Active; 'I' for Inactive)
REMARK    1  A    between atoms: C2_2  and  N1_3 
REMARK    2  A    between atoms: N1_3  and  C3_5 
REMARK    3  A    between atoms: C4_8  and  C5_9 
REMARK    4  A    between atoms: C6_10  and  C7_11 
REMARK    5  A    between atoms: C9_13  and  O1_14 
REMARK    6  A    between atoms: C11_16  and  O2_17 
REMARK    7  A    between atoms: C13_19  and  O3_20 
REMARK    8  A    between atoms: C17_24  and  N3_25 
REMARK    9  A    between atoms: N3_25  and  C18_27 
REMARK   10  A    between atoms: C20_29  and  O4_30 
REMARK   11  A    between atoms: C22_32  and  O5_33 
REMARK   12  A    between atoms: C24_35  and  O6_36 
ROOT
HETATM    1  C3  UNL     1      50.744  56.560  21.462  1.00  0.00     0.680 A 
HETATM    2  N2  UNL     1      49.812  57.441  21.013  1.00  0.00    -0.192 N 
ATOM      3  H2  UNL     1      50.009  58.440  21.081  1.00  0.00     0.184 HD
HETATM    4  C4  UNL     1      48.639  57.047  20.482  1.00  0.00     0.052 A 
HETATM    5  C16 UNL     1      48.384  55.703  20.395  1.00  0.00     0.079 A 
HETATM    6  C17 UNL     1      49.328  54.778  20.850  1.00  0.00     0.123 A 
HETATM    7  N4  UNL     1      50.497  55.248  21.378  1.00  0.00    -0.177 N 
ATOM      8  H4  UNL     1      51.195  54.585  21.715  1.00  0.00     0.186 HD
ENDROOT
BRANCH   4   9
HETATM    9  C5  UNL     1      47.666  58.053  20.011  1.00  0.00     0.031 C 
HETATM   10  C6  UNL     1      46.714  57.799  19.164  1.00  0.00     0.014 C 
BRANCH  10  11
HETATM   11  C7  UNL     1      45.775  58.800  18.716  1.00  0.00    -0.031 A 
HETATM   12  C8  UNL     1      46.203  59.926  17.995  1.00  0.00     0.051 A 
HETATM   13  C9  UNL     1      45.314  60.886  17.574  1.00  0.00     0.105 A 
HETATM   14  C11 UNL     1      43.978  60.713  17.882  1.00  0.00     0.135 A 
HETATM   15  C13 UNL     1      43.505  59.637  18.580  1.00  0.00     0.105 A 
HETATM   16  C15 UNL     1      44.437  58.674  18.996  1.00  0.00     0.051 A 
BRANCH  13  17
HETATM   17  O1  UNL     1      45.753  61.970  16.874  1.00  0.00    -0.353 OA
HETATM   18  C10 UNL     1      46.300  63.156  17.318  1.00  0.00     0.210 C 
ENDBRANCH  13  17
BRANCH  14  19
HETATM   19  O2  UNL     1      43.090  61.682  17.460  1.00  0.00    -0.351 OA
HETATM   20  C12 UNL     1      42.753  62.726  18.353  1.00  0.00     0.210 C 
ENDBRANCH  14  19
BRANCH  15  21
HETATM   21  O3  UNL     1      42.170  59.499  18.864  1.00  0.00    -0.353 OA
HETATM   22  C14 UNL     1      41.272  58.759  18.062  1.00  0.00     0.210 C 
ENDBRANCH  15  21
ENDBRANCH  10  11
ENDBRANCH   4   9
BRANCH   1  23
HETATM   23  N1  UNL     1      51.837  57.033  21.957  1.00  0.00    -0.226 N 
ATOM     24  H1  UNL     1      52.143  56.683  22.865  1.00  0.00     0.177 HD
BRANCH  23  25
HETATM   25  C2  UNL     1      52.646  58.018  21.311  1.00  0.00     0.133 C 
HETATM   26  C1  UNL     1      53.614  57.345  20.361  1.00  0.00     0.027 C 
ENDBRANCH  23  25
ENDBRANCH   1  23
BRANCH   6  27
HETATM   27  N3  UNL     1      49.176  53.546  20.806  1.00  0.00    -0.342 N 
ATOM     28  H3  UNL     1      48.888  53.086  21.669  1.00  0.00     0.167 HD
BRANCH  27  29
HETATM   29  C18 UNL     1      49.362  52.732  19.690  1.00  0.00     0.039 A 
HETATM   30  C19 UNL     1      50.371  51.794  19.674  1.00  0.00     0.069 A 
HETATM   31  C20 UNL     1      50.613  50.927  18.634  1.00  0.00     0.106 A 
HETATM   32  C22 UNL     1      49.765  51.024  17.526  1.00  0.00     0.135 A 
HETATM   33  C24 UNL     1      48.743  51.945  17.490  1.00  0.00     0.106 A 
HETATM   34  C26 UNL     1      48.548  52.783  18.555  1.00  0.00     0.069 A 
BRANCH  31  35
HETATM   35  O4  UNL     1      51.635  50.011  18.669  1.00  0.00    -0.353 OA
HETATM   36  C21 UNL     1      52.157  49.533  19.863  1.00  0.00     0.210 C 
ENDBRANCH  31  35
BRANCH  32  37
HETATM   37  O5  UNL     1      49.989  50.166  16.469  1.00  0.00    -0.351 OA
HETATM   38  C23 UNL     1      49.171  48.998  16.294  1.00  0.00     0.210 C 
ENDBRANCH  32  37
BRANCH  33  39
HETATM   39  O6  UNL     1      47.900  52.024  16.355  1.00  0.00    -0.353 OA
HETATM   40  C25 UNL     1      47.014  53.119  16.301  1.00  0.00     0.210 C 
ENDBRANCH  33  39
ENDBRANCH  27  29
ENDBRANCH   6  27
TORSDOF 12
ENDMDL
MODEL 2
REMARK VINA RESULT: -8.361582173      0.073      2.106
REMARK  12 active torsions:
REMARK  status: ('A' for Active; 'I' for Inactive)
REMARK    1  A    between atoms: C2_2  and  N1_3 
REMARK    2  A    between atoms: N1_3  and  C3_5 
REMARK    3  A    between atoms: C4_8  and  C5_9 
REMARK    4  A    between atoms: C6_10  and  C7_11 
REMARK    5  A    between atoms: C9_13  and  O1_14 
REMARK    6  A    between atoms: C11_16  and  O2_17 
REMARK    7  A    between atoms: C13_19  and  O3_20 
REMARK    8  A    between atoms: C17_24  and  N3_25 
REMARK    9  A    between atoms: N3_25  and  C18_27 
REMARK   10  A    between atoms: C20_29  and  O4_30 
REMARK   11  A    between atoms: C22_32  and  O5_33 
REMARK   12  A    between atoms: C24_35  and  O6_36 
ROOT
HETATM    1  C3  UNL     1      50.720  56.567  21.459  1.00  0.00     0.680 A 
HETATM    2  N2  UNL     1      49.795  57.449  20.999  1.00  0.00    -0.192 N 
ATOM      3  H2  UNL     1      49.995  58.448  21.064  1.00  0.00     0.184 HD
HETATM    4  C4  UNL     1      48.624  57.058  20.462  1.00  0.00     0.052 A 
HETATM    5  C16 UNL     1      48.365  55.714  20.379  1.00  0.00     0.079 A 
HETATM    6  C17 UNL     1      49.302  54.787  20.844  1.00  0.00     0.123 A 
HETATM    7  N4  UNL     1      50.469  55.255  21.378  1.00  0.00    -0.177 N 
ATOM      8  H4  UNL     1      51.163  54.591  21.722  1.00  0.00     0.186 HD
ENDROOT
BRANCH   4   9
HETATM    9  C5  UNL     1      47.658  58.065  19.980  1.00  0.00     0.031 C 
HETATM   10  C6  UNL     1      46.660  57.793  19.194  1.00  0.00     0.014 C 
BRANCH  10  11
HETATM   11  C7  UNL     1      45.728  58.796  18.734  1.00  0.00    -0.031 A 
HETATM   12  C8  UNL     1      44.356  58.695  19.017  1.00  0.00     0.051 A 
HETATM   13  C9  UNL     1      43.464  59.642  18.574  1.00  0.00     0.105 A 
HETATM   14  C11 UNL     1      43.955  60.703  17.836  1.00  0.00     0.135 A 
HETATM   15  C13 UNL     1      45.280  60.851  17.532  1.00  0.00     0.105 A 
HETATM   16  C15 UNL     1      46.166  59.868  17.998  1.00  0.00     0.051 A 
BRANCH  13  17
HETATM   17  O1  UNL     1      42.137  59.525  18.863  1.00  0.00    -0.353 OA
HETATM   18  C10 UNL     1      41.147  58.803  18.229  1.00  0.00     0.210 C 
ENDBRANCH  13  17
BRANCH  14  19
HETATM   19  O2  UNL     1      43.054  61.649  17.392  1.00  0.00    -0.351 OA
HETATM   20  C12 UNL     1      42.712  62.716  18.257  1.00  0.00     0.210 C 
ENDBRANCH  14  19
BRANCH  15  21
HETATM   21  O3  UNL     1      45.730  61.920  16.799  1.00  0.00    -0.353 OA
HETATM   22  C14 UNL     1      46.290  63.082  17.375  1.00  0.00     0.210 C 
ENDBRANCH  15  21
ENDBRANCH  10  11
ENDBRANCH   4   9
BRANCH   1  23
HETATM   23  N1  UNL     1      51.812  57.038  21.959  1.00  0.00    -0.226 N 
ATOM     24  H1  UNL     1      52.110  56.692  22.871  1.00  0.00     0.177 HD
BRANCH  23  25
HETATM   25  C2  UNL     1      52.630  58.016  21.314  1.00  0.00     0.133 C 
HETATM   26  C1  UNL     1      53.629  57.332  20.406  1.00  0.00     0.027 C 
ENDBRANCH  23  25
ENDBRANCH   1  23
BRANCH   6  27
HETATM   27  N3  UNL     1      49.147  53.556  20.803  1.00  0.00    -0.342 N 
ATOM     28  H3  UNL     1      48.864  53.099  21.670  1.00  0.00     0.167 HD
BRANCH  27  29
HETATM   29  C18 UNL     1      49.322  52.739  19.688  1.00  0.00     0.039 A 
HETATM   30  C19 UNL     1      50.298  51.768  19.684  1.00  0.00     0.069 A 
HETATM   31  C20 UNL     1      50.527  50.896  18.644  1.00  0.00     0.106 A 
HETATM   32  C22 UNL     1      49.698  51.023  17.524  1.00  0.00     0.135 A 
HETATM   33  C24 UNL     1      48.707  51.978  17.476  1.00  0.00     0.106 A 
HETATM   34  C26 UNL     1      48.526  52.820  18.542  1.00  0.00     0.069 A 
BRANCH  31  35
HETATM   35  O4  UNL     1      51.516  49.946  18.691  1.00  0.00    -0.353 OA
HETATM   36  C21 UNL     1      52.114  49.561  19.883  1.00  0.00     0.210 C 
ENDBRANCH  31  35
BRANCH  32  37
HETATM   37  O5  UNL     1      49.908  50.162  16.468  1.00  0.00    -0.351 OA
HETATM   38  C23 UNL     1      49.127  48.963  16.341  1.00  0.00     0.210 C 
ENDBRANCH  32  37
BRANCH  33  39
HETATM   39  O6  UNL     1      47.884  52.088  16.330  1.00  0.00    -0.353 OA
HETATM   40  C25 UNL     1      47.017  53.199  16.279  1.00  0.00     0.210 C 
ENDBRANCH  33  39
ENDBRANCH  27  29
ENDBRANCH   6  27
TORSDOF 12
ENDMDL
MODEL 3
REMARK VINA RESULT: -8.274289714      0.453      2.244
REMARK  12 active torsions:
REMARK  status: ('A' for Active; 'I' for Inactive)
REMARK    1  A    between atoms: C2_2  and  N1_3 
REMARK    2  A    between atoms: N1_3  and  C3_5 
REMARK    3  A    between atoms: C4_8  and  C5_9 
REMARK    4  A    between atoms: C6_10  and  C7_11 
REMARK    5  A    between atoms: C9_13  and  O1_14 
REMARK    6  A    between atoms: C11_16  and  O2_17 
REMARK    7  A    between atoms: C13_19  and  O3_20 
REMARK    8  A    between atoms: C17_24  and  N3_25 
REMARK    9  A    between atoms: N3_25  and  C18_27 
REMARK   10  A    between atoms: C20_29  and  O4_30 
REMARK   11  A    between atoms: C22_32  and  O5_33 
REMARK   12  A    between atoms: C24_35  and  O6_36 
ROOT
HETATM    1  C3  UNL     1      50.849  56.541  21.551  1.00  0.00     0.680 A 
HETATM    2  N2  UNL     1      49.952  57.431  21.050  1.00  0.00    -0.192 N 
ATOM      3  H2  UNL     1      50.172  58.426  21.096  1.00  0.00     0.184 HD
HETATM    4  C4  UNL     1      48.785  57.051  20.497  1.00  0.00     0.052 A 
HETATM    5  C16 UNL     1      48.499  55.712  20.440  1.00  0.00     0.079 A 
HETATM    6  C17 UNL     1      49.406  54.777  20.947  1.00  0.00     0.123 A 
HETATM    7  N4  UNL     1      50.571  55.233  21.495  1.00  0.00    -0.177 N 
ATOM      8  H4  UNL     1      51.242  54.563  21.870  1.00  0.00     0.186 HD
ENDROOT
BRANCH   4   9
HETATM    9  C5  UNL     1      47.852  58.067  19.971  1.00  0.00     0.031 C 
HETATM   10  C6  UNL     1      46.776  57.783  19.300  1.00  0.00     0.014 C 
BRANCH  10  11
HETATM   11  C7  UNL     1      45.877  58.794  18.794  1.00  0.00    -0.031 A 
HETATM   12  C8  UNL     1      46.366  59.934  18.133  1.00  0.00     0.051 A 
HETATM   13  C9  UNL     1      45.516  60.903  17.657  1.00  0.00     0.105 A 
HETATM   14  C11 UNL     1      44.158  60.727  17.847  1.00  0.00     0.135 A 
HETATM   15  C13 UNL     1      43.627  59.638  18.482  1.00  0.00     0.105 A 
HETATM   16  C15 UNL     1      44.521  58.666  18.957  1.00  0.00     0.051 A 
BRANCH  13  17
HETATM   17  O1  UNL     1      46.012  61.999  17.018  1.00  0.00    -0.353 OA
HETATM   18  C10 UNL     1      46.162  63.297  17.459  1.00  0.00     0.210 C 
ENDBRANCH  13  17
BRANCH  14  19
HETATM   19  O2  UNL     1      43.310  61.705  17.370  1.00  0.00    -0.351 OA
HETATM   20  C12 UNL     1      42.879  61.628  16.024  1.00  0.00     0.210 C 
ENDBRANCH  14  19
BRANCH  15  21
HETATM   21  O3  UNL     1      42.273  59.497  18.649  1.00  0.00    -0.353 OA
HETATM   22  C14 UNL     1      41.464  58.682  17.826  1.00  0.00     0.210 C 
ENDBRANCH  15  21
ENDBRANCH  10  11
ENDBRANCH   4   9
BRANCH   1  23
HETATM   23  N1  UNL     1      51.939  57.000  22.064  1.00  0.00    -0.226 N 
ATOM     24  H1  UNL     1      52.162  56.744  23.026  1.00  0.00     0.177 HD
BRANCH  23  25
HETATM   25  C2  UNL     1      52.855  57.847  21.366  1.00  0.00     0.133 C 
HETATM   26  C1  UNL     1      53.516  57.074  20.245  1.00  0.00     0.027 C 
ENDBRANCH  23  25
ENDBRANCH   1  23
BRANCH   6  27
HETATM   27  N3  UNL     1      49.224  53.549  20.932  1.00  0.00    -0.342 N 
ATOM     28  H3  UNL     1      48.899  53.121  21.799  1.00  0.00     0.167 HD
BRANCH  27  29
HETATM   29  C18 UNL     1      49.423  52.699  19.846  1.00  0.00     0.039 A 
HETATM   30  C19 UNL     1      48.620  52.798  18.730  1.00  0.00     0.069 A 
HETATM   31  C20 UNL     1      48.758  52.025  17.600  1.00  0.00     0.106 A 
HETATM   32  C22 UNL     1      49.790  51.081  17.606  1.00  0.00     0.135 A 
HETATM   33  C24 UNL     1      50.620  50.941  18.696  1.00  0.00     0.106 A 
HETATM   34  C26 UNL     1      50.436  51.738  19.795  1.00  0.00     0.069 A 
BRANCH  31  35
HETATM   35  O4  UNL     1      47.929  52.164  16.515  1.00  0.00    -0.353 OA
HETATM   36  C21 UNL     1      47.135  53.288  16.331  1.00  0.00     0.210 C 
ENDBRANCH  31  35
BRANCH  32  37
HETATM   37  O5  UNL     1      49.947  50.294  16.485  1.00  0.00    -0.351 OA
HETATM   38  C23 UNL     1      49.168  49.099  16.321  1.00  0.00     0.210 C 
ENDBRANCH  32  37
BRANCH  33  39
HETATM   39  O6  UNL     1      51.656  49.976  18.678  1.00  0.00    -0.353 OA
HETATM   40  C25 UNL     1      52.177  49.586  19.929  1.00  0.00     0.210 C 
ENDBRANCH  33  39
ENDBRANCH  27  29
ENDBRANCH   6  27
TORSDOF 12
ENDMDL
MODEL 4
REMARK VINA RESULT: -8.188217700      1.258      2.453
REMARK  12 active torsions:
REMARK  status: ('A' for Active; 'I' for Inactive)
REMARK    1  A    between atoms: C2_2  and  N1_3 
REMARK    2  A    between atoms: N1_3  and  C3_5 
REMARK    3  A    between atoms: C4_8  and  C5_9 
REMARK    4  A    between atoms: C6_10  and  C7_11 
REMARK    5  A    between atoms: C9_13  and  O1_14 
REMARK    6  A    between atoms: C11_16  and  O2_17 
REMARK    7  A    between atoms: C13_19  and  O3_20 
REMARK    8  A    between atoms: C17_24  and  N3_25 
REMARK    9  A    between atoms: N3_25  and  C18_27 
REMARK   10  A    between atoms: C20_29  and  O4_30 
REMARK   11  A    between atoms: C22_32  and  O5_33 
REMARK   12  A    between atoms: C24_35  and  O6_36 
ROOT
HETATM    1  C3  UNL     1      50.783  56.306  21.406  1.00  0.00     0.680 A 
HETATM    2  N2  UNL     1      49.735  57.120  21.113  1.00  0.00    -0.192 N 
ATOM      3  H2  UNL     1      49.798  58.108  21.360  1.00  0.00     0.184 HD
HETATM    4  C4  UNL     1      48.617  56.674  20.511  1.00  0.00     0.052 A 
HETATM    5  C16 UNL     1      48.541  55.345  20.184  1.00  0.00     0.079 A 
HETATM    6  C17 UNL     1      49.607  54.488  20.473  1.00  0.00     0.123 A 
HETATM    7  N4  UNL     1      50.711  55.009  21.086  1.00  0.00    -0.177 N 
ATOM      8  H4  UNL     1      51.497  54.396  21.304  1.00  0.00     0.186 HD
ENDROOT
BRANCH   4   9
HETATM    9  C5  UNL     1      47.511  57.608  20.220  1.00  0.00     0.031 C 
HETATM   10  C6  UNL     1      47.374  58.239  19.093  1.00  0.00     0.014 C 
BRANCH  10  11
HETATM   11  C7  UNL     1      46.284  59.150  18.831  1.00  0.00    -0.031 A 
HETATM   12  C8  UNL     1      44.964  58.686  18.707  1.00  0.00     0.051 A 
HETATM   13  C9  UNL     1      43.925  59.548  18.449  1.00  0.00     0.105 A 
HETATM   14  C11 UNL     1      44.216  60.893  18.313  1.00  0.00     0.135 A 
HETATM   15  C13 UNL     1      45.481  61.400  18.424  1.00  0.00     0.105 A 
HETATM   16  C15 UNL     1      46.520  60.494  18.688  1.00  0.00     0.051 A 
BRANCH  13  17
HETATM   17  O1  UNL     1      42.653  59.076  18.335  1.00  0.00    -0.353 OA
HETATM   18  C10 UNL     1      41.943  58.687  17.218  1.00  0.00     0.210 C 
ENDBRANCH  13  17
BRANCH  14  19
HETATM   19  O2  UNL     1      43.169  61.753  18.051  1.00  0.00    -0.351 OA
HETATM   20  C12 UNL     1      42.487  62.341  19.143  1.00  0.00     0.210 C 
ENDBRANCH  14  19
BRANCH  15  21
HETATM   21  O3  UNL     1      45.728  62.742  18.285  1.00  0.00    -0.353 OA
HETATM   22  C14 UNL     1      46.256  63.323  17.111  1.00  0.00     0.210 C 
ENDBRANCH  15  21
ENDBRANCH  10  11
ENDBRANCH   4   9
BRANCH   1  23
HETATM   23  N1  UNL     1      51.812  56.825  21.985  1.00  0.00    -0.226 N 
ATOM     24  H1  UNL     1      52.077  56.466  22.902  1.00  0.00     0.177 HD
BRANCH  23  25
HETATM   25  C2  UNL     1      52.601  57.874  21.422  1.00  0.00     0.133 C 
HETATM   26  C1  UNL     1      53.618  57.293  20.463  1.00  0.00     0.027 C 
ENDBRANCH  23  25
ENDBRANCH   1  23
BRANCH   6  27
HETATM   27  N3  UNL     1      49.620  53.275  20.209  1.00  0.00    -0.342 N 
ATOM     28  H3  UNL     1      50.078  52.662  20.882  1.00  0.00     0.167 HD
BRANCH  27  29
HETATM   29  C18 UNL     1      49.070  52.672  19.079  1.00  0.00     0.039 A 
HETATM   30  C19 UNL     1      49.121  51.303  18.928  1.00  0.00     0.069 A 
HETATM   31  C20 UNL     1      48.582  50.616  17.865  1.00  0.00     0.106 A 
HETATM   32  C22 UNL     1      47.942  51.379  16.883  1.00  0.00     0.135 A 
HETATM   33  C24 UNL     1      47.863  52.750  16.985  1.00  0.00     0.106 A 
HETATM   34  C26 UNL     1      48.419  53.382  18.066  1.00  0.00     0.069 A 
BRANCH  31  35
HETATM   35  O4  UNL     1      48.662  49.250  17.762  1.00  0.00    -0.353 OA
HETATM   36  C21 UNL     1      48.292  48.408  18.801  1.00  0.00     0.210 C 
ENDBRANCH  31  35
BRANCH  32  37
HETATM   37  O5  UNL     1      47.394  50.713  15.807  1.00  0.00    -0.351 OA
HETATM   38  C23 UNL     1      48.213  50.342  14.687  1.00  0.00     0.210 C 
ENDBRANCH  32  37
BRANCH  33  39
HETATM   39  O6  UNL     1      47.212  53.500  15.977  1.00  0.00    -0.353 OA
HETATM   40  C25 UNL     1      47.117  54.891  16.185  1.00  0.00     0.210 C 
ENDBRANCH  33  39
ENDBRANCH  27  29
ENDBRANCH   6  27
TORSDOF 12
ENDMDL
MODEL 5
REMARK VINA RESULT: -8.186885332      1.083      3.061
REMARK  12 active torsions:
REMARK  status: ('A' for Active; 'I' for Inactive)
REMARK    1  A    between atoms: C2_2  and  N1_3 
REMARK    2  A    between atoms: N1_3  and  C3_5 
REMARK    3  A    between atoms: C4_8  and  C5_9 
REMARK    4  A    between atoms: C6_10  and  C7_11 
REMARK    5  A    between atoms: C9_13  and  O1_14 
REMARK    6  A    between atoms: C11_16  and  O2_17 
REMARK    7  A    between atoms: C13_19  and  O3_20 
REMARK    8  A    between atoms: C17_24  and  N3_25 
REMARK    9  A    between atoms: N3_25  and  C18_27 
REMARK   10  A    between atoms: C20_29  and  O4_30 
REMARK   11  A    between atoms: C22_32  and  O5_33 
REMARK   12  A    between atoms: C24_35  and  O6_36 
ROOT
HETATM    1  C3  UNL     1      50.743  56.331  21.496  1.00  0.00     0.680 A 
HETATM    2  N2  UNL     1      49.718  57.170  21.191  1.00  0.00    -0.192 N 
ATOM      3  H2  UNL     1      49.828  58.166  21.380  1.00  0.00     0.184 HD
HETATM    4  C4  UNL     1      48.563  56.737  20.651  1.00  0.00     0.052 A 
HETATM    5  C16 UNL     1      48.425  55.396  20.402  1.00  0.00     0.079 A 
HETATM    6  C17 UNL     1      49.466  54.514  20.706  1.00  0.00     0.123 A 
HETATM    7  N4  UNL     1      50.610  55.022  21.253  1.00  0.00    -0.177 N 
ATOM      8  H4  UNL     1      51.377  54.390  21.480  1.00  0.00     0.186 HD
ENDROOT
BRANCH   4   9
HETATM    9  C5  UNL     1      47.486  57.698  20.343  1.00  0.00     0.031 C 
HETATM   10  C6  UNL     1      47.213  58.120  19.144  1.00  0.00     0.014 C 
BRANCH  10  11
HETATM   11  C7  UNL     1      46.154  59.063  18.866  1.00  0.00    -0.031 A 
HETATM   12  C8  UNL     1      44.823  58.638  18.728  1.00  0.00     0.051 A 
HETATM   13  C9  UNL     1      43.813  59.530  18.454  1.00  0.00     0.105 A 
HETATM   14  C11 UNL     1      44.145  60.865  18.318  1.00  0.00     0.135 A 
HETATM   15  C13 UNL     1      45.424  61.334  18.443  1.00  0.00     0.105 A 
HETATM   16  C15 UNL     1      46.432  60.398  18.723  1.00  0.00     0.051 A 
BRANCH  13  17
HETATM   17  O1  UNL     1      42.529  59.095  18.326  1.00  0.00    -0.353 OA
HETATM   18  C10 UNL     1      41.854  58.622  17.219  1.00  0.00     0.210 C 
ENDBRANCH  13  17
BRANCH  14  19
HETATM   19  O2  UNL     1      43.128  61.755  18.041  1.00  0.00    -0.351 OA
HETATM   20  C12 UNL     1      42.454  62.369  19.123  1.00  0.00     0.210 C 
ENDBRANCH  14  19
BRANCH  15  21
HETATM   21  O3  UNL     1      45.713  62.667  18.304  1.00  0.00    -0.353 OA
HETATM   22  C14 UNL     1      46.227  63.237  17.118  1.00  0.00     0.210 C 
ENDBRANCH  15  21
ENDBRANCH  10  11
ENDBRANCH   4   9
BRANCH   1  23
HETATM   23  N1  UNL     1      51.810  56.839  22.013  1.00  0.00    -0.226 N 
ATOM     24  H1  UNL     1      52.110  56.497  22.926  1.00  0.00     0.177 HD
BRANCH  23  25
HETATM   25  C2  UNL     1      52.598  57.852  21.384  1.00  0.00     0.133 C 
HETATM   26  C1  UNL     1      53.552  57.219  20.394  1.00  0.00     0.027 C 
ENDBRANCH  23  25
ENDBRANCH   1  23
BRANCH   6  27
HETATM   27  N3  UNL     1      49.422  53.289  20.510  1.00  0.00    -0.342 N 
ATOM     28  H3  UNL     1      49.653  52.687  21.300  1.00  0.00     0.167 HD
BRANCH  27  29
HETATM   29  C18 UNL     1      49.089  52.656  19.313  1.00  0.00     0.039 A 
HETATM   30  C19 UNL     1      48.420  53.345  18.326  1.00  0.00     0.069 A 
HETATM   31  C20 UNL     1      48.074  52.817  17.103  1.00  0.00     0.106 A 
HETATM   32  C22 UNL     1      48.437  51.487  16.869  1.00  0.00     0.135 A 
HETATM   33  C24 UNL     1      49.107  50.753  17.822  1.00  0.00     0.106 A 
HETATM   34  C26 UNL     1      49.425  51.331  19.023  1.00  0.00     0.069 A 
BRANCH  31  35
HETATM   35  O4  UNL     1      47.405  53.548  16.154  1.00  0.00    -0.353 OA
HETATM   36  C21 UNL     1      47.180  54.911  16.295  1.00  0.00     0.210 C 
ENDBRANCH  31  35
BRANCH  32  37
HETATM   37  O5  UNL     1      48.101  50.934  15.651  1.00  0.00    -0.351 OA
HETATM   38  C23 UNL     1      46.904  50.152  15.513  1.00  0.00     0.210 C 
ENDBRANCH  32  37
BRANCH  33  39
HETATM   39  O6  UNL     1      49.461  49.407  17.562  1.00  0.00    -0.353 OA
HETATM   40  C25 UNL     1      48.691  48.415  18.203  1.00  0.00     0.210 C 
ENDBRANCH  33  39
ENDBRANCH  27  29
ENDBRANCH   6  27
TORSDOF 12
ENDMDL
