MODEL 1
REMARK VINA RESULT: -8.963804051      0.000      0.000
REMARK  14 active torsions:
REMARK  status: ('A' for Active; 'I' for Inactive)
REMARK    1  A    between atoms: C4_4  and  C5_5 
REMARK    2  A    between atoms: C5_5  and  O1_6 
REMARK    3  A    between atoms: C5_5  and  C6_8 
REMARK    4  A    between atoms: C6_8  and  O2_9 
REMARK    5  A    between atoms: C6_8  and  C7_11 
REMARK    6  A    between atoms: C7_11  and  C8_13 
REMARK    7  A    between atoms: C8_13  and  O4_14 
REMARK    8  A    between atoms: C8_13  and  C9_16 
REMARK    9  A    between atoms: C13_22  and  C14_23 
REMARK   10  A    between atoms: C20_29  and  C21_30 
REMARK   11  A    between atoms: C21_30  and  C22_31 
REMARK   12  A    between atoms: C22_31  and  C23_32 
REMARK   13  A    between atoms: C25_34  and  C26_35 
REMARK   14  A    between atoms: C26_35  and  O8_37 
ROOT
HETATM    1  C5  UNL     1      50.375  50.326  17.829  1.00  0.00     0.158 C 
ENDROOT
BRANCH   1   2
HETATM    2  C4  UNL     1      49.571  49.219  17.200  1.00  0.00     0.021 C 
HETATM    3  C3  UNL     1      49.072  49.557  15.812  1.00  0.00     0.040 C 
HETATM    4  C2  UNL     1      47.697  49.013  15.549  1.00  0.00    -0.088 C 
HETATM    5  C1  UNL     1      46.857  49.953  15.136  1.00  0.00     0.014 C 
HETATM    6  C28 UNL     1      47.023  47.698  15.610  1.00  0.00     0.048 C 
HETATM    7  C25 UNL     1      45.935  47.754  16.681  1.00  0.00     0.097 C 
HETATM    8  C20 UNL     1      46.387  47.459  18.038  1.00  0.00     0.022 C 
HETATM    9  C19 UNL     1      47.936  47.552  18.161  1.00  0.00     0.010 C 
HETATM   10  C18 UNL     1      48.376  48.974  18.109  1.00  0.00     0.008 C 
BRANCH   7  11
HETATM   11  C26 UNL     1      44.922  46.727  16.199  1.00  0.00     0.263 C 
HETATM   12  O7  UNL     1      43.947  46.401  16.873  1.00  0.00    -0.265 OA
BRANCH  11  13
HETATM   13  O8  UNL     1      45.159  46.181  14.962  1.00  0.00    -0.326 OA
HETATM   14  C27 UNL     1      44.265  45.247  14.395  1.00  0.00     0.213 C 
ENDBRANCH  11  13
ENDBRANCH   7  11
BRANCH   8  15
HETATM   15  C21 UNL     1      45.861  48.239  19.173  1.00  0.00    -0.025 C 
BRANCH  15  16
HETATM   16  C22 UNL     1      46.006  47.846  20.573  1.00  0.00    -0.031 C 
BRANCH  16  17
HETATM   17  C23 UNL     1      44.955  47.098  21.295  1.00  0.00     0.022 C 
HETATM   18  C24 UNL     1      43.754  46.770  20.408  1.00  0.00     0.009 C 
ENDBRANCH  16  17
ENDBRANCH  15  16
ENDBRANCH   8  15
ENDBRANCH   1   2
BRANCH   1  19
HETATM   19  O1  UNL     1      51.641  50.225  17.185  1.00  0.00    -0.392 OA
ATOM     20  H1  UNL     1      51.973  51.114  17.206  1.00  0.00     0.210 HD
ENDBRANCH   1  19
BRANCH   1  21
HETATM   21  C6  UNL     1      50.593  50.243  19.301  1.00  0.00     0.219 C 
BRANCH  21  22
HETATM   22  O2  UNL     1      51.608  49.221  19.472  1.00  0.00    -0.385 OA
ATOM     23  H2  UNL     1      51.150  48.397  19.354  1.00  0.00     0.210 HD
ENDBRANCH  21  22
BRANCH  21  24
HETATM   24  C7  UNL     1      51.261  51.449  19.858  1.00  0.00     0.188 C 
HETATM   25  O3  UNL     1      52.482  51.313  20.131  1.00  0.00    -0.292 OA
BRANCH  24  26
HETATM   26  C8  UNL     1      50.654  52.756  20.118  1.00  0.00     0.220 C 
BRANCH  26  27
HETATM   27  O4  UNL     1      51.338  53.439  21.093  1.00  0.00    -0.385 OA
ATOM     28  H4  UNL     1      51.016  53.219  21.959  1.00  0.00     0.210 HD
ENDBRANCH  26  27
BRANCH  26  29
HETATM   29  C9  UNL     1      50.561  53.547  18.821  1.00  0.00     0.180 C 
HETATM   30  O5  UNL     1      51.188  54.796  19.074  1.00  0.00    -0.308 OA
HETATM   31  C10 UNL     1      50.302  55.654  19.718  1.00  0.00     0.289 C 
HETATM   32  O6  UNL     1      50.636  56.696  20.325  1.00  0.00    -0.260 OA
HETATM   33  C11 UNL     1      48.964  55.071  19.523  1.00  0.00     0.018 C 
HETATM   34  C12 UNL     1      47.887  55.474  20.143  1.00  0.00     0.026 C 
HETATM   35  C13 UNL     1      49.163  54.001  18.521  1.00  0.00     0.079 C 
BRANCH  35  36
HETATM   36  C14 UNL     1      48.153  52.939  18.585  1.00  0.00    -0.013 C 
HETATM   37  C15 UNL     1      47.271  52.839  17.595  1.00  0.00    -0.091 C 
HETATM   38  C16 UNL     1      46.206  51.768  17.603  1.00  0.00     0.042 C 
HETATM   39  C17 UNL     1      47.304  53.796  16.429  1.00  0.00     0.042 C 
ENDBRANCH  35  36
ENDBRANCH  26  29
ENDBRANCH  24  26
ENDBRANCH  21  24
ENDBRANCH   1  21
TORSDOF 14
ENDMDL
MODEL 2
REMARK VINA RESULT: -8.440429836      1.614      2.471
REMARK  14 active torsions:
REMARK  status: ('A' for Active; 'I' for Inactive)
REMARK    1  A    between atoms: C4_4  and  C5_5 
REMARK    2  A    between atoms: C5_5  and  O1_6 
REMARK    3  A    between atoms: C5_5  and  C6_8 
REMARK    4  A    between atoms: C6_8  and  O2_9 
REMARK    5  A    between atoms: C6_8  and  C7_11 
REMARK    6  A    between atoms: C7_11  and  C8_13 
REMARK    7  A    between atoms: C8_13  and  O4_14 
REMARK    8  A    between atoms: C8_13  and  C9_16 
REMARK    9  A    between atoms: C13_22  and  C14_23 
REMARK   10  A    between atoms: C20_29  and  C21_30 
REMARK   11  A    between atoms: C21_30  and  C22_31 
REMARK   12  A    between atoms: C22_31  and  C23_32 
REMARK   13  A    between atoms: C25_34  and  C26_35 
REMARK   14  A    between atoms: C26_35  and  O8_37 
ROOT
HETATM    1  C5  UNL     1      51.720  51.255  19.913  1.00  0.00     0.158 C 
ENDROOT
BRANCH   1   2
HETATM    2  C4  UNL     1      51.154  50.233  18.965  1.00  0.00     0.021 C 
HETATM    3  C3  UNL     1      50.846  50.795  17.594  1.00  0.00     0.040 C 
HETATM    4  C2  UNL     1      49.599  50.205  17.000  1.00  0.00    -0.088 C 
HETATM    5  C1  UNL     1      48.734  51.138  16.621  1.00  0.00     0.014 C 
HETATM    6  C28 UNL     1      49.075  48.854  16.704  1.00  0.00     0.048 C 
HETATM    7  C25 UNL     1      47.832  48.612  17.559  1.00  0.00     0.097 C 
HETATM    8  C20 UNL     1      48.095  48.094  18.899  1.00  0.00     0.022 C 
HETATM    9  C19 UNL     1      49.585  48.285  19.307  1.00  0.00     0.010 C 
HETATM   10  C18 UNL     1      49.866  49.719  19.590  1.00  0.00     0.008 C 
BRANCH   7  11
HETATM   11  C26 UNL     1      47.029  47.622  16.729  1.00  0.00     0.263 C 
HETATM   12  O7  UNL     1      46.901  46.444  17.058  1.00  0.00    -0.265 OA
BRANCH  11  13
HETATM   13  O8  UNL     1      46.454  48.119  15.587  1.00  0.00    -0.326 OA
HETATM   14  C27 UNL     1      45.712  47.285  14.722  1.00  0.00     0.213 C 
ENDBRANCH  11  13
ENDBRANCH   7  11
BRANCH   8  15
HETATM   15  C21 UNL     1      47.313  48.591  20.045  1.00  0.00    -0.025 C 
BRANCH  15  16
HETATM   16  C22 UNL     1      46.142  47.910  20.594  1.00  0.00    -0.031 C 
BRANCH  16  17
HETATM   17  C23 UNL     1      45.010  47.482  19.745  1.00  0.00     0.022 C 
HETATM   18  C24 UNL     1      43.942  46.722  20.531  1.00  0.00     0.009 C 
ENDBRANCH  16  17
ENDBRANCH  15  16
ENDBRANCH   8  15
ENDBRANCH   1   2
BRANCH   1  19
HETATM   19  O1  UNL     1      52.433  50.469  20.864  1.00  0.00    -0.392 OA
ATOM     20  H1  UNL     1      51.784  49.844  21.166  1.00  0.00     0.210 HD
ENDBRANCH   1  19
BRANCH   1  21
HETATM   21  C6  UNL     1      50.739  52.101  20.651  1.00  0.00     0.219 C 
BRANCH  21  22
HETATM   22  O2  UNL     1      51.200  52.096  22.027  1.00  0.00    -0.385 OA
ATOM     23  H2  UNL     1      50.947  52.944  22.374  1.00  0.00     0.210 HD
ENDBRANCH  21  22
BRANCH  21  24
HETATM   24  C7  UNL     1      50.829  53.541  20.292  1.00  0.00     0.188 C 
HETATM   25  O3  UNL     1      51.644  53.820  19.375  1.00  0.00    -0.292 OA
BRANCH  24  26
HETATM   26  C8  UNL     1      50.081  54.649  20.888  1.00  0.00     0.220 C 
BRANCH  26  27
HETATM   27  O4  UNL     1      50.488  54.890  22.177  1.00  0.00    -0.385 OA
ATOM     28  H4  UNL     1      50.058  55.657  22.537  1.00  0.00     0.210 HD
ENDBRANCH  26  27
BRANCH  26  29
HETATM   29  C9  UNL     1      50.202  55.884  20.007  1.00  0.00     0.180 C 
HETATM   30  O5  UNL     1      50.224  56.998  20.889  1.00  0.00    -0.308 OA
HETATM   31  C10 UNL     1      48.928  57.335  21.266  1.00  0.00     0.289 C 
HETATM   32  O6  UNL     1      48.639  58.064  22.241  1.00  0.00    -0.260 OA
HETATM   33  C11 UNL     1      48.041  56.666  20.300  1.00  0.00     0.018 C 
HETATM   34  C12 UNL     1      46.745  56.574  20.431  1.00  0.00     0.026 C 
HETATM   35  C13 UNL     1      48.946  56.172  19.239  1.00  0.00     0.079 C 
BRANCH  35  36
HETATM   36  C14 UNL     1      48.412  55.024  18.498  1.00  0.00    -0.013 C 
HETATM   37  C15 UNL     1      47.823  55.241  17.326  1.00  0.00    -0.091 C 
HETATM   38  C16 UNL     1      47.254  54.101  16.514  1.00  0.00     0.042 C 
HETATM   39  C17 UNL     1      47.704  56.638  16.766  1.00  0.00     0.042 C 
ENDBRANCH  35  36
ENDBRANCH  26  29
ENDBRANCH  24  26
ENDBRANCH  21  24
ENDBRANCH   1  21
TORSDOF 14
ENDMDL
MODEL 3
REMARK VINA RESULT: -8.185354536      1.767      3.110
REMARK  14 active torsions:
REMARK  status: ('A' for Active; 'I' for Inactive)
REMARK    1  A    between atoms: C4_4  and  C5_5 
REMARK    2  A    between atoms: C5_5  and  O1_6 
REMARK    3  A    between atoms: C5_5  and  C6_8 
REMARK    4  A    between atoms: C6_8  and  O2_9 
REMARK    5  A    between atoms: C6_8  and  C7_11 
REMARK    6  A    between atoms: C7_11  and  C8_13 
REMARK    7  A    between atoms: C8_13  and  O4_14 
REMARK    8  A    between atoms: C8_13  and  C9_16 
REMARK    9  A    between atoms: C13_22  and  C14_23 
REMARK   10  A    between atoms: C20_29  and  C21_30 
REMARK   11  A    between atoms: C21_30  and  C22_31 
REMARK   12  A    between atoms: C22_31  and  C23_32 
REMARK   13  A    between atoms: C25_34  and  C26_35 
REMARK   14  A    between atoms: C26_35  and  O8_37 
ROOT
HETATM    1  C5  UNL     1      51.630  50.958  19.727  1.00  0.00     0.158 C 
ENDROOT
BRANCH   1   2
HETATM    2  C4  UNL     1      51.033  49.916  18.819  1.00  0.00     0.021 C 
HETATM    3  C3  UNL     1      50.802  50.414  17.409  1.00  0.00     0.040 C 
HETATM    4  C2  UNL     1      49.541  49.863  16.807  1.00  0.00    -0.088 C 
HETATM    5  C1  UNL     1      48.746  50.821  16.346  1.00  0.00     0.014 C 
HETATM    6  C28 UNL     1      48.947  48.530  16.569  1.00  0.00     0.048 C 
HETATM    7  C25 UNL     1      47.666  48.411  17.393  1.00  0.00     0.097 C 
HETATM    8  C20 UNL     1      47.855  47.958  18.769  1.00  0.00     0.022 C 
HETATM    9  C19 UNL     1      49.341  48.085  19.216  1.00  0.00     0.010 C 
HETATM   10  C18 UNL     1      49.698  49.515  19.427  1.00  0.00     0.008 C 
BRANCH   7  11
HETATM   11  C26 UNL     1      46.832  47.422  16.594  1.00  0.00     0.263 C 
HETATM   12  O7  UNL     1      46.691  46.252  16.942  1.00  0.00    -0.265 OA
BRANCH  11  13
HETATM   13  O8  UNL     1      46.242  47.912  15.455  1.00  0.00    -0.326 OA
HETATM   14  C27 UNL     1      45.619  47.049  14.527  1.00  0.00     0.213 C 
ENDBRANCH  11  13
ENDBRANCH   7  11
BRANCH   8  15
HETATM   15  C21 UNL     1      47.069  48.566  19.857  1.00  0.00    -0.025 C 
BRANCH  15  16
HETATM   16  C22 UNL     1      45.930  47.918  20.503  1.00  0.00    -0.031 C 
BRANCH  16  17
HETATM   17  C23 UNL     1      44.844  47.278  19.730  1.00  0.00     0.022 C 
HETATM   18  C24 UNL     1      43.722  46.748  20.622  1.00  0.00     0.009 C 
ENDBRANCH  16  17
ENDBRANCH  15  16
ENDBRANCH   8  15
ENDBRANCH   1   2
BRANCH   1  19
HETATM   19  O1  UNL     1      52.539  50.215  20.534  1.00  0.00    -0.392 OA
ATOM     20  H1  UNL     1      52.479  49.334  20.182  1.00  0.00     0.210 HD
ENDBRANCH   1  19
BRANCH   1  21
HETATM   21  C6  UNL     1      50.688  51.678  20.630  1.00  0.00     0.219 C 
BRANCH  21  22
HETATM   22  O2  UNL     1      51.270  51.556  21.954  1.00  0.00    -0.385 OA
ATOM     23  H2  UNL     1      51.808  52.332  22.058  1.00  0.00     0.210 HD
ENDBRANCH  21  22
BRANCH  21  24
HETATM   24  C7  UNL     1      50.692  53.150  20.417  1.00  0.00     0.188 C 
HETATM   25  O3  UNL     1      51.357  53.815  21.253  1.00  0.00    -0.292 OA
BRANCH  24  26
HETATM   26  C8  UNL     1      50.011  53.892  19.355  1.00  0.00     0.220 C 
BRANCH  26  27
HETATM   27  O4  UNL     1      50.340  53.405  18.115  1.00  0.00    -0.385 OA
ATOM     28  H4  UNL     1      49.599  53.440  17.522  1.00  0.00     0.210 HD
ENDBRANCH  26  27
BRANCH  26  29
HETATM   29  C9  UNL     1      48.508  53.875  19.598  1.00  0.00     0.180 C 
HETATM   30  O5  UNL     1      47.925  53.315  18.430  1.00  0.00    -0.308 OA
HETATM   31  C10 UNL     1      47.804  54.289  17.443  1.00  0.00     0.289 C 
HETATM   32  O6  UNL     1      47.606  54.051  16.231  1.00  0.00    -0.260 OA
HETATM   33  C11 UNL     1      47.955  55.581  18.132  1.00  0.00     0.018 C 
HETATM   34  C12 UNL     1      48.100  56.728  17.524  1.00  0.00     0.026 C 
HETATM   35  C13 UNL     1      47.903  55.248  19.572  1.00  0.00     0.079 C 
BRANCH  35  36
HETATM   36  C14 UNL     1      48.582  56.226  20.428  1.00  0.00    -0.013 C 
HETATM   37  C15 UNL     1      47.871  57.226  20.941  1.00  0.00    -0.091 C 
HETATM   38  C16 UNL     1      48.512  58.266  21.829  1.00  0.00     0.042 C 
HETATM   39  C17 UNL     1      46.396  57.355  20.649  1.00  0.00     0.042 C 
ENDBRANCH  35  36
ENDBRANCH  26  29
ENDBRANCH  24  26
ENDBRANCH  21  24
ENDBRANCH   1  21
TORSDOF 14
ENDMDL
MODEL 4
REMARK VINA RESULT: -8.161268094      2.086      8.087
REMARK  14 active torsions:
REMARK  status: ('A' for Active; 'I' for Inactive)
REMARK    1  A    between atoms: C4_4  and  C5_5 
REMARK    2  A    between atoms: C5_5  and  O1_6 
REMARK    3  A    between atoms: C5_5  and  C6_8 
REMARK    4  A    between atoms: C6_8  and  O2_9 
REMARK    5  A    between atoms: C6_8  and  C7_11 
REMARK    6  A    between atoms: C7_11  and  C8_13 
REMARK    7  A    between atoms: C8_13  and  O4_14 
REMARK    8  A    between atoms: C8_13  and  C9_16 
REMARK    9  A    between atoms: C13_22  and  C14_23 
REMARK   10  A    between atoms: C20_29  and  C21_30 
REMARK   11  A    between atoms: C21_30  and  C22_31 
REMARK   12  A    between atoms: C22_31  and  C23_32 
REMARK   13  A    between atoms: C25_34  and  C26_35 
REMARK   14  A    between atoms: C26_35  and  O8_37 
ROOT
HETATM    1  C5  UNL     1      51.001  51.461  18.801  1.00  0.00     0.158 C 
ENDROOT
BRANCH   1   2
HETATM    2  C4  UNL     1      49.921  52.323  19.398  1.00  0.00     0.021 C 
HETATM    3  C3  UNL     1      48.985  52.909  18.364  1.00  0.00     0.040 C 
HETATM    4  C2  UNL     1      48.556  54.307  18.707  1.00  0.00    -0.088 C 
HETATM    5  C1  UNL     1      48.785  55.159  17.716  1.00  0.00     0.014 C 
HETATM    6  C28 UNL     1      47.927  54.997  19.855  1.00  0.00     0.048 C 
HETATM    7  C25 UNL     1      48.920  56.009  20.423  1.00  0.00     0.097 C 
HETATM    8  C20 UNL     1      49.858  55.470  21.405  1.00  0.00     0.022 C 
HETATM    9  C19 UNL     1      49.910  53.915  21.357  1.00  0.00     0.010 C 
HETATM   10  C18 UNL     1      50.621  53.458  20.132  1.00  0.00     0.008 C 
BRANCH   7  11
HETATM   11  C26 UNL     1      48.019  57.068  21.039  1.00  0.00     0.263 C 
HETATM   12  O7  UNL     1      48.385  57.775  21.976  1.00  0.00    -0.265 OA
BRANCH  11  13
HETATM   13  O8  UNL     1      46.768  57.190  20.489  1.00  0.00    -0.326 OA
HETATM   14  C27 UNL     1      46.515  58.116  19.453  1.00  0.00     0.213 C 
ENDBRANCH  11  13
ENDBRANCH   7  11
BRANCH   8  15
HETATM   15  C21 UNL     1      51.266  55.906  21.391  1.00  0.00    -0.025 C 
BRANCH  15  16
HETATM   16  C22 UNL     1      51.798  56.925  20.490  1.00  0.00    -0.031 C 
BRANCH  16  17
HETATM   17  C23 UNL     1      53.208  57.364  20.541  1.00  0.00     0.022 C 
HETATM   18  C24 UNL     1      53.668  57.700  21.959  1.00  0.00     0.009 C 
ENDBRANCH  16  17
ENDBRANCH  15  16
ENDBRANCH   8  15
ENDBRANCH   1   2
BRANCH   1  19
HETATM   19  O1  UNL     1      51.070  51.903  17.448  1.00  0.00    -0.392 OA
ATOM     20  H1  UNL     1      51.949  52.255  17.374  1.00  0.00     0.210 HD
ENDBRANCH   1  19
BRANCH   1  21
HETATM   21  C6  UNL     1      50.761  49.990  18.799  1.00  0.00     0.219 C 
BRANCH  21  22
HETATM   22  O2  UNL     1      51.972  49.412  19.350  1.00  0.00    -0.385 OA
ATOM     23  H2  UNL     1      52.605  49.446  18.643  1.00  0.00     0.210 HD
ENDBRANCH  21  22
BRANCH  21  24
HETATM   24  C7  UNL     1      49.731  49.569  19.785  1.00  0.00     0.188 C 
HETATM   25  O3  UNL     1      49.901  49.992  20.958  1.00  0.00    -0.292 OA
BRANCH  24  26
HETATM   26  C8  UNL     1      48.560  48.726  19.537  1.00  0.00     0.220 C 
BRANCH  26  27
HETATM   27  O4  UNL     1      47.977  48.322  20.712  1.00  0.00    -0.385 OA
ATOM     28  H4  UNL     1      47.216  48.851  20.920  1.00  0.00     0.210 HD
ENDBRANCH  26  27
BRANCH  26  29
HETATM   29  C9  UNL     1      47.581  49.460  18.633  1.00  0.00     0.180 C 
HETATM   30  O5  UNL     1      46.282  49.081  19.067  1.00  0.00    -0.308 OA
HETATM   31  C10 UNL     1      45.937  47.848  18.522  1.00  0.00     0.289 C 
HETATM   32  O6  UNL     1      45.004  47.125  18.938  1.00  0.00    -0.260 OA
HETATM   33  C11 UNL     1      46.876  47.621  17.412  1.00  0.00     0.018 C 
HETATM   34  C12 UNL     1      47.006  46.487  16.777  1.00  0.00     0.026 C 
HETATM   35  C13 UNL     1      47.568  48.917  17.234  1.00  0.00     0.079 C 
BRANCH  35  36
HETATM   36  C14 UNL     1      48.893  48.797  16.617  1.00  0.00    -0.013 C 
HETATM   37  C15 UNL     1      49.157  49.515  15.530  1.00  0.00    -0.091 C 
HETATM   38  C16 UNL     1      50.503  49.436  14.849  1.00  0.00     0.042 C 
HETATM   39  C17 UNL     1      48.117  50.435  14.939  1.00  0.00     0.042 C 
ENDBRANCH  35  36
ENDBRANCH  26  29
ENDBRANCH  24  26
ENDBRANCH  21  24
ENDBRANCH   1  21
TORSDOF 14
ENDMDL
MODEL 5
REMARK VINA RESULT: -8.155990021      1.887      4.006
REMARK  14 active torsions:
REMARK  status: ('A' for Active; 'I' for Inactive)
REMARK    1  A    between atoms: C4_4  and  C5_5 
REMARK    2  A    between atoms: C5_5  and  O1_6 
REMARK    3  A    between atoms: C5_5  and  C6_8 
REMARK    4  A    between atoms: C6_8  and  O2_9 
REMARK    5  A    between atoms: C6_8  and  C7_11 
REMARK    6  A    between atoms: C7_11  and  C8_13 
REMARK    7  A    between atoms: C8_13  and  O4_14 
REMARK    8  A    between atoms: C8_13  and  C9_16 
REMARK    9  A    between atoms: C13_22  and  C14_23 
REMARK   10  A    between atoms: C20_29  and  C21_30 
REMARK   11  A    between atoms: C21_30  and  C22_31 
REMARK   12  A    between atoms: C22_31  and  C23_32 
REMARK   13  A    between atoms: C25_34  and  C26_35 
REMARK   14  A    between atoms: C26_35  and  O8_37 
ROOT
HETATM    1  C5  UNL     1      50.256  53.049  18.571  1.00  0.00     0.158 C 
ENDROOT
BRANCH   1   2
HETATM    2  C4  UNL     1      49.091  52.136  18.850  1.00  0.00     0.021 C 
HETATM    3  C3  UNL     1      49.501  50.814  19.461  1.00  0.00     0.040 C 
HETATM    4  C2  UNL     1      48.670  49.669  18.958  1.00  0.00    -0.088 C 
HETATM    5  C1  UNL     1      49.415  48.684  18.472  1.00  0.00     0.014 C 
HETATM    6  C28 UNL     1      47.233  49.329  18.872  1.00  0.00     0.048 C 
HETATM    7  C25 UNL     1      46.841  49.226  17.399  1.00  0.00     0.097 C 
HETATM    8  C20 UNL     1      46.465  50.489  16.770  1.00  0.00     0.022 C 
HETATM    9  C19 UNL     1      46.932  51.713  17.612  1.00  0.00     0.010 C 
HETATM   10  C18 UNL     1      48.409  51.874  17.516  1.00  0.00     0.008 C 
BRANCH   7  11
HETATM   11  C26 UNL     1      45.677  48.248  17.419  1.00  0.00     0.263 C 
HETATM   12  O7  UNL     1      45.648  47.248  16.704  1.00  0.00    -0.265 OA
BRANCH  11  13
HETATM   13  O8  UNL     1      44.653  48.546  18.284  1.00  0.00    -0.326 OA
HETATM   14  C27 UNL     1      43.893  47.524  18.893  1.00  0.00     0.213 C 
ENDBRANCH  11  13
ENDBRANCH   7  11
BRANCH   8  15
HETATM   15  C21 UNL     1      46.897  50.780  15.391  1.00  0.00    -0.025 C 
BRANCH  15  16
HETATM   16  C22 UNL     1      47.508  49.795  14.501  1.00  0.00    -0.031 C 
BRANCH  16  17
HETATM   17  C23 UNL     1      48.913  49.901  14.053  1.00  0.00     0.022 C 
HETATM   18  C24 UNL     1      49.909  49.512  15.145  1.00  0.00     0.009 C 
ENDBRANCH  16  17
ENDBRANCH  15  16
ENDBRANCH   8  15
ENDBRANCH   1   2
BRANCH   1  19
HETATM   19  O1  UNL     1      50.936  52.402  17.500  1.00  0.00    -0.392 OA
ATOM     20  H1  UNL     1      50.993  53.077  16.834  1.00  0.00     0.210 HD
ENDBRANCH   1  19
BRANCH   1  21
HETATM   21  C6  UNL     1      51.227  53.255  19.683  1.00  0.00     0.219 C 
BRANCH  21  22
HETATM   22  O2  UNL     1      52.535  53.121  19.067  1.00  0.00    -0.385 OA
ATOM     23  H2  UNL     1      53.151  53.167  19.789  1.00  0.00     0.210 HD
ENDBRANCH  21  22
BRANCH  21  24
HETATM   24  C7  UNL     1      51.253  54.657  20.178  1.00  0.00     0.188 C 
HETATM   25  O3  UNL     1      52.373  55.228  20.127  1.00  0.00    -0.292 OA
BRANCH  24  26
HETATM   26  C8  UNL     1      50.128  55.427  20.712  1.00  0.00     0.220 C 
BRANCH  26  27
HETATM   27  O4  UNL     1      50.213  55.553  22.077  1.00  0.00    -0.385 OA
ATOM     28  H4  UNL     1      50.162  56.464  22.343  1.00  0.00     0.210 HD
ENDBRANCH  26  27
BRANCH  26  29
HETATM   29  C9  UNL     1      50.053  56.778  20.015  1.00  0.00     0.180 C 
HETATM   30  O5  UNL     1      49.972  57.752  21.046  1.00  0.00    -0.308 OA
HETATM   31  C10 UNL     1      48.662  57.859  21.500  1.00  0.00     0.289 C 
HETATM   32  O6  UNL     1      48.325  58.400  22.577  1.00  0.00    -0.260 OA
HETATM   33  C11 UNL     1      47.825  57.219  20.472  1.00  0.00     0.018 C 
HETATM   34  C12 UNL     1      46.558  56.940  20.621  1.00  0.00     0.026 C 
HETATM   35  C13 UNL     1      48.738  57.001  19.328  1.00  0.00     0.079 C 
BRANCH  35  36
HETATM   36  C14 UNL     1      48.322  55.907  18.444  1.00  0.00    -0.013 C 
HETATM   37  C15 UNL     1      47.669  56.205  17.325  1.00  0.00    -0.091 C 
HETATM   38  C16 UNL     1      47.214  55.125  16.373  1.00  0.00     0.042 C 
HETATM   39  C17 UNL     1      47.359  57.639  16.969  1.00  0.00     0.042 C 
ENDBRANCH  35  36
ENDBRANCH  26  29
ENDBRANCH  24  26
ENDBRANCH  21  24
ENDBRANCH   1  21
TORSDOF 14
ENDMDL
