MODEL 1
REMARK VINA RESULT: -7.063424583      0.000      0.000
REMARK  5 active torsions:
REMARK  status: ('A' for Active; 'I' for Inactive)
REMARK    1  A    between atoms: C2_2  and  C3_3 
REMARK    2  A    between atoms: C5_9  and  N3_10 
REMARK    3  A    between atoms: C7_18  and  N6_19 
REMARK    4  A    between atoms: N6_19  and  C9_21 
REMARK    5  A    between atoms: C9_21  and  C10_22 
ROOT
HETATM    1  C3  UNL     1       5.992  21.009  73.774  1.00  0.00     0.055 A 
HETATM    2  N1  UNL     1       5.887  21.503  75.045  1.00  0.00    -0.339 N 
ATOM      3  H1  UNL     1       5.648  22.487  75.162  1.00  0.00     0.167 HD
HETATM    4  C4  UNL     1       6.078  20.771  76.128  1.00  0.00     0.166 A 
HETATM    5  N2  UNL     1       6.041  21.004  77.471  1.00  0.00    -0.173 N 
ATOM      6  H2  UNL     1       5.830  21.899  77.911  1.00  0.00     0.186 HD
HETATM    7  C5  UNL     1       6.330  19.860  78.122  1.00  0.00     0.679 A 
HETATM    8  N4  UNL     1       6.542  18.929  77.187  1.00  0.00    -0.173 N 
ATOM      9  H4  UNL     1       6.781  17.957  77.381  1.00  0.00     0.186 HD
HETATM   10  C6  UNL     1       6.398  19.450  75.958  1.00  0.00     0.167 A 
HETATM   11  N5  UNL     1       6.505  18.946  74.726  1.00  0.00    -0.324 N 
ATOM     12  H5  UNL     1       6.744  17.960  74.618  1.00  0.00     0.169 HD
HETATM   13  C7  UNL     1       6.306  19.711  73.587  1.00  0.00     0.128 A 
ENDROOT
BRANCH  13  14
HETATM   14  N6  UNL     1       6.490  19.100  72.352  1.00  0.00    -0.365 N 
HETATM   15  C8  UNL     1       5.846  17.750  72.185  1.00  0.00     0.151 C 
BRANCH  14  16
HETATM   16  C9  UNL     1       7.238  19.458  71.190  1.00  0.00     0.167 C 
BRANCH  16  17
HETATM   17  C10 UNL     1       8.582  19.958  71.668  1.00  0.00     0.072 C 
HETATM   18  N7  UNL     1       9.509  20.283  70.872  1.00  0.00    -0.410 N 
ATOM     19  H72 UNL     1       9.326  20.198  69.872  1.00  0.00     0.155 HD
ATOM     20  H71 UNL     1      10.416  20.621  71.194  1.00  0.00     0.155 HD
ENDBRANCH  16  17
ENDBRANCH  14  16
ENDBRANCH  13  14
BRANCH   1  21
HETATM   21  C2  UNL     1       5.736  21.963  72.698  1.00  0.00     0.056 C 
HETATM   22  C1  UNL     1       4.917  23.160  73.254  1.00  0.00     0.011 C 
ENDBRANCH   1  21
BRANCH   7  23
HETATM   23  N3  UNL     1       6.384  19.709  79.409  1.00  0.00    -0.234 N 
ATOM     24  H32 UNL     1       5.602  19.565  80.048  1.00  0.00     0.174 HD
ATOM     25  H31 UNL     1       7.231  19.714  79.977  1.00  0.00     0.174 HD
ENDBRANCH   7  23
TORSDOF 5
ENDMDL
MODEL 2
REMARK VINA RESULT: -6.223925439      0.966      2.684
REMARK  5 active torsions:
REMARK  status: ('A' for Active; 'I' for Inactive)
REMARK    1  A    between atoms: C2_2  and  C3_3 
REMARK    2  A    between atoms: C5_9  and  N3_10 
REMARK    3  A    between atoms: C7_18  and  N6_19 
REMARK    4  A    between atoms: N6_19  and  C9_21 
REMARK    5  A    between atoms: C9_21  and  C10_22 
ROOT
HETATM    1  C3  UNL     1       6.122  19.125  73.495  1.00  0.00     0.055 A 
HETATM    2  N1  UNL     1       6.161  18.496  74.709  1.00  0.00    -0.339 N 
ATOM      3  H1  UNL     1       6.112  17.478  74.727  1.00  0.00     0.167 HD
HETATM    4  C4  UNL     1       6.259  19.139  75.860  1.00  0.00     0.166 A 
HETATM    5  N2  UNL     1       6.313  18.770  77.171  1.00  0.00    -0.173 N 
ATOM      6  H2  UNL     1       6.285  17.812  77.519  1.00  0.00     0.186 HD
HETATM    7  C5  UNL     1       6.410  19.877  77.934  1.00  0.00     0.679 A 
HETATM    8  N4  UNL     1       6.416  20.920  77.097  1.00  0.00    -0.173 N 
ATOM      9  H4  UNL     1       6.482  21.896  77.387  1.00  0.00     0.186 HD
HETATM   10  C6  UNL     1       6.325  20.506  75.823  1.00  0.00     0.167 A 
HETATM   11  N5  UNL     1       6.289  21.142  74.649  1.00  0.00    -0.324 N 
ATOM     12  H5  UNL     1       6.340  22.161  74.641  1.00  0.00     0.169 HD
HETATM   13  C7  UNL     1       6.185  20.471  73.441  1.00  0.00     0.128 A 
ENDROOT
BRANCH  13  14
HETATM   14  N6  UNL     1       6.107  21.231  72.279  1.00  0.00    -0.365 N 
HETATM   15  C8  UNL     1       5.465  22.585  72.422  1.00  0.00     0.151 C 
BRANCH  14  16
HETATM   16  C9  UNL     1       6.456  20.971  70.920  1.00  0.00     0.167 C 
BRANCH  16  17
HETATM   17  C10 UNL     1       7.909  20.556  70.909  1.00  0.00     0.072 C 
HETATM   18  N7  UNL     1       8.409  19.854  69.986  1.00  0.00    -0.410 N 
ATOM     19  H72 UNL     1       7.795  19.564  69.225  1.00  0.00     0.155 HD
ATOM     20  H71 UNL     1       9.390  19.573  69.978  1.00  0.00     0.155 HD
ENDBRANCH  16  17
ENDBRANCH  14  16
ENDBRANCH  13  14
BRANCH   1  21
HETATM   21  C2  UNL     1       6.021  18.251  72.330  1.00  0.00     0.056 C 
HETATM   22  C1  UNL     1       5.976  16.770  72.797  1.00  0.00     0.011 C 
ENDBRANCH   1  21
BRANCH   7  23
HETATM   23  N3  UNL     1       6.485  19.907  79.228  1.00  0.00    -0.234 N 
ATOM     24  H32 UNL     1       7.192  20.373  79.796  1.00  0.00     0.174 HD
ATOM     25  H31 UNL     1       5.836  19.459  79.876  1.00  0.00     0.174 HD
ENDBRANCH   7  23
TORSDOF 5
ENDMDL
MODEL 3
REMARK VINA RESULT: -5.438611528      0.822      1.841
REMARK  5 active torsions:
REMARK  status: ('A' for Active; 'I' for Inactive)
REMARK    1  A    between atoms: C2_2  and  C3_3 
REMARK    2  A    between atoms: C5_9  and  N3_10 
REMARK    3  A    between atoms: C7_18  and  N6_19 
REMARK    4  A    between atoms: N6_19  and  C9_21 
REMARK    5  A    between atoms: C9_21  and  C10_22 
ROOT
HETATM    1  C3  UNL     1       6.357  21.364  73.866  1.00  0.00     0.055 A 
HETATM    2  N1  UNL     1       6.012  21.704  75.145  1.00  0.00    -0.339 N 
ATOM      3  H1  UNL     1       5.577  22.613  75.302  1.00  0.00     0.167 HD
HETATM    4  C4  UNL     1       6.213  20.917  76.187  1.00  0.00     0.166 A 
HETATM    5  N2  UNL     1       5.976  21.009  77.527  1.00  0.00    -0.173 N 
ATOM      6  H2  UNL     1       5.547  21.804  78.000  1.00  0.00     0.186 HD
HETATM    7  C5  UNL     1       6.400  19.878  78.124  1.00  0.00     0.679 A 
HETATM    8  N4  UNL     1       6.895  19.096  77.160  1.00  0.00    -0.173 N 
ATOM      9  H4  UNL     1       7.292  18.169  77.311  1.00  0.00     0.186 HD
HETATM   10  C6  UNL     1       6.797  19.699  75.964  1.00  0.00     0.167 A 
HETATM   11  N5  UNL     1       7.142  19.345  74.723  1.00  0.00    -0.324 N 
ATOM     12  H5  UNL     1       7.576  18.434  74.576  1.00  0.00     0.169 HD
HETATM   13  C7  UNL     1       6.934  20.168  73.628  1.00  0.00     0.128 A 
ENDROOT
BRANCH  13  14
HETATM   14  N6  UNL     1       7.374  19.724  72.386  1.00  0.00    -0.365 N 
HETATM   15  C8  UNL     1       8.726  20.223  71.952  1.00  0.00     0.151 C 
BRANCH  14  16
HETATM   16  C9  UNL     1       6.775  18.920  71.371  1.00  0.00     0.167 C 
BRANCH  16  17
HETATM   17  C10 UNL     1       5.675  18.121  72.032  1.00  0.00     0.072 C 
HETATM   18  N7  UNL     1       5.817  16.909  72.358  1.00  0.00    -0.410 N 
ATOM     19  H72 UNL     1       6.715  16.467  72.161  1.00  0.00     0.155 HD
ATOM     20  H71 UNL     1       5.075  16.370  72.805  1.00  0.00     0.155 HD
ENDBRANCH  16  17
ENDBRANCH  14  16
ENDBRANCH  13  14
BRANCH   1  21
HETATM   21  C2  UNL     1       6.050  22.356  72.839  1.00  0.00     0.056 C 
HETATM   22  C1  UNL     1       4.755  23.119  73.230  1.00  0.00     0.011 C 
ENDBRANCH   1  21
BRANCH   7  23
HETATM   23  N3  UNL     1       6.332  19.614  79.392  1.00  0.00    -0.234 N 
ATOM     24  H32 UNL     1       5.497  19.395  79.934  1.00  0.00     0.174 HD
ATOM     25  H31 UNL     1       7.119  19.590  80.042  1.00  0.00     0.174 HD
ENDBRANCH   7  23
TORSDOF 5
ENDMDL
MODEL 4
REMARK VINA RESULT: -5.355044558      1.278      3.286
REMARK  5 active torsions:
REMARK  status: ('A' for Active; 'I' for Inactive)
REMARK    1  A    between atoms: C2_2  and  C3_3 
REMARK    2  A    between atoms: C5_9  and  N3_10 
REMARK    3  A    between atoms: C7_18  and  N6_19 
REMARK    4  A    between atoms: N6_19  and  C9_21 
REMARK    5  A    between atoms: C9_21  and  C10_22 
ROOT
HETATM    1  C3  UNL     1       6.282  19.078  73.426  1.00  0.00     0.055 A 
HETATM    2  N1  UNL     1       6.322  18.444  74.637  1.00  0.00    -0.339 N 
ATOM      3  H1  UNL     1       6.334  17.424  74.648  1.00  0.00     0.167 HD
HETATM    4  C4  UNL     1       6.347  19.084  75.793  1.00  0.00     0.166 A 
HETATM    5  N2  UNL     1       6.383  18.709  77.104  1.00  0.00    -0.173 N 
ATOM      6  H2  UNL     1       6.402  17.749  77.446  1.00  0.00     0.186 HD
HETATM    7  C5  UNL     1       6.390  19.815  77.874  1.00  0.00     0.679 A 
HETATM    8  N4  UNL     1       6.359  20.862  77.044  1.00  0.00    -0.173 N 
ATOM      9  H4  UNL     1       6.357  21.838  77.341  1.00  0.00     0.186 HD
HETATM   10  C6  UNL     1       6.331  20.453  75.766  1.00  0.00     0.167 A 
HETATM   11  N5  UNL     1       6.292  21.094  74.594  1.00  0.00    -0.324 N 
ATOM     12  H5  UNL     1       6.282  22.113  74.593  1.00  0.00     0.169 HD
HETATM   13  C7  UNL     1       6.266  20.426  73.380  1.00  0.00     0.128 A 
ENDROOT
BRANCH  13  14
HETATM   14  N6  UNL     1       6.177  21.188  72.220  1.00  0.00    -0.365 N 
HETATM   15  C8  UNL     1       7.218  20.909  71.170  1.00  0.00     0.151 C 
BRANCH  14  16
HETATM   16  C9  UNL     1       5.322  22.259  71.822  1.00  0.00     0.167 C 
BRANCH  16  17
HETATM   17  C10 UNL     1       5.244  23.218  72.988  1.00  0.00     0.072 C 
HETATM   18  N7  UNL     1       4.955  24.440  72.845  1.00  0.00    -0.410 N 
ATOM     19  H72 UNL     1       4.769  24.776  71.900  1.00  0.00     0.155 HD
ATOM     20  H71 UNL     1       4.903  25.087  73.632  1.00  0.00     0.155 HD
ENDBRANCH  16  17
ENDBRANCH  14  16
ENDBRANCH  13  14
BRANCH   1  21
HETATM   21  C2  UNL     1       6.269  18.208  72.253  1.00  0.00     0.056 C 
HETATM   22  C1  UNL     1       5.817  16.782  72.673  1.00  0.00     0.011 C 
ENDBRANCH   1  21
BRANCH   7  23
HETATM   23  N3  UNL     1       6.424  19.840  79.171  1.00  0.00    -0.234 N 
ATOM     24  H32 UNL     1       6.115  20.595  79.783  1.00  0.00     0.174 HD
ATOM     25  H31 UNL     1       6.772  19.096  79.775  1.00  0.00     0.174 HD
ENDBRANCH   7  23
TORSDOF 5
ENDMDL
MODEL 5
REMARK VINA RESULT: -5.298323159      1.490      5.520
REMARK  5 active torsions:
REMARK  status: ('A' for Active; 'I' for Inactive)
REMARK    1  A    between atoms: C2_2  and  C3_3 
REMARK    2  A    between atoms: C5_9  and  N3_10 
REMARK    3  A    between atoms: C7_18  and  N6_19 
REMARK    4  A    between atoms: N6_19  and  C9_21 
REMARK    5  A    between atoms: C9_21  and  C10_22 
ROOT
HETATM    1  C3  UNL     1       5.643  21.625  73.615  1.00  0.00     0.055 A 
HETATM    2  N1  UNL     1       5.746  21.609  72.252  1.00  0.00    -0.339 N 
ATOM      3  H1  UNL     1       5.157  22.247  71.716  1.00  0.00     0.167 HD
HETATM    4  C4  UNL     1       6.568  20.812  71.592  1.00  0.00     0.166 A 
HETATM    5  N2  UNL     1       6.859  20.597  70.277  1.00  0.00    -0.173 N 
ATOM      6  H2  UNL     1       6.432  21.083  69.489  1.00  0.00     0.186 HD
HETATM    7  C5  UNL     1       7.801  19.637  70.189  1.00  0.00     0.679 A 
HETATM    8  N4  UNL     1       8.088  19.264  71.440  1.00  0.00    -0.173 N 
ATOM      9  H4  UNL     1       8.772  18.550  71.690  1.00  0.00     0.186 HD
HETATM   10  C6  UNL     1       7.354  19.961  72.323  1.00  0.00     0.167 A 
HETATM   11  N5  UNL     1       7.271  19.958  73.656  1.00  0.00    -0.324 N 
ATOM     12  H5  UNL     1       7.864  19.318  74.183  1.00  0.00     0.169 HD
HETATM   13  C7  UNL     1       6.409  20.793  74.350  1.00  0.00     0.128 A 
ENDROOT
BRANCH  13  14
HETATM   14  N6  UNL     1       6.365  20.676  75.735  1.00  0.00    -0.365 N 
HETATM   15  C8  UNL     1       6.605  21.944  76.509  1.00  0.00     0.151 C 
BRANCH  14  16
HETATM   16  C9  UNL     1       6.200  19.563  76.614  1.00  0.00     0.167 C 
BRANCH  16  17
HETATM   17  C10 UNL     1       6.724  19.988  77.966  1.00  0.00     0.072 C 
HETATM   18  N7  UNL     1       6.317  19.474  79.046  1.00  0.00    -0.410 N 
ATOM     19  H72 UNL     1       5.606  18.745  78.985  1.00  0.00     0.155 HD
ATOM     20  H71 UNL     1       6.670  19.761  79.959  1.00  0.00     0.155 HD
ENDBRANCH  16  17
ENDBRANCH  14  16
ENDBRANCH  13  14
BRANCH   1  21
HETATM   21  C2  UNL     1       4.687  22.579  74.170  1.00  0.00     0.056 C 
HETATM   22  C1  UNL     1       4.591  23.816  73.234  1.00  0.00     0.011 C 
ENDBRANCH   1  21
BRANCH   7  23
HETATM   23  N3  UNL     1       8.319  19.177  69.093  1.00  0.00    -0.234 N 
ATOM     24  H32 UNL     1       7.833  18.958  68.223  1.00  0.00     0.174 HD
ATOM     25  H31 UNL     1       9.305  18.963  68.940  1.00  0.00     0.174 HD
ENDBRANCH   7  23
TORSDOF 5
ENDMDL
