MODEL 1
REMARK VINA RESULT: -9.168945572      0.000      0.000
REMARK  6 active torsions:
REMARK  status: ('A' for Active; 'I' for Inactive)
REMARK    1  A    between atoms: C3_4  and  N2_5 
REMARK    2  A    between atoms: C7_10  and  C8_11 
REMARK       I    between atoms: C8_11  and  N3_13 
REMARK    3  A    between atoms: N3_13  and  C9_15 
REMARK    4  A    between atoms: C9_15  and  C10_16 
REMARK    5  A    between atoms: C10_16  and  N4_18 
REMARK    6  A    between atoms: N4_18  and  C11_20 
ROOT
HETATM    1  C8  UNL     1       4.565   5.263  21.337  1.00  0.00     0.223 C 
HETATM    2  O1  UNL     1       4.429   4.158  21.969  1.00  0.00    -0.273 OA
HETATM    3  N3  UNL     1       4.800   5.192  19.960  1.00  0.00    -0.354 N 
ATOM      4  H3  UNL     1       4.910   6.059  19.434  1.00  0.00     0.162 HD
ENDROOT
BRANCH   1   5
HETATM    5  C7  UNL     1       4.479   6.544  22.037  1.00  0.00     0.099 C 
HETATM    6  C6  UNL     1       3.937   6.384  23.460  1.00  0.00     0.058 C 
HETATM    7  C5  UNL     1       3.556   7.778  23.900  1.00  0.00     0.209 C 
HETATM    8  C4  UNL     1       4.338   8.855  23.241  1.00  0.00     0.097 C 
HETATM    9  F1  UNL     1       3.517   7.898  25.287  1.00  0.00    -0.244 F 
HETATM   10  N2  UNL     1       5.615   8.532  22.756  1.00  0.00    -0.367 N 
HETATM   11  C21 UNL     1       5.812   7.252  22.190  1.00  0.00     0.138 C 
BRANCH  10  12
HETATM   12  C3  UNL     1       6.718   9.091  23.468  1.00  0.00     0.207 C 
HETATM   13  C2  UNL     1       7.327   8.204  24.504  1.00  0.00     0.174 C 
HETATM   14  N1  UNL     1       8.778   8.418  24.397  1.00  0.00    -0.335 N 
HETATM   15  C1  UNL     1       9.710   8.017  25.415  1.00  0.00     0.154 C 
HETATM   16  C23 UNL     1       8.996   9.065  23.143  1.00  0.00     0.321 C 
HETATM   17  N5  UNL     1       7.766   9.549  22.622  1.00  0.00    -0.315 N 
HETATM   18  O2  UNL     1      10.161   9.151  22.635  1.00  0.00    -0.247 OA
HETATM   19  C22 UNL     1       7.665  10.365  21.432  1.00  0.00     0.157 C 
ENDBRANCH  10  12
ENDBRANCH   1   5
BRANCH   3  20
HETATM   20  C9  UNL     1       4.893   3.913  19.246  1.00  0.00     0.191 C 
BRANCH  20  21
HETATM   21  C10 UNL     1       5.280   4.138  17.840  1.00  0.00     0.091 C 
HETATM   22  S1  UNL     1       5.500   5.674  17.339  1.00  0.00    -0.064 SA
BRANCH  21  23
HETATM   23  N4  UNL     1       5.456   3.088  16.949  1.00  0.00    -0.378 N 
ATOM     24  H4  UNL     1       4.621   2.833  16.422  1.00  0.00     0.160 HD
BRANCH  23  25
HETATM   25  C11 UNL     1       6.606   2.310  16.650  1.00  0.00     0.090 C 
HETATM   26  C12 UNL     1       6.474   0.910  17.227  1.00  0.00     0.009 C 
HETATM   27  C13 UNL     1       7.454   0.023  16.512  1.00  0.00     0.011 C 
HETATM   28  C17 UNL     1       6.662   0.853  18.705  1.00  0.00     0.011 C 
HETATM   29  C14 UNL     1       8.848   0.557  16.776  1.00  0.00    -0.013 C 
HETATM   30  C15 UNL     1       9.100   0.429  18.256  1.00  0.00     0.009 C 
HETATM   31  C20 UNL     1       8.993   1.989  16.339  1.00  0.00     0.011 C 
HETATM   32  C16 UNL     1       8.086   1.264  19.012  1.00  0.00    -0.013 C 
HETATM   33  C18 UNL     1       8.243   2.695  18.533  1.00  0.00     0.011 C 
HETATM   34  C19 UNL     1       7.927   2.840  17.055  1.00  0.00     0.009 C 
ENDBRANCH  23  25
ENDBRANCH  21  23
ENDBRANCH  20  21
ENDBRANCH   3  20
TORSDOF 6
ENDMDL
MODEL 2
REMARK VINA RESULT: -9.035783348      0.952      1.469
REMARK  6 active torsions:
REMARK  status: ('A' for Active; 'I' for Inactive)
REMARK    1  A    between atoms: C3_4  and  N2_5 
REMARK    2  A    between atoms: C7_10  and  C8_11 
REMARK       I    between atoms: C8_11  and  N3_13 
REMARK    3  A    between atoms: N3_13  and  C9_15 
REMARK    4  A    between atoms: C9_15  and  C10_16 
REMARK    5  A    between atoms: C10_16  and  N4_18 
REMARK    6  A    between atoms: N4_18  and  C11_20 
ROOT
HETATM    1  C8  UNL     1       4.330   5.263  21.758  1.00  0.00     0.223 C 
HETATM    2  O1  UNL     1       3.272   4.543  21.774  1.00  0.00    -0.273 OA
HETATM    3  N3  UNL     1       5.478   4.707  21.182  1.00  0.00    -0.354 N 
ATOM      4  H3  UNL     1       6.333   5.262  21.156  1.00  0.00     0.162 HD
ENDROOT
BRANCH   1   5
HETATM    5  C7  UNL     1       4.330   6.611  22.324  1.00  0.00     0.099 C 
HETATM    6  C6  UNL     1       3.788   6.631  23.756  1.00  0.00     0.058 C 
HETATM    7  C5  UNL     1       3.499   8.084  24.052  1.00  0.00     0.209 C 
HETATM    8  C4  UNL     1       4.343   9.037  23.288  1.00  0.00     0.097 C 
HETATM    9  F1  UNL     1       3.476   8.346  25.419  1.00  0.00    -0.244 F 
HETATM   10  N2  UNL     1       5.594   8.586  22.837  1.00  0.00    -0.367 N 
HETATM   11  C21 UNL     1       5.706   7.245  22.405  1.00  0.00     0.138 C 
BRANCH  10  12
HETATM   12  C3  UNL     1       6.734   9.143  23.489  1.00  0.00     0.207 C 
HETATM   13  C2  UNL     1       7.368   8.273  24.525  1.00  0.00     0.174 C 
HETATM   14  N1  UNL     1       8.818   8.456  24.354  1.00  0.00    -0.335 N 
HETATM   15  C1  UNL     1       9.783   8.066  25.345  1.00  0.00     0.154 C 
HETATM   16  C23 UNL     1       8.996   9.064  23.074  1.00  0.00     0.321 C 
HETATM   17  N5  UNL     1       7.755   9.557  22.590  1.00  0.00    -0.315 N 
HETATM   18  O2  UNL     1      10.141   9.113  22.519  1.00  0.00    -0.247 OA
HETATM   19  C22 UNL     1       7.621  10.341  21.381  1.00  0.00     0.157 C 
ENDBRANCH  10  12
ENDBRANCH   1   5
BRANCH   3  20
HETATM   20  C9  UNL     1       5.493   3.354  20.615  1.00  0.00     0.191 C 
BRANCH  20  21
HETATM   21  C10 UNL     1       5.360   3.413  19.147  1.00  0.00     0.091 C 
HETATM   22  S1  UNL     1       3.935   2.974  18.486  1.00  0.00    -0.064 SA
BRANCH  21  23
HETATM   23  N4  UNL     1       6.404   3.824  18.329  1.00  0.00    -0.378 N 
ATOM     24  H4  UNL     1       6.319   4.778  17.977  1.00  0.00     0.160 HD
BRANCH  23  25
HETATM   25  C11 UNL     1       7.572   3.137  17.902  1.00  0.00     0.090 C 
HETATM   26  C12 UNL     1       7.441   2.707  16.450  1.00  0.00     0.009 C 
HETATM   27  C13 UNL     1       8.822   2.420  15.930  1.00  0.00     0.011 C 
HETATM   28  C17 UNL     1       6.529   1.544  16.252  1.00  0.00     0.011 C 
HETATM   29  C14 UNL     1       9.406   1.286  16.751  1.00  0.00    -0.013 C 
HETATM   30  C15 UNL     1       8.553   0.071  16.500  1.00  0.00     0.009 C 
HETATM   31  C20 UNL     1       9.436   1.614  18.219  1.00  0.00     0.011 C 
HETATM   32  C16 UNL     1       7.134   0.350  16.957  1.00  0.00    -0.013 C 
HETATM   33  C18 UNL     1       7.203   0.697  18.431  1.00  0.00     0.011 C 
HETATM   34  C19 UNL     1       8.008   1.959  18.684  1.00  0.00     0.009 C 
ENDBRANCH  23  25
ENDBRANCH  21  23
ENDBRANCH  20  21
ENDBRANCH   3  20
TORSDOF 6
ENDMDL
MODEL 3
REMARK VINA RESULT: -9.005141039      1.674      2.269
REMARK  6 active torsions:
REMARK  status: ('A' for Active; 'I' for Inactive)
REMARK    1  A    between atoms: C3_4  and  N2_5 
REMARK    2  A    between atoms: C7_10  and  C8_11 
REMARK       I    between atoms: C8_11  and  N3_13 
REMARK    3  A    between atoms: N3_13  and  C9_15 
REMARK    4  A    between atoms: C9_15  and  C10_16 
REMARK    5  A    between atoms: C10_16  and  N4_18 
REMARK    6  A    between atoms: N4_18  and  C11_20 
ROOT
HETATM    1  C8  UNL     1       4.326   5.497  21.198  1.00  0.00     0.223 C 
HETATM    2  O1  UNL     1       5.290   5.257  20.392  1.00  0.00    -0.273 OA
HETATM    3  N3  UNL     1       3.306   4.544  21.283  1.00  0.00    -0.354 N 
ATOM      4  H3  UNL     1       2.528   4.711  21.921  1.00  0.00     0.162 HD
ENDROOT
BRANCH   1   5
HETATM    5  C7  UNL     1       4.301   6.723  21.994  1.00  0.00     0.099 C 
HETATM    6  C6  UNL     1       3.861   6.461  23.438  1.00  0.00     0.058 C 
HETATM    7  C5  UNL     1       3.524   7.819  24.004  1.00  0.00     0.209 C 
HETATM    8  C4  UNL     1       4.266   8.940  23.371  1.00  0.00     0.097 C 
HETATM    9  F1  UNL     1       3.586   7.838  25.395  1.00  0.00    -0.244 F 
HETATM   10  N2  UNL     1       5.502   8.650  22.772  1.00  0.00    -0.367 N 
HETATM   11  C21 UNL     1       5.647   7.414  22.102  1.00  0.00     0.138 C 
BRANCH  10  12
HETATM   12  C3  UNL     1       6.657   9.152  23.442  1.00  0.00     0.207 C 
HETATM   13  C2  UNL     1       7.274   8.225  24.438  1.00  0.00     0.174 C 
HETATM   14  N1  UNL     1       8.727   8.381  24.269  1.00  0.00    -0.335 N 
HETATM   15  C1  UNL     1       9.685   7.926  25.238  1.00  0.00     0.154 C 
HETATM   16  C23 UNL     1       8.915   9.037  23.015  1.00  0.00     0.321 C 
HETATM   17  N5  UNL     1       7.685   9.579  22.557  1.00  0.00    -0.315 N 
HETATM   18  O2  UNL     1      10.060   9.083  22.457  1.00  0.00    -0.247 OA
HETATM   19  C22 UNL     1       7.566  10.416  21.383  1.00  0.00     0.157 C 
ENDBRANCH  10  12
ENDBRANCH   1   5
BRANCH   3  20
HETATM   20  C9  UNL     1       3.316   3.311  20.487  1.00  0.00     0.191 C 
BRANCH  20  21
HETATM   21  C10 UNL     1       4.138   2.280  21.149  1.00  0.00     0.091 C 
HETATM   22  S1  UNL     1       3.432   1.345  22.283  1.00  0.00    -0.064 SA
BRANCH  21  23
HETATM   23  N4  UNL     1       5.477   2.094  20.834  1.00  0.00    -0.378 N 
ATOM     24  H4  UNL     1       6.132   2.468  21.521  1.00  0.00     0.160 HD
BRANCH  23  25
HETATM   25  C11 UNL     1       6.087   1.468  19.714  1.00  0.00     0.090 C 
HETATM   26  C12 UNL     1       7.576   1.773  19.671  1.00  0.00     0.009 C 
HETATM   27  C13 UNL     1       8.230   0.750  18.785  1.00  0.00     0.011 C 
HETATM   28  C17 UNL     1       7.887   3.162  19.228  1.00  0.00     0.011 C 
HETATM   29  C14 UNL     1       7.638   0.888  17.396  1.00  0.00    -0.013 C 
HETATM   30  C15 UNL     1       8.015   2.254  16.886  1.00  0.00     0.009 C 
HETATM   31  C20 UNL     1       6.143   0.723  17.403  1.00  0.00     0.011 C 
HETATM   32  C16 UNL     1       7.422   3.312  17.796  1.00  0.00    -0.013 C 
HETATM   33  C18 UNL     1       5.920   3.103  17.798  1.00  0.00     0.011 C 
HETATM   34  C19 UNL     1       5.531   1.753  18.372  1.00  0.00     0.009 C 
ENDBRANCH  23  25
ENDBRANCH  21  23
ENDBRANCH  20  21
ENDBRANCH   3  20
TORSDOF 6
ENDMDL
MODEL 4
REMARK VINA RESULT: -8.925594898      2.230      2.681
REMARK  6 active torsions:
REMARK  status: ('A' for Active; 'I' for Inactive)
REMARK    1  A    between atoms: C3_4  and  N2_5 
REMARK    2  A    between atoms: C7_10  and  C8_11 
REMARK       I    between atoms: C8_11  and  N3_13 
REMARK    3  A    between atoms: N3_13  and  C9_15 
REMARK    4  A    between atoms: C9_15  and  C10_16 
REMARK    5  A    between atoms: C10_16  and  N4_18 
REMARK    6  A    between atoms: N4_18  and  C11_20 
ROOT
HETATM    1  C8  UNL     1       6.278   6.363  20.350  1.00  0.00     0.223 C 
HETATM    2  O1  UNL     1       5.397   5.947  21.179  1.00  0.00    -0.273 OA
HETATM    3  N3  UNL     1       6.258   5.819  19.062  1.00  0.00    -0.354 N 
ATOM      4  H3  UNL     1       6.949   6.137  18.383  1.00  0.00     0.162 HD
ENDROOT
BRANCH   1   5
HETATM    5  C7  UNL     1       7.265   7.367  20.746  1.00  0.00     0.099 C 
HETATM    6  C6  UNL     1       6.697   8.787  20.678  1.00  0.00     0.058 C 
HETATM    7  C5  UNL     1       7.898   9.700  20.737  1.00  0.00     0.209 C 
HETATM    8  C4  UNL     1       9.063   9.121  21.453  1.00  0.00     0.097 C 
HETATM    9  F1  UNL     1       7.565  10.979  21.176  1.00  0.00    -0.244 F 
HETATM   10  N2  UNL     1       8.813   8.129  22.415  1.00  0.00    -0.367 N 
HETATM   11  C21 UNL     1       7.774   7.204  22.166  1.00  0.00     0.138 C 
BRANCH  10  12
HETATM   12  C3  UNL     1       9.019   8.507  23.775  1.00  0.00     0.207 C 
HETATM   13  C2  UNL     1       8.445   7.575  24.792  1.00  0.00     0.174 C 
HETATM   14  N1  UNL     1       9.446   7.507  25.867  1.00  0.00    -0.335 N 
HETATM   15  C1  UNL     1       9.160   6.990  27.177  1.00  0.00     0.154 C 
HETATM   16  C23 UNL     1      10.655   8.037  25.323  1.00  0.00     0.321 C 
HETATM   17  N5  UNL     1      10.386   8.716  24.104  1.00  0.00    -0.315 N 
HETATM   18  O2  UNL     1      11.773   7.876  25.912  1.00  0.00    -0.247 OA
HETATM   19  C22 UNL     1      11.378   9.474  23.374  1.00  0.00     0.157 C 
ENDBRANCH  10  12
ENDBRANCH   1   5
BRANCH   3  20
HETATM   20  C9  UNL     1       5.277   4.807  18.653  1.00  0.00     0.191 C 
BRANCH  20  21
HETATM   21  C10 UNL     1       5.490   4.426  17.245  1.00  0.00     0.091 C 
HETATM   22  S1  UNL     1       5.612   5.615  16.135  1.00  0.00    -0.064 SA
BRANCH  21  23
HETATM   23  N4  UNL     1       5.585   3.098  16.849  1.00  0.00    -0.378 N 
ATOM     24  H4  UNL     1       4.689   2.625  16.727  1.00  0.00     0.160 HD
BRANCH  23  25
HETATM   25  C11 UNL     1       6.723   2.289  16.586  1.00  0.00     0.090 C 
HETATM   26  C12 UNL     1       6.541   0.899  17.173  1.00  0.00     0.009 C 
HETATM   27  C13 UNL     1       7.516  -0.019  16.490  1.00  0.00     0.011 C 
HETATM   28  C17 UNL     1       6.691   0.853  18.656  1.00  0.00     0.011 C 
HETATM   29  C14 UNL     1       8.917   0.483  16.784  1.00  0.00    -0.013 C 
HETATM   30  C15 UNL     1       9.129   0.364  18.271  1.00  0.00     0.009 C 
HETATM   31  C20 UNL     1       9.107   1.907  16.337  1.00  0.00     0.011 C 
HETATM   32  C16 UNL     1       8.117   1.232  18.993  1.00  0.00    -0.013 C 
HETATM   33  C18 UNL     1       8.322   2.653  18.505  1.00  0.00     0.011 C 
HETATM   34  C19 UNL     1       8.045   2.791  17.019  1.00  0.00     0.009 C 
ENDBRANCH  23  25
ENDBRANCH  21  23
ENDBRANCH  20  21
ENDBRANCH   3  20
TORSDOF 6
ENDMDL
MODEL 5
REMARK VINA RESULT: -8.901468712      1.664      2.465
REMARK  6 active torsions:
REMARK  status: ('A' for Active; 'I' for Inactive)
REMARK    1  A    between atoms: C3_4  and  N2_5 
REMARK    2  A    between atoms: C7_10  and  C8_11 
REMARK       I    between atoms: C8_11  and  N3_13 
REMARK    3  A    between atoms: N3_13  and  C9_15 
REMARK    4  A    between atoms: C9_15  and  C10_16 
REMARK    5  A    between atoms: C10_16  and  N4_18 
REMARK    6  A    between atoms: N4_18  and  C11_20 
ROOT
HETATM    1  C8  UNL     1       6.667   5.824  20.755  1.00  0.00     0.223 C 
HETATM    2  O1  UNL     1       7.675   5.068  20.527  1.00  0.00    -0.273 OA
HETATM    3  N3  UNL     1       5.406   5.346  20.383  1.00  0.00    -0.354 N 
ATOM      4  H3  UNL     1       4.588   5.929  20.557  1.00  0.00     0.162 HD
ENDROOT
BRANCH   1   5
HETATM    5  C7  UNL     1       6.839   7.135  21.379  1.00  0.00     0.099 C 
HETATM    6  C6  UNL     1       5.580   7.584  22.126  1.00  0.00     0.058 C 
HETATM    7  C5  UNL     1       5.771   9.061  22.376  1.00  0.00     0.209 C 
HETATM    8  C4  UNL     1       7.192   9.481  22.467  1.00  0.00     0.097 C 
HETATM    9  F1  UNL     1       4.995   9.518  23.438  1.00  0.00    -0.244 F 
HETATM   10  N2  UNL     1       8.136   8.516  22.853  1.00  0.00    -0.367 N 
HETATM   11  C21 UNL     1       7.957   7.188  22.403  1.00  0.00     0.138 C 
BRANCH  10  12
HETATM   12  C3  UNL     1       8.705   8.678  24.151  1.00  0.00     0.207 C 
HETATM   13  C2  UNL     1       8.377   7.602  25.134  1.00  0.00     0.174 C 
HETATM   14  N1  UNL     1       9.620   7.366  25.884  1.00  0.00    -0.335 N 
HETATM   15  C1  UNL     1       9.663   6.654  27.131  1.00  0.00     0.154 C 
HETATM   16  C23 UNL     1      10.666   7.971  25.124  1.00  0.00     0.321 C 
HETATM   17  N5  UNL     1      10.119   8.831  24.135  1.00  0.00    -0.315 N 
HETATM   18  O2  UNL     1      11.891   7.719  25.367  1.00  0.00    -0.247 OA
HETATM   19  C22 UNL     1      10.918   9.691  23.289  1.00  0.00     0.157 C 
ENDBRANCH  10  12
ENDBRANCH   1   5
BRANCH   3  20
HETATM   20  C9  UNL     1       5.220   4.033  19.753  1.00  0.00     0.191 C 
BRANCH  20  21
HETATM   21  C10 UNL     1       5.473   4.122  18.303  1.00  0.00     0.091 C 
HETATM   22  S1  UNL     1       4.201   4.380  17.315  1.00  0.00    -0.064 SA
BRANCH  21  23
HETATM   23  N4  UNL     1       6.748   3.989  17.769  1.00  0.00    -0.378 N 
ATOM     24  H4  UNL     1       7.088   4.811  17.270  1.00  0.00     0.160 HD
BRANCH  23  25
HETATM   25  C11 UNL     1       7.657   2.898  17.802  1.00  0.00     0.090 C 
HETATM   26  C12 UNL     1       8.112   2.534  16.398  1.00  0.00     0.009 C 
HETATM   27  C13 UNL     1       9.375   1.728  16.518  1.00  0.00     0.011 C 
HETATM   28  C17 UNL     1       7.076   1.814  15.603  1.00  0.00     0.011 C 
HETATM   29  C14 UNL     1       9.053   0.467  17.297  1.00  0.00    -0.013 C 
HETATM   30  C15 UNL     1       8.073  -0.326  16.473  1.00  0.00     0.009 C 
HETATM   31  C20 UNL     1       8.475   0.775  18.651  1.00  0.00     0.011 C 
HETATM   32  C16 UNL     1       6.808   0.486  16.278  1.00  0.00    -0.013 C 
HETATM   33  C18 UNL     1       6.264   0.797  17.659  1.00  0.00     0.011 C 
HETATM   34  C19 UNL     1       7.220   1.652  18.471  1.00  0.00     0.009 C 
ENDBRANCH  23  25
ENDBRANCH  21  23
ENDBRANCH  20  21
ENDBRANCH   3  20
TORSDOF 6
ENDMDL
