MODEL 1
REMARK VINA RESULT: -8.057720939      0.000      0.000
REMARK  9 active torsions:
REMARK  status: ('A' for Active; 'I' for Inactive)
REMARK    1  A    between atoms: C2_3  and  C5_6 
REMARK    2  A    between atoms: C8_9  and  C9_11 
REMARK       I    between atoms: C9_11  and  N2_13 
REMARK    3  A    between atoms: C12_16  and  C13_17 
REMARK    4  A    between atoms: C13_17  and  N3_18 
REMARK    5  A    between atoms: C13_17  and  C14_22 
REMARK    6  A    between atoms: C14_22  and  C15_23 
REMARK       I    between atoms: C15_23  and  N4_25 
REMARK    7  A    between atoms: C19_29  and  C20_30 
REMARK    8  A    between atoms: C21_31  and  C22_32 
REMARK    9  A    between atoms: C22_32  and  N5_33 
ROOT
HETATM    1  C1  UNL     1       9.166   2.613  15.558  1.00  0.00     0.222 C 
HETATM    2  N1  UNL     1       8.783   1.899  16.387  1.00  0.00    -0.461 NA
HETATM    3  C2  UNL     1       8.332   1.015  17.389  1.00  0.00     0.088 C 
HETATM    4  C3  UNL     1       7.600  -0.123  16.745  1.00  0.00     0.054 C 
HETATM    5  C4  UNL     1       9.488   0.442  18.184  1.00  0.00     0.054 C 
ENDROOT
BRANCH   3   6
HETATM    6  C5  UNL     1       7.458   1.793  18.347  1.00  0.00     0.030 C 
HETATM    7  C6  UNL     1       7.355   1.130  19.694  1.00  0.00     0.012 C 
HETATM    8  C7  UNL     1       6.107   1.766  20.310  1.00  0.00     0.054 C 
HETATM    9  C8  UNL     1       5.172   2.003  19.125  1.00  0.00     0.184 C 
HETATM   10  F1  UNL     1       4.145   1.054  19.125  1.00  0.00    -0.233 F 
HETATM   11  C25 UNL     1       6.036   1.871  17.901  1.00  0.00     0.061 C 
BRANCH   9  12
HETATM   12  C9  UNL     1       4.621   3.375  19.250  1.00  0.00     0.260 C 
HETATM   13  O1  UNL     1       5.152   4.270  18.511  1.00  0.00    -0.270 OA
HETATM   14  N2  UNL     1       3.557   3.688  20.144  1.00  0.00    -0.349 N 
HETATM   15  C10 UNL     1       2.915   2.732  21.002  1.00  0.00     0.126 C 
HETATM   16  C24 UNL     1       3.000   4.996  20.292  1.00  0.00     0.132 C 
HETATM   17  C11 UNL     1       1.729   3.451  21.547  1.00  0.00     0.028 C 
HETATM   18  C12 UNL     1       1.746   4.867  21.120  1.00  0.00     0.036 C 
BRANCH  18  19
HETATM   19  C13 UNL     1       1.770   5.864  22.237  1.00  0.00     0.198 C 
BRANCH  19  20
HETATM   20  N3  UNL     1       1.843   7.198  21.675  1.00  0.00    -0.074 N 
ATOM     21  H33 UNL     1       1.533   7.228  20.704  1.00  0.00     0.274 HD
ATOM     22  H32 UNL     1       1.140   7.824  22.068  1.00  0.00     0.274 HD
ATOM     23  H31 UNL     1       2.791   7.555  21.792  1.00  0.00     0.274 HD
ENDBRANCH  19  20
BRANCH  19  24
HETATM   24  C14 UNL     1       2.882   5.699  23.199  1.00  0.00     0.136 C 
BRANCH  24  25
HETATM   25  C15 UNL     1       3.373   6.972  23.782  1.00  0.00     0.221 C 
HETATM   26  O2  UNL     1       2.513   7.685  24.360  1.00  0.00    -0.273 OA
HETATM   27  N4  UNL     1       4.702   7.399  23.719  1.00  0.00    -0.350 N 
HETATM   28  C16 UNL     1       5.832   6.712  23.092  1.00  0.00     0.131 C 
HETATM   29  C23 UNL     1       5.225   8.629  24.275  1.00  0.00     0.143 C 
HETATM   30  C17 UNL     1       6.519   7.913  22.425  1.00  0.00     0.017 C 
HETATM   31  C18 UNL     1       7.894   7.579  21.949  1.00  0.00     0.013 C 
HETATM   32  C19 UNL     1       6.557   8.878  23.617  1.00  0.00     0.088 C 
BRANCH  32  33
HETATM   33  C20 UNL     1       7.680   8.411  24.455  1.00  0.00    -0.098 C 
HETATM   34  C21 UNL     1       8.594   8.036  25.159  1.00  0.00    -0.079 C 
BRANCH  34  35
HETATM   35  C22 UNL     1       9.671   7.590  26.022  1.00  0.00     0.323 C 
BRANCH  35  36
HETATM   36  N5  UNL     1       9.124   7.114  27.280  1.00  0.00    -0.069 N 
ATOM     37  H53 UNL     1       9.123   7.839  27.998  1.00  0.00     0.275 HD
ATOM     38  H52 UNL     1       8.118   6.958  27.227  1.00  0.00     0.275 HD
ATOM     39  H51 UNL     1       9.626   6.278  27.579  1.00  0.00     0.275 HD
ENDBRANCH  35  36
ENDBRANCH  34  35
ENDBRANCH  32  33
ENDBRANCH  24  25
ENDBRANCH  19  24
ENDBRANCH  18  19
ENDBRANCH   9  12
ENDBRANCH   3   6
TORSDOF 9
ENDMDL
MODEL 2
REMARK VINA RESULT: -7.630201296      5.067      8.306
REMARK  9 active torsions:
REMARK  status: ('A' for Active; 'I' for Inactive)
REMARK    1  A    between atoms: C2_3  and  C5_6 
REMARK    2  A    between atoms: C8_9  and  C9_11 
REMARK       I    between atoms: C9_11  and  N2_13 
REMARK    3  A    between atoms: C12_16  and  C13_17 
REMARK    4  A    between atoms: C13_17  and  N3_18 
REMARK    5  A    between atoms: C13_17  and  C14_22 
REMARK    6  A    between atoms: C14_22  and  C15_23 
REMARK       I    between atoms: C15_23  and  N4_25 
REMARK    7  A    between atoms: C19_29  and  C20_30 
REMARK    8  A    between atoms: C21_31  and  C22_32 
REMARK    9  A    between atoms: C22_32  and  N5_33 
ROOT
HETATM    1  C1  UNL     1       6.835  11.077  12.762  1.00  0.00     0.222 C 
HETATM    2  N1  UNL     1       7.312  10.042  12.553  1.00  0.00    -0.461 NA
HETATM    3  C2  UNL     1       7.904   8.790  12.283  1.00  0.00     0.088 C 
HETATM    4  C3  UNL     1       7.411   8.290  10.960  1.00  0.00     0.054 C 
HETATM    5  C4  UNL     1       9.415   8.897  12.212  1.00  0.00     0.054 C 
ENDROOT
BRANCH   3   6
HETATM    6  C5  UNL     1       7.564   7.851  13.418  1.00  0.00     0.030 C 
HETATM    7  C6  UNL     1       8.082   6.458  13.182  1.00  0.00     0.012 C 
HETATM    8  C7  UNL     1       7.252   5.601  14.140  1.00  0.00     0.054 C 
HETATM    9  C8  UNL     1       5.882   6.276  14.170  1.00  0.00     0.184 C 
HETATM   10  F1  UNL     1       4.964   5.534  13.420  1.00  0.00    -0.233 F 
HETATM   11  C25 UNL     1       6.095   7.641  13.575  1.00  0.00     0.061 C 
BRANCH   9  12
HETATM   12  C9  UNL     1       5.452   6.368  15.587  1.00  0.00     0.260 C 
HETATM   13  O1  UNL     1       5.716   7.461  16.191  1.00  0.00    -0.270 OA
HETATM   14  N2  UNL     1       4.781   5.300  16.249  1.00  0.00    -0.349 N 
HETATM   15  C10 UNL     1       4.455   4.045  15.630  1.00  0.00     0.126 C 
HETATM   16  C24 UNL     1       4.353   5.350  17.611  1.00  0.00     0.132 C 
HETATM   17  C11 UNL     1       3.559   3.365  16.608  1.00  0.00     0.028 C 
HETATM   18  C12 UNL     1       3.467   4.154  17.855  1.00  0.00     0.036 C 
BRANCH  18  19
HETATM   19  C13 UNL     1       3.913   3.436  19.092  1.00  0.00     0.198 C 
BRANCH  19  20
HETATM   20  N3  UNL     1       5.087   4.100  19.624  1.00  0.00    -0.074 N 
ATOM     21  H33 UNL     1       5.275   3.842  20.592  1.00  0.00     0.274 HD
ATOM     22  H32 UNL     1       5.952   3.748  19.213  1.00  0.00     0.274 HD
ATOM     23  H31 UNL     1       4.980   5.107  19.503  1.00  0.00     0.274 HD
ENDBRANCH  19  20
BRANCH  19  24
HETATM   24  C14 UNL     1       4.231   2.003  18.903  1.00  0.00     0.136 C 
BRANCH  24  25
HETATM   25  C15 UNL     1       5.523   1.584  19.500  1.00  0.00     0.221 C 
HETATM   26  O2  UNL     1       5.529   1.416  20.746  1.00  0.00    -0.273 OA
HETATM   27  N4  UNL     1       6.693   1.377  18.765  1.00  0.00    -0.350 N 
HETATM   28  C16 UNL     1       6.878   1.524  17.321  1.00  0.00     0.131 C 
HETATM   29  C23 UNL     1       7.972   0.967  19.304  1.00  0.00     0.143 C 
HETATM   30  C17 UNL     1       8.249   2.216  17.311  1.00  0.00     0.017 C 
HETATM   31  C18 UNL     1       8.861   2.228  15.949  1.00  0.00     0.013 C 
HETATM   32  C19 UNL     1       9.011   1.281  18.260  1.00  0.00     0.088 C 
BRANCH  32  33
HETATM   33  C20 UNL     1       9.349   0.097  17.445  1.00  0.00    -0.098 C 
HETATM   34  C21 UNL     1       9.628  -0.887  16.793  1.00  0.00    -0.079 C 
BRANCH  34  35
HETATM   35  C22 UNL     1       9.955  -2.078  16.033  1.00  0.00     0.323 C 
BRANCH  35  36
HETATM   36  N5  UNL     1       8.973  -2.270  14.979  1.00  0.00    -0.069 N 
ATOM     37  H53 UNL     1       8.039  -2.444  15.351  1.00  0.00     0.275 HD
ATOM     38  H52 UNL     1       8.774  -1.405  14.478  1.00  0.00     0.275 HD
ATOM     39  H51 UNL     1       9.283  -3.014  14.354  1.00  0.00     0.275 HD
ENDBRANCH  35  36
ENDBRANCH  34  35
ENDBRANCH  32  33
ENDBRANCH  24  25
ENDBRANCH  19  24
ENDBRANCH  18  19
ENDBRANCH   9  12
ENDBRANCH   3   6
TORSDOF 9
ENDMDL
MODEL 3
REMARK VINA RESULT: -7.572646011      1.575      2.337
REMARK  9 active torsions:
REMARK  status: ('A' for Active; 'I' for Inactive)
REMARK    1  A    between atoms: C2_3  and  C5_6 
REMARK    2  A    between atoms: C8_9  and  C9_11 
REMARK       I    between atoms: C9_11  and  N2_13 
REMARK    3  A    between atoms: C12_16  and  C13_17 
REMARK    4  A    between atoms: C13_17  and  N3_18 
REMARK    5  A    between atoms: C13_17  and  C14_22 
REMARK    6  A    between atoms: C14_22  and  C15_23 
REMARK       I    between atoms: C15_23  and  N4_25 
REMARK    7  A    between atoms: C19_29  and  C20_30 
REMARK    8  A    between atoms: C21_31  and  C22_32 
REMARK    9  A    between atoms: C22_32  and  N5_33 
ROOT
HETATM    1  C1  UNL     1       9.890  -1.586  16.336  1.00  0.00     0.222 C 
HETATM    2  N1  UNL     1       9.466  -0.560  16.667  1.00  0.00    -0.461 NA
HETATM    3  C2  UNL     1       8.967   0.699  17.064  1.00  0.00     0.088 C 
HETATM    4  C3  UNL     1       9.718   1.163  18.275  1.00  0.00     0.054 C 
HETATM    5  C4  UNL     1       9.148   1.735  15.972  1.00  0.00     0.054 C 
ENDROOT
BRANCH   3   6
HETATM    6  C5  UNL     1       7.484   0.560  17.324  1.00  0.00     0.030 C 
HETATM    7  C6  UNL     1       6.724   0.148  16.092  1.00  0.00     0.012 C 
HETATM    8  C7  UNL     1       5.279   0.530  16.420  1.00  0.00     0.054 C 
HETATM    9  C8  UNL     1       5.399   1.795  17.268  1.00  0.00     0.184 C 
HETATM   10  F1  UNL     1       5.055   2.917  16.509  1.00  0.00    -0.233 F 
HETATM   11  C25 UNL     1       6.839   1.852  17.701  1.00  0.00     0.061 C 
BRANCH   9  12
HETATM   12  C9  UNL     1       4.493   1.649  18.433  1.00  0.00     0.260 C 
HETATM   13  O1  UNL     1       3.592   0.748  18.342  1.00  0.00    -0.270 OA
HETATM   14  N2  UNL     1       4.611   2.463  19.596  1.00  0.00    -0.349 N 
HETATM   15  C10 UNL     1       5.599   3.492  19.763  1.00  0.00     0.126 C 
HETATM   16  C24 UNL     1       3.757   2.352  20.736  1.00  0.00     0.132 C 
HETATM   17  C11 UNL     1       5.493   3.885  21.197  1.00  0.00     0.028 C 
HETATM   18  C12 UNL     1       4.358   3.189  21.838  1.00  0.00     0.036 C 
BRANCH  18  19
HETATM   19  C13 UNL     1       3.311   4.089  22.420  1.00  0.00     0.198 C 
BRANCH  19  20
HETATM   20  N3  UNL     1       2.002   3.540  22.125  1.00  0.00    -0.074 N 
ATOM     21  H33 UNL     1       1.764   3.611  21.136  1.00  0.00     0.274 HD
ATOM     22  H32 UNL     1       1.981   2.523  22.203  1.00  0.00     0.274 HD
ATOM     23  H31 UNL     1       1.311   3.991  22.725  1.00  0.00     0.274 HD
ENDBRANCH  19  20
BRANCH  19  24
HETATM   24  C14 UNL     1       3.352   5.488  21.939  1.00  0.00     0.136 C 
BRANCH  24  25
HETATM   25  C15 UNL     1       3.550   6.492  23.013  1.00  0.00     0.221 C 
HETATM   26  O2  UNL     1       2.558   6.715  23.753  1.00  0.00    -0.273 OA
HETATM   27  N4  UNL     1       4.748   7.178  23.231  1.00  0.00    -0.350 N 
HETATM   28  C16 UNL     1       5.997   7.053  22.479  1.00  0.00     0.131 C 
HETATM   29  C23 UNL     1       4.986   8.162  24.266  1.00  0.00     0.143 C 
HETATM   30  C17 UNL     1       6.389   8.536  22.395  1.00  0.00     0.017 C 
HETATM   31  C18 UNL     1       7.800   8.718  21.940  1.00  0.00     0.013 C 
HETATM   32  C19 UNL     1       6.221   8.927  23.870  1.00  0.00     0.088 C 
BRANCH  32  33
HETATM   33  C20 UNL     1       7.429   8.410  24.545  1.00  0.00    -0.098 C 
HETATM   34  C21 UNL     1       8.413   7.992  25.117  1.00  0.00    -0.079 C 
BRANCH  34  35
HETATM   35  C22 UNL     1       9.576   7.490  25.824  1.00  0.00     0.323 C 
BRANCH  35  36
HETATM   36  N5  UNL     1       9.198   7.099  27.171  1.00  0.00    -0.069 N 
ATOM     37  H53 UNL     1       9.754   6.315  27.513  1.00  0.00     0.275 HD
ATOM     38  H52 UNL     1       9.478   7.792  27.864  1.00  0.00     0.275 HD
ATOM     39  H51 UNL     1       8.197   6.904  27.204  1.00  0.00     0.275 HD
ENDBRANCH  35  36
ENDBRANCH  34  35
ENDBRANCH  32  33
ENDBRANCH  24  25
ENDBRANCH  19  24
ENDBRANCH  18  19
ENDBRANCH   9  12
ENDBRANCH   3   6
TORSDOF 9
ENDMDL
MODEL 4
REMARK VINA RESULT: -7.266973932      4.402      5.572
REMARK  9 active torsions:
REMARK  status: ('A' for Active; 'I' for Inactive)
REMARK    1  A    between atoms: C2_3  and  C5_6 
REMARK    2  A    between atoms: C8_9  and  C9_11 
REMARK       I    between atoms: C9_11  and  N2_13 
REMARK    3  A    between atoms: C12_16  and  C13_17 
REMARK    4  A    between atoms: C13_17  and  N3_18 
REMARK    5  A    between atoms: C13_17  and  C14_22 
REMARK    6  A    between atoms: C14_22  and  C15_23 
REMARK       I    between atoms: C15_23  and  N4_25 
REMARK    7  A    between atoms: C19_29  and  C20_30 
REMARK    8  A    between atoms: C21_31  and  C22_32 
REMARK    9  A    between atoms: C22_32  and  N5_33 
ROOT
HETATM    1  C1  UNL     1       7.677  10.728  13.918  1.00  0.00     0.222 C 
HETATM    2  N1  UNL     1       7.886   9.819  13.232  1.00  0.00    -0.461 NA
HETATM    3  C2  UNL     1       8.152   8.724  12.382  1.00  0.00     0.088 C 
HETATM    4  C3  UNL     1       7.382   8.894  11.108  1.00  0.00     0.054 C 
HETATM    5  C4  UNL     1       9.626   8.638  12.034  1.00  0.00     0.054 C 
ENDROOT
BRANCH   3   6
HETATM    6  C5  UNL     1       7.780   7.455  13.116  1.00  0.00     0.030 C 
HETATM    7  C6  UNL     1       7.328   6.366  12.180  1.00  0.00     0.012 C 
HETATM    8  C7  UNL     1       6.567   5.403  13.095  1.00  0.00     0.054 C 
HETATM    9  C8  UNL     1       5.907   6.304  14.137  1.00  0.00     0.184 C 
HETATM   10  F1  UNL     1       4.541   6.427  13.871  1.00  0.00    -0.233 F 
HETATM   11  C25 UNL     1       6.606   7.631  14.019  1.00  0.00     0.061 C 
BRANCH   9  12
HETATM   12  C9  UNL     1       6.131   5.695  15.471  1.00  0.00     0.260 C 
HETATM   13  O1  UNL     1       6.883   4.664  15.505  1.00  0.00    -0.270 OA
HETATM   14  N2  UNL     1       5.544   6.222  16.656  1.00  0.00    -0.349 N 
HETATM   15  C10 UNL     1       4.689   7.376  16.689  1.00  0.00     0.126 C 
HETATM   16  C24 UNL     1       5.736   5.664  17.957  1.00  0.00     0.132 C 
HETATM   17  C11 UNL     1       4.531   7.687  18.138  1.00  0.00     0.028 C 
HETATM   18  C12 UNL     1       5.177   6.641  18.961  1.00  0.00     0.036 C 
BRANCH  18  19
HETATM   19  C13 UNL     1       4.262   5.929  19.909  1.00  0.00     0.198 C 
BRANCH  19  20
HETATM   20  N3  UNL     1       3.319   6.882  20.458  1.00  0.00    -0.074 N 
ATOM     21  H33 UNL     1       3.385   7.797  20.011  1.00  0.00     0.274 HD
ATOM     22  H32 UNL     1       2.355   6.667  20.201  1.00  0.00     0.274 HD
ATOM     23  H31 UNL     1       3.450   6.933  21.469  1.00  0.00     0.274 HD
ENDBRANCH  19  20
BRANCH  19  24
HETATM   24  C14 UNL     1       4.938   5.239  21.030  1.00  0.00     0.136 C 
BRANCH  24  25
HETATM   25  C15 UNL     1       4.791   5.922  22.339  1.00  0.00     0.221 C 
HETATM   26  O2  UNL     1       3.745   5.659  22.987  1.00  0.00    -0.273 OA
HETATM   27  N4  UNL     1       5.728   6.814  22.865  1.00  0.00    -0.350 N 
HETATM   28  C16 UNL     1       6.991   7.241  22.262  1.00  0.00     0.131 C 
HETATM   29  C23 UNL     1       5.627   7.500  24.137  1.00  0.00     0.143 C 
HETATM   30  C17 UNL     1       6.941   8.738  22.604  1.00  0.00     0.017 C 
HETATM   31  C18 UNL     1       8.257   9.408  22.382  1.00  0.00     0.013 C 
HETATM   32  C19 UNL     1       6.604   8.645  24.098  1.00  0.00     0.088 C 
BRANCH  32  33
HETATM   33  C20 UNL     1       7.879   8.304  24.760  1.00  0.00    -0.098 C 
HETATM   34  C21 UNL     1       8.927   8.008  25.293  1.00  0.00    -0.079 C 
BRANCH  34  35
HETATM   35  C22 UNL     1      10.188   7.638  25.908  1.00  0.00     0.323 C 
BRANCH  35  36
HETATM   36  N5  UNL     1       9.954   7.191  27.270  1.00  0.00    -0.069 N 
ATOM     37  H53 UNL     1      10.787   7.279  27.852  1.00  0.00     0.275 HD
ATOM     38  H52 UNL     1       9.347   7.827  27.785  1.00  0.00     0.275 HD
ATOM     39  H51 UNL     1       9.592   6.237  27.261  1.00  0.00     0.275 HD
ENDBRANCH  35  36
ENDBRANCH  34  35
ENDBRANCH  32  33
ENDBRANCH  24  25
ENDBRANCH  19  24
ENDBRANCH  18  19
ENDBRANCH   9  12
ENDBRANCH   3   6
TORSDOF 9
ENDMDL
MODEL 5
REMARK VINA RESULT: -7.257608549      2.322      7.275
REMARK  9 active torsions:
REMARK  status: ('A' for Active; 'I' for Inactive)
REMARK    1  A    between atoms: C2_3  and  C5_6 
REMARK    2  A    between atoms: C8_9  and  C9_11 
REMARK       I    between atoms: C9_11  and  N2_13 
REMARK    3  A    between atoms: C12_16  and  C13_17 
REMARK    4  A    between atoms: C13_17  and  N3_18 
REMARK    5  A    between atoms: C13_17  and  C14_22 
REMARK    6  A    between atoms: C14_22  and  C15_23 
REMARK       I    between atoms: C15_23  and  N4_25 
REMARK    7  A    between atoms: C19_29  and  C20_30 
REMARK    8  A    between atoms: C21_31  and  C22_32 
REMARK    9  A    between atoms: C22_32  and  N5_33 
ROOT
HETATM    1  C1  UNL     1       9.338   7.966  24.837  1.00  0.00     0.222 C 
HETATM    2  N1  UNL     1       8.822   8.180  23.822  1.00  0.00    -0.461 NA
HETATM    3  C2  UNL     1       8.206   8.457  22.583  1.00  0.00     0.088 C 
HETATM    4  C3  UNL     1       7.440   9.740  22.693  1.00  0.00     0.054 C 
HETATM    5  C4  UNL     1       9.232   8.615  21.478  1.00  0.00     0.054 C 
ENDROOT
BRANCH   3   6
HETATM    6  C5  UNL     1       7.320   7.286  22.223  1.00  0.00     0.030 C 
HETATM    7  C6  UNL     1       7.656   6.710  20.874  1.00  0.00     0.012 C 
HETATM    8  C7  UNL     1       6.402   5.915  20.503  1.00  0.00     0.054 C 
HETATM    9  C8  UNL     1       5.248   6.717  21.102  1.00  0.00     0.184 C 
HETATM   10  F1  UNL     1       4.568   7.407  20.093  1.00  0.00    -0.233 F 
HETATM   11  C25 UNL     1       5.885   7.668  22.077  1.00  0.00     0.061 C 
BRANCH   9  12
HETATM   12  C9  UNL     1       4.343   5.765  21.791  1.00  0.00     0.260 C 
HETATM   13  O1  UNL     1       4.322   5.823  23.066  1.00  0.00    -0.270 OA
HETATM   14  N2  UNL     1       3.537   4.831  21.079  1.00  0.00    -0.349 N 
HETATM   15  C10 UNL     1       3.512   4.712  19.648  1.00  0.00     0.126 C 
HETATM   16  C24 UNL     1       2.654   3.899  21.707  1.00  0.00     0.132 C 
HETATM   17  C11 UNL     1       2.365   3.804  19.365  1.00  0.00     0.028 C 
HETATM   18  C12 UNL     1       1.801   3.281  20.627  1.00  0.00     0.036 C 
BRANCH  18  19
HETATM   19  C13 UNL     1       1.819   1.789  20.758  1.00  0.00     0.198 C 
BRANCH  19  20
HETATM   20  N3  UNL     1       1.898   1.441  22.163  1.00  0.00    -0.074 N 
ATOM     21  H33 UNL     1       2.764   1.764  22.595  1.00  0.00     0.274 HD
ATOM     22  H32 UNL     1       1.246   1.978  22.734  1.00  0.00     0.274 HD
ATOM     23  H31 UNL     1       1.765   0.434  22.262  1.00  0.00     0.274 HD
ENDBRANCH  19  20
BRANCH  19  24
HETATM   24  C14 UNL     1       2.924   1.112  20.044  1.00  0.00     0.136 C 
BRANCH  24  25
HETATM   25  C15 UNL     1       4.249   1.266  20.693  1.00  0.00     0.221 C 
HETATM   26  O2  UNL     1       4.276   1.115  21.941  1.00  0.00    -0.273 OA
HETATM   27  N4  UNL     1       5.428   1.563  20.003  1.00  0.00    -0.350 N 
HETATM   28  C16 UNL     1       5.591   1.774  18.565  1.00  0.00     0.131 C 
HETATM   29  C23 UNL     1       6.740   1.719  20.594  1.00  0.00     0.143 C 
HETATM   30  C17 UNL     1       6.552   2.972  18.593  1.00  0.00     0.017 C 
HETATM   31  C18 UNL     1       7.157   3.237  17.254  1.00  0.00     0.013 C 
HETATM   32  C19 UNL     1       7.596   2.436  19.583  1.00  0.00     0.088 C 
BRANCH  32  33
HETATM   33  C20 UNL     1       8.425   1.498  18.799  1.00  0.00    -0.098 C 
HETATM   34  C21 UNL     1       9.108   0.717  18.172  1.00  0.00    -0.079 C 
BRANCH  34  35
HETATM   35  C22 UNL     1       9.921  -0.236  17.441  1.00  0.00     0.323 C 
BRANCH  35  36
HETATM   36  N5  UNL     1       9.167  -0.760  16.316  1.00  0.00    -0.069 N 
ATOM     37  H53 UNL     1       8.297  -1.204  16.610  1.00  0.00     0.275 HD
ATOM     38  H52 UNL     1       8.767  -0.018  15.742  1.00  0.00     0.275 HD
ATOM     39  H51 UNL     1       9.756  -1.391  15.772  1.00  0.00     0.275 HD
ENDBRANCH  35  36
ENDBRANCH  34  35
ENDBRANCH  32  33
ENDBRANCH  24  25
ENDBRANCH  19  24
ENDBRANCH  18  19
ENDBRANCH   9  12
ENDBRANCH   3   6
TORSDOF 9
ENDMDL
