MODEL 1
REMARK VINA RESULT: -7.039787210      0.000      0.000
REMARK  7 active torsions:
REMARK  status: ('A' for Active; 'I' for Inactive)
REMARK    1  A    between atoms: C3_3  and  C4_4 
REMARK    2  A    between atoms: C4_4  and  C6_7 
REMARK    3  A    between atoms: C6_7  and  C7_9 
REMARK    4  A    between atoms: C7_9  and  N1_10 
REMARK    5  A    between atoms: C7_9  and  C11_17 
REMARK       I    between atoms: N1_10  and  C8_12 
REMARK    6  A    between atoms: C8_12  and  O3_14 
REMARK    7  A    between atoms: O3_14  and  C9_15 
ROOT
HETATM    1  C1  UNL     1       3.211   9.246  25.566  1.00  0.00     0.112 C 
HETATM    2  C2  UNL     1       3.140   8.058  24.716  1.00  0.00    -0.109 C 
HETATM    3  C3  UNL     1       3.090   7.086  24.003  1.00  0.00    -0.077 C 
ENDROOT
BRANCH   3   4
HETATM    4  C4  UNL     1       3.062   5.960  23.125  1.00  0.00     0.139 C 
HETATM    5  C5  UNL     1       2.158   4.844  23.675  1.00  0.00     0.050 C 
HETATM    6 BR1  UNL     1       2.102   6.554  21.499  1.00  0.00    -0.063 Br
BRANCH   4   7
HETATM    7  C6  UNL     1       4.319   5.416  22.637  1.00  0.00     0.183 C 
HETATM    8  O1  UNL     1       4.535   4.245  22.941  1.00  0.00    -0.293 OA
BRANCH   7   9
HETATM    9  C7  UNL     1       5.294   6.124  21.841  1.00  0.00     0.188 C 
BRANCH   9  10
HETATM   10  N1  UNL     1       6.377   5.110  21.601  1.00  0.00    -0.323 N 
HETATM   11  C8  UNL     1       6.735   4.705  20.302  1.00  0.00     0.361 C 
HETATM   12  O2  UNL     1       6.122   5.214  19.329  1.00  0.00    -0.238 OA
ATOM     13  H1  UNL     1       6.865   4.706  22.400  1.00  0.00     0.165 HD
BRANCH  11  14
HETATM   14  O3  UNL     1       7.724   3.777  20.030  1.00  0.00    -0.304 OA
BRANCH  14  15
HETATM   15  C9  UNL     1       7.443   2.385  20.051  1.00  0.00     0.176 C 
HETATM   16  C10 UNL     1       8.373   1.591  19.192  1.00  0.00     0.034 C 
ENDBRANCH  14  15
ENDBRANCH  11  14
ENDBRANCH   9  10
BRANCH   9  17
HETATM   17  C11 UNL     1       5.939   7.362  22.382  1.00  0.00     0.159 C 
HETATM   18  O4  UNL     1       7.157   7.058  22.930  1.00  0.00    -0.350 OA
HETATM   19  C12 UNL     1       7.274   7.650  24.173  1.00  0.00     0.290 A 
HETATM   20  O5  UNL     1       6.564   8.839  24.435  1.00  0.00    -0.348 OA
HETATM   21  C13 UNL     1       7.855   8.989  24.008  1.00  0.00     0.188 A 
HETATM   22  C14 UNL     1       8.225   9.259  22.604  1.00  0.00     0.046 C 
HETATM   23  C15 UNL     1       9.159   8.295  22.000  1.00  0.00    -0.023 C 
HETATM   24  C18 UNL     1       7.178   9.436  21.612  1.00  0.00     0.005 C 
HETATM   25  C16 UNL     1       9.055   8.382  20.691  1.00  0.00    -0.030 C 
HETATM   26  C17 UNL     1       8.028   9.421  20.322  1.00  0.00     0.032 C 
HETATM   27  C19 UNL     1       6.063   8.515  21.446  1.00  0.00     0.018 C 
HETATM   28  C20 UNL     1       4.774   9.364  21.487  1.00  0.00     0.013 C 
ENDBRANCH   9  17
ENDBRANCH   7   9
ENDBRANCH   4   7
ENDBRANCH   3   4
TORSDOF 7
ENDMDL
MODEL 2
REMARK VINA RESULT: -6.809811996      1.507      2.730
REMARK  7 active torsions:
REMARK  status: ('A' for Active; 'I' for Inactive)
REMARK    1  A    between atoms: C3_3  and  C4_4 
REMARK    2  A    between atoms: C4_4  and  C6_7 
REMARK    3  A    between atoms: C6_7  and  C7_9 
REMARK    4  A    between atoms: C7_9  and  N1_10 
REMARK    5  A    between atoms: C7_9  and  C11_17 
REMARK       I    between atoms: N1_10  and  C8_12 
REMARK    6  A    between atoms: C8_12  and  O3_14 
REMARK    7  A    between atoms: O3_14  and  C9_15 
ROOT
HETATM    1  C1  UNL     1       3.535   1.720  18.812  1.00  0.00     0.112 C 
HETATM    2  C2  UNL     1       3.406   2.791  19.800  1.00  0.00    -0.109 C 
HETATM    3  C3  UNL     1       3.304   3.685  20.604  1.00  0.00    -0.077 C 
ENDROOT
BRANCH   3   4
HETATM    4  C4  UNL     1       3.191   4.778  21.516  1.00  0.00     0.139 C 
HETATM    5  C5  UNL     1       2.367   5.928  20.913  1.00  0.00     0.050 C 
HETATM    6 BR1  UNL     1       2.047   4.138  23.000  1.00  0.00    -0.063 Br
BRANCH   4   7
HETATM    7  C6  UNL     1       4.391   5.283  22.163  1.00  0.00     0.183 C 
HETATM    8  O1  UNL     1       4.478   5.040  23.366  1.00  0.00    -0.293 OA
BRANCH   7   9
HETATM    9  C7  UNL     1       5.456   6.014  21.518  1.00  0.00     0.188 C 
BRANCH   9  10
HETATM   10  N1  UNL     1       6.574   5.017  21.412  1.00  0.00    -0.323 N 
HETATM   11  C8  UNL     1       6.923   4.426  20.184  1.00  0.00     0.361 C 
HETATM   12  O2  UNL     1       6.270   4.752  19.160  1.00  0.00    -0.238 OA
ATOM     13  H1  UNL     1       7.094   4.762  22.251  1.00  0.00     0.165 HD
BRANCH  11  14
HETATM   14  O3  UNL     1       7.943   3.504  20.035  1.00  0.00    -0.304 OA
BRANCH  14  15
HETATM   15  C9  UNL     1       7.659   2.125  19.849  1.00  0.00     0.176 C 
HETATM   16  C10 UNL     1       8.708   1.416  19.055  1.00  0.00     0.034 C 
ENDBRANCH  14  15
ENDBRANCH  11  14
ENDBRANCH   9  10
BRANCH   9  17
HETATM   17  C11 UNL     1       6.005   7.249  22.161  1.00  0.00     0.159 C 
HETATM   18  O4  UNL     1       7.253   7.002  22.669  1.00  0.00    -0.350 OA
HETATM   19  C12 UNL     1       7.341   7.490  23.959  1.00  0.00     0.290 A 
HETATM   20  O5  UNL     1       6.539   8.588  24.332  1.00  0.00    -0.348 OA
HETATM   21  C13 UNL     1       7.806   8.882  23.909  1.00  0.00     0.188 A 
HETATM   22  C14 UNL     1       8.131   9.304  22.531  1.00  0.00     0.046 C 
HETATM   23  C15 UNL     1       9.131   8.479  21.836  1.00  0.00    -0.023 C 
HETATM   24  C18 UNL     1       7.057   9.479  21.568  1.00  0.00     0.005 C 
HETATM   25  C16 UNL     1       8.998   8.670  20.540  1.00  0.00    -0.030 C 
HETATM   26  C17 UNL     1       7.884   9.649  20.274  1.00  0.00     0.032 C 
HETATM   27  C19 UNL     1       6.019   8.486  21.331  1.00  0.00     0.018 C 
HETATM   28  C20 UNL     1       4.665   9.218  21.458  1.00  0.00     0.013 C 
ENDBRANCH   9  17
ENDBRANCH   7   9
ENDBRANCH   4   7
ENDBRANCH   3   4
TORSDOF 7
ENDMDL
MODEL 3
REMARK VINA RESULT: -6.646788706      1.505      2.019
REMARK  7 active torsions:
REMARK  status: ('A' for Active; 'I' for Inactive)
REMARK    1  A    between atoms: C3_3  and  C4_4 
REMARK    2  A    between atoms: C4_4  and  C6_7 
REMARK    3  A    between atoms: C6_7  and  C7_9 
REMARK    4  A    between atoms: C7_9  and  N1_10 
REMARK    5  A    between atoms: C7_9  and  C11_17 
REMARK       I    between atoms: N1_10  and  C8_12 
REMARK    6  A    between atoms: C8_12  and  O3_14 
REMARK    7  A    between atoms: O3_14  and  C9_15 
ROOT
HETATM    1  C1  UNL     1       1.744   8.022  18.816  1.00  0.00     0.112 C 
HETATM    2  C2  UNL     1       2.208   6.967  19.719  1.00  0.00    -0.109 C 
HETATM    3  C3  UNL     1       2.587   6.108  20.476  1.00  0.00    -0.077 C 
ENDROOT
BRANCH   3   4
HETATM    4  C4  UNL     1       3.020   5.121  21.412  1.00  0.00     0.139 C 
HETATM    5  C5  UNL     1       1.983   4.915  22.529  1.00  0.00     0.050 C 
HETATM    6 BR1  UNL     1       2.986   3.394  20.445  1.00  0.00    -0.063 Br
BRANCH   4   7
HETATM    7  C6  UNL     1       4.364   5.213  21.961  1.00  0.00     0.183 C 
HETATM    8  O1  UNL     1       4.548   4.581  23.000  1.00  0.00    -0.293 OA
BRANCH   7   9
HETATM    9  C7  UNL     1       5.461   5.959  21.392  1.00  0.00     0.188 C 
BRANCH   9  10
HETATM   10  N1  UNL     1       6.585   4.964  21.324  1.00  0.00    -0.323 N 
HETATM   11  C8  UNL     1       6.959   4.353  20.114  1.00  0.00     0.361 C 
HETATM   12  O2  UNL     1       6.326   4.659  19.072  1.00  0.00    -0.238 OA
ATOM     13  H1  UNL     1       7.089   4.726  22.178  1.00  0.00     0.165 HD
BRANCH  11  14
HETATM   14  O3  UNL     1       7.985   3.433  20.001  1.00  0.00    -0.304 OA
BRANCH  14  15
HETATM   15  C9  UNL     1       7.710   2.053  19.815  1.00  0.00     0.176 C 
HETATM   16  C10 UNL     1       8.795   1.336  19.077  1.00  0.00     0.034 C 
ENDBRANCH  14  15
ENDBRANCH  11  14
ENDBRANCH   9  10
BRANCH   9  17
HETATM   17  C11 UNL     1       5.973   7.180  22.091  1.00  0.00     0.159 C 
HETATM   18  O4  UNL     1       7.203   6.929  22.639  1.00  0.00    -0.350 OA
HETATM   19  C12 UNL     1       7.237   7.380  23.945  1.00  0.00     0.290 A 
HETATM   20  O5  UNL     1       6.410   8.459  24.318  1.00  0.00    -0.348 OA
HETATM   21  C13 UNL     1       7.689   8.777  23.952  1.00  0.00     0.188 A 
HETATM   22  C14 UNL     1       8.061   9.242  22.601  1.00  0.00     0.046 C 
HETATM   23  C15 UNL     1       9.096   8.446  21.920  1.00  0.00    -0.023 C 
HETATM   24  C18 UNL     1       7.023   9.436  21.603  1.00  0.00     0.005 C 
HETATM   25  C16 UNL     1       9.010   8.675  20.627  1.00  0.00    -0.030 C 
HETATM   26  C17 UNL     1       7.897   9.651  20.347  1.00  0.00     0.032 C 
HETATM   27  C19 UNL     1       6.005   8.441  21.297  1.00  0.00     0.018 C 
HETATM   28  C20 UNL     1       4.640   9.156  21.394  1.00  0.00     0.013 C 
ENDBRANCH   9  17
ENDBRANCH   7   9
ENDBRANCH   4   7
ENDBRANCH   3   4
TORSDOF 7
ENDMDL
MODEL 4
REMARK VINA RESULT: -6.489818258      2.234      5.624
REMARK  7 active torsions:
REMARK  status: ('A' for Active; 'I' for Inactive)
REMARK    1  A    between atoms: C3_3  and  C4_4 
REMARK    2  A    between atoms: C4_4  and  C6_7 
REMARK    3  A    between atoms: C6_7  and  C7_9 
REMARK    4  A    between atoms: C7_9  and  N1_10 
REMARK    5  A    between atoms: C7_9  and  C11_17 
REMARK       I    between atoms: N1_10  and  C8_12 
REMARK    6  A    between atoms: C8_12  and  O3_14 
REMARK    7  A    between atoms: O3_14  and  C9_15 
ROOT
HETATM    1  C1  UNL     1       9.534   0.744  18.800  1.00  0.00     0.112 C 
HETATM    2  C2  UNL     1       8.383   1.551  19.204  1.00  0.00    -0.109 C 
HETATM    3  C3  UNL     1       7.431   2.220  19.521  1.00  0.00    -0.077 C 
ENDROOT
BRANCH   3   4
HETATM    4  C4  UNL     1       6.290   3.016  19.846  1.00  0.00     0.139 C 
HETATM    5  C5  UNL     1       5.179   2.856  18.794  1.00  0.00     0.050 C 
HETATM    6 BR1  UNL     1       5.494   2.199  21.465  1.00  0.00    -0.063 Br
BRANCH   4   7
HETATM    7  C6  UNL     1       6.482   4.415  20.191  1.00  0.00     0.183 C 
HETATM    8  O1  UNL     1       7.649   4.748  20.389  1.00  0.00    -0.293 OA
BRANCH   7   9
HETATM    9  C7  UNL     1       5.441   5.409  20.305  1.00  0.00     0.188 C 
BRANCH   9  10
HETATM   10  N1  UNL     1       5.945   6.563  19.486  1.00  0.00    -0.323 N 
HETATM   11  C8  UNL     1       5.100   7.277  18.618  1.00  0.00     0.361 C 
HETATM   12  O2  UNL     1       3.896   6.927  18.537  1.00  0.00    -0.238 OA
ATOM     13  H1  UNL     1       6.925   6.836  19.563  1.00  0.00     0.165 HD
BRANCH  11  14
HETATM   14  O3  UNL     1       5.516   8.346  17.845  1.00  0.00    -0.304 OA
BRANCH  14  15
HETATM   15  C9  UNL     1       5.295   9.683  18.269  1.00  0.00     0.176 C 
HETATM   16  C10 UNL     1       6.206  10.101  19.378  1.00  0.00     0.034 C 
ENDBRANCH  14  15
ENDBRANCH  11  14
ENDBRANCH   9  10
BRANCH   9  17
HETATM   17  C11 UNL     1       5.061   5.936  21.654  1.00  0.00     0.159 C 
HETATM   18  O4  UNL     1       5.672   7.142  21.878  1.00  0.00    -0.350 OA
HETATM   19  C12 UNL     1       6.247   7.150  23.135  1.00  0.00     0.290 A 
HETATM   20  O5  UNL     1       5.688   6.346  24.149  1.00  0.00    -0.348 OA
HETATM   21  C13 UNL     1       5.260   7.644  24.104  1.00  0.00     0.188 A 
HETATM   22  C14 UNL     1       4.008   8.070  23.446  1.00  0.00     0.046 C 
HETATM   23  C15 UNL     1       4.159   9.100  22.406  1.00  0.00    -0.023 C 
HETATM   24  C18 UNL     1       3.137   7.068  22.856  1.00  0.00     0.005 C 
HETATM   25  C16 UNL     1       3.100   9.060  21.626  1.00  0.00    -0.030 C 
HETATM   26  C17 UNL     1       2.153   7.985  22.095  1.00  0.00     0.032 C 
HETATM   27  C19 UNL     1       3.604   6.030  21.948  1.00  0.00     0.018 C 
HETATM   28  C20 UNL     1       3.095   4.685  22.511  1.00  0.00     0.013 C 
ENDBRANCH   9  17
ENDBRANCH   7   9
ENDBRANCH   4   7
ENDBRANCH   3   4
TORSDOF 7
ENDMDL
MODEL 5
REMARK VINA RESULT: -6.469631229      2.063      5.716
REMARK  7 active torsions:
REMARK  status: ('A' for Active; 'I' for Inactive)
REMARK    1  A    between atoms: C3_3  and  C4_4 
REMARK    2  A    between atoms: C4_4  and  C6_7 
REMARK    3  A    between atoms: C6_7  and  C7_9 
REMARK    4  A    between atoms: C7_9  and  N1_10 
REMARK    5  A    between atoms: C7_9  and  C11_17 
REMARK       I    between atoms: N1_10  and  C8_12 
REMARK    6  A    between atoms: C8_12  and  O3_14 
REMARK    7  A    between atoms: O3_14  and  C9_15 
ROOT
HETATM    1  C1  UNL     1       9.248   0.860  18.821  1.00  0.00     0.112 C 
HETATM    2  C2  UNL     1       8.016   1.636  18.960  1.00  0.00    -0.109 C 
HETATM    3  C3  UNL     1       7.008   2.290  19.069  1.00  0.00    -0.077 C 
ENDROOT
BRANCH   3   4
HETATM    4  C4  UNL     1       5.839   3.104  19.177  1.00  0.00     0.139 C 
HETATM    5  C5  UNL     1       5.788   4.162  18.062  1.00  0.00     0.050 C 
HETATM    6 BR1  UNL     1       4.307   1.926  18.747  1.00  0.00    -0.063 Br
BRANCH   4   7
HETATM    7  C6  UNL     1       5.507   3.691  20.465  1.00  0.00     0.183 C 
HETATM    8  O1  UNL     1       5.393   2.889  21.391  1.00  0.00    -0.293 OA
BRANCH   7   9
HETATM    9  C7  UNL     1       5.316   5.097  20.730  1.00  0.00     0.188 C 
BRANCH   9  10
HETATM   10  N1  UNL     1       6.460   5.459  21.634  1.00  0.00    -0.323 N 
HETATM   11  C8  UNL     1       7.251   6.599  21.406  1.00  0.00     0.361 C 
HETATM   12  O2  UNL     1       6.980   7.323  20.415  1.00  0.00    -0.238 OA
ATOM     13  H1  UNL     1       6.669   4.862  22.434  1.00  0.00     0.165 HD
BRANCH  11  14
HETATM   14  O3  UNL     1       8.313   6.973  22.209  1.00  0.00    -0.304 OA
BRANCH  14  15
HETATM   15  C9  UNL     1       8.104   7.744  23.383  1.00  0.00     0.176 C 
HETATM   16  C10 UNL     1       8.224   9.215  23.144  1.00  0.00     0.034 C 
ENDBRANCH  14  15
ENDBRANCH  11  14
ENDBRANCH   9  10
BRANCH   9  17
HETATM   17  C11 UNL     1       4.053   5.567  21.381  1.00  0.00     0.159 C 
HETATM   18  O4  UNL     1       4.129   5.396  22.738  1.00  0.00    -0.350 OA
HETATM   19  C12 UNL     1       2.973   4.796  23.202  1.00  0.00     0.290 A 
HETATM   20  O5  UNL     1       1.769   4.995  22.497  1.00  0.00    -0.348 OA
HETATM   21  C13 UNL     1       2.002   5.843  23.544  1.00  0.00     0.188 A 
HETATM   22  C14 UNL     1       2.573   7.196  23.389  1.00  0.00     0.046 C 
HETATM   23  C15 UNL     1       3.796   7.459  24.164  1.00  0.00    -0.023 C 
HETATM   24  C18 UNL     1       2.859   7.700  22.057  1.00  0.00     0.005 C 
HETATM   25  C16 UNL     1       4.422   8.478  23.616  1.00  0.00    -0.030 C 
HETATM   26  C17 UNL     1       3.654   8.975  22.419  1.00  0.00     0.032 C 
HETATM   27  C19 UNL     1       3.609   6.952  21.058  1.00  0.00     0.018 C 
HETATM   28  C20 UNL     1       2.751   6.941  19.774  1.00  0.00     0.013 C 
ENDBRANCH   9  17
ENDBRANCH   7   9
ENDBRANCH   4   7
ENDBRANCH   3   4
TORSDOF 7
ENDMDL
