MODEL 1
REMARK VINA RESULT: -6.166134425      0.000      0.000
REMARK  8 active torsions:
REMARK  status: ('A' for Active; 'I' for Inactive)
REMARK    1  A    between atoms: C2_2  and  C3_3 
REMARK    2  A    between atoms: C3_3  and  C4_4 
REMARK    3  A    between atoms: C4_4  and  C5_5 
REMARK    4  A    between atoms: C5_5  and  C6_6 
REMARK    5  A    between atoms: C6_6  and  O2_8 
REMARK    6  A    between atoms: C11_14  and  N1_15 
REMARK    7  A    between atoms: C19_27  and  O5_28 
REMARK    8  A    between atoms: O5_28  and  C20_29 
REMARK       I    between atoms: C20_29  and  N3_31 
ROOT
HETATM    1  C5  UNL     1       5.197   7.292  23.630  1.00  0.00     0.177 C 
HETATM    2  O3  UNL     1       5.324   5.929  23.560  1.00  0.00    -0.352 OA
HETATM    3  C8  UNL     1       4.558   5.460  22.490  1.00  0.00     0.090 C 
HETATM    4  C9  UNL     1       3.273   4.805  23.051  1.00  0.00     0.051 C 
HETATM    5  C10 UNL     1       5.261   4.329  21.856  1.00  0.00     0.041 C 
HETATM    6  C11 UNL     1       5.461   4.233  20.559  1.00  0.00     0.044 C 
HETATM    7  C16 UNL     1       5.045   5.319  19.726  1.00  0.00     0.045 C 
HETATM    8  C17 UNL     1       4.471   6.404  20.201  1.00  0.00     0.001 C 
HETATM    9 BR1  UNL     1       3.971   7.758  18.964  1.00  0.00    -0.055 Br
HETATM   10  C18 UNL     1       4.233   6.608  21.607  1.00  0.00     0.097 C 
HETATM   11  C19 UNL     1       4.983   7.764  22.218  1.00  0.00     0.190 C 
ENDROOT
BRANCH   1  12
HETATM   12  C4  UNL     1       4.051   7.709  24.533  1.00  0.00     0.051 C 
BRANCH  12  13
HETATM   13  C3  UNL     1       3.247   8.823  23.904  1.00  0.00     0.003 C 
BRANCH  13  14
HETATM   14  C2  UNL     1       2.421   9.566  24.914  1.00  0.00    -0.004 C 
HETATM   15  C1  UNL     1       3.327  10.230  25.925  1.00  0.00     0.005 C 
ENDBRANCH  13  14
ENDBRANCH  12  13
ENDBRANCH   1  12
BRANCH   1  16
HETATM   16  C6  UNL     1       6.405   7.933  24.248  1.00  0.00     0.296 C 
HETATM   17  O1  UNL     1       6.430   9.083  24.707  1.00  0.00    -0.262 OA
BRANCH  16  18
HETATM   18  O2  UNL     1       7.559   7.166  24.295  1.00  0.00    -0.324 OA
HETATM   19  C7  UNL     1       8.705   7.557  25.018  1.00  0.00     0.213 C 
ENDBRANCH  16  18
ENDBRANCH   1  16
BRANCH  11  20
HETATM   20  O5  UNL     1       6.084   8.231  21.561  1.00  0.00    -0.294 OA
BRANCH  20  21
HETATM   21  C20 UNL     1       6.401   9.514  21.176  1.00  0.00     0.362 C 
HETATM   22  O6  UNL     1       5.433  10.229  20.823  1.00  0.00    -0.238 OA
HETATM   23  N3  UNL     1       7.692  10.052  21.155  1.00  0.00    -0.337 N 
HETATM   24  C21 UNL     1       8.821   9.249  21.556  1.00  0.00     0.154 C 
HETATM   25  C22 UNL     1       7.929  11.410  20.736  1.00  0.00     0.154 C 
ENDBRANCH  20  21
ENDBRANCH  11  20
BRANCH   6  26
HETATM   26  N1  UNL     1       6.160   3.087  20.046  1.00  0.00    -0.267 N 
HETATM   27  C12 UNL     1       5.653   2.041  19.423  1.00  0.00     0.033 A 
HETATM   28  C13 UNL     1       4.246   1.637  19.196  1.00  0.00     0.070 C 
HETATM   29  C14 UNL     1       6.710   1.226  19.001  1.00  0.00     0.118 A 
HETATM   30  N2  UNL     1       7.837   1.801  19.382  1.00  0.00    -0.317 N 
HETATM   31  C15 UNL     1       7.518   2.938  20.022  1.00  0.00     0.331 A 
ATOM     32  H2  UNL     1       8.779   1.445  19.221  1.00  0.00     0.170 HD
HETATM   33  O4  UNL     1       8.359   3.704  20.498  1.00  0.00    -0.246 OA
ENDBRANCH   6  26
TORSDOF 8
ENDMDL
MODEL 2
REMARK VINA RESULT: -6.150263246      3.031      6.795
REMARK  8 active torsions:
REMARK  status: ('A' for Active; 'I' for Inactive)
REMARK    1  A    between atoms: C2_2  and  C3_3 
REMARK    2  A    between atoms: C3_3  and  C4_4 
REMARK    3  A    between atoms: C4_4  and  C5_5 
REMARK    4  A    between atoms: C5_5  and  C6_6 
REMARK    5  A    between atoms: C6_6  and  O2_8 
REMARK    6  A    between atoms: C11_14  and  N1_15 
REMARK    7  A    between atoms: C19_27  and  O5_28 
REMARK    8  A    between atoms: O5_28  and  C20_29 
REMARK       I    between atoms: C20_29  and  N3_31 
ROOT
HETATM    1  C5  UNL     1       6.651   7.890  20.908  1.00  0.00     0.177 C 
HETATM    2  O3  UNL     1       7.923   8.254  21.264  1.00  0.00    -0.352 OA
HETATM    3  C8  UNL     1       7.853   9.127  22.353  1.00  0.00     0.090 C 
HETATM    4  C9  UNL     1       8.124  10.566  21.851  1.00  0.00     0.051 C 
HETATM    5  C10 UNL     1       8.993   8.865  23.251  1.00  0.00     0.041 C 
HETATM    6  C11 UNL     1       8.870   8.702  24.551  1.00  0.00     0.044 C 
HETATM    7  C16 UNL     1       7.555   8.699  25.114  1.00  0.00     0.045 C 
HETATM    8  C17 UNL     1       6.468   8.854  24.389  1.00  0.00     0.001 C 
HETATM    9 BR1  UNL     1       4.791   8.830  25.284  1.00  0.00    -0.055 Br
HETATM   10  C18 UNL     1       6.502   9.016  22.958  1.00  0.00     0.097 C 
HETATM   11  C19 UNL     1       5.841   7.910  22.175  1.00  0.00     0.190 C 
ENDROOT
BRANCH   1  12
HETATM   12  C4  UNL     1       6.066   8.822  19.863  1.00  0.00     0.051 C 
BRANCH  12  13
HETATM   13  C3  UNL     1       7.057   9.074  18.750  1.00  0.00     0.003 C 
BRANCH  13  14
HETATM   14  C2  UNL     1       7.166  10.531  18.406  1.00  0.00    -0.004 C 
HETATM   15  C1  UNL     1       5.869  11.232  18.739  1.00  0.00     0.005 C 
ENDBRANCH  13  14
ENDBRANCH  12  13
ENDBRANCH   1  12
BRANCH   1  16
HETATM   16  C6  UNL     1       6.619   6.538  20.256  1.00  0.00     0.296 C 
HETATM   17  O1  UNL     1       5.736   6.157  19.478  1.00  0.00    -0.262 OA
BRANCH  16  18
HETATM   18  O2  UNL     1       7.662   5.677  20.564  1.00  0.00    -0.324 OA
HETATM   19  C7  UNL     1       7.504   4.277  20.614  1.00  0.00     0.213 C 
ENDBRANCH  16  18
ENDBRANCH   1  16
BRANCH  11  20
HETATM   20  O5  UNL     1       5.656   6.710  22.797  1.00  0.00    -0.294 OA
BRANCH  20  21
HETATM   21  C20 UNL     1       4.534   5.915  22.860  1.00  0.00     0.362 C 
HETATM   22  O6  UNL     1       4.725   4.735  23.239  1.00  0.00    -0.238 OA
HETATM   23  N3  UNL     1       3.236   6.327  22.539  1.00  0.00    -0.337 N 
HETATM   24  C21 UNL     1       2.991   7.679  22.100  1.00  0.00     0.154 C 
HETATM   25  C22 UNL     1       2.119   5.422  22.636  1.00  0.00     0.154 C 
ENDBRANCH  20  21
ENDBRANCH  11  20
BRANCH   6  26
HETATM   26  N1  UNL     1      10.048   8.450  25.335  1.00  0.00    -0.267 N 
HETATM   27  C12 UNL     1      10.143   7.763  26.457  1.00  0.00     0.033 A 
HETATM   28  C13 UNL     1       9.096   7.185  27.330  1.00  0.00     0.070 C 
HETATM   29  C14 UNL     1      11.496   7.681  26.807  1.00  0.00     0.118 A 
HETATM   30  N2  UNL     1      12.190   8.324  25.886  1.00  0.00    -0.317 N 
HETATM   31  C15 UNL     1      11.320   8.800  24.979  1.00  0.00     0.331 A 
ATOM     32  H2  UNL     1      13.203   8.438  25.866  1.00  0.00     0.170 HD
HETATM   33  O4  UNL     1      11.664   9.449  23.989  1.00  0.00    -0.246 OA
ENDBRANCH   6  26
TORSDOF 8
ENDMDL
MODEL 3
REMARK VINA RESULT: -5.996168600      2.908      6.832
REMARK  8 active torsions:
REMARK  status: ('A' for Active; 'I' for Inactive)
REMARK    1  A    between atoms: C2_2  and  C3_3 
REMARK    2  A    between atoms: C3_3  and  C4_4 
REMARK    3  A    between atoms: C4_4  and  C5_5 
REMARK    4  A    between atoms: C5_5  and  C6_6 
REMARK    5  A    between atoms: C6_6  and  O2_8 
REMARK    6  A    between atoms: C11_14  and  N1_15 
REMARK    7  A    between atoms: C19_27  and  O5_28 
REMARK    8  A    between atoms: O5_28  and  C20_29 
REMARK       I    between atoms: C20_29  and  N3_31 
ROOT
HETATM    1  C5  UNL     1       6.375   7.994  20.844  1.00  0.00     0.177 C 
HETATM    2  O3  UNL     1       7.667   8.314  21.170  1.00  0.00    -0.352 OA
HETATM    3  C8  UNL     1       7.652   9.199  22.251  1.00  0.00     0.090 C 
HETATM    4  C9  UNL     1       7.968  10.621  21.729  1.00  0.00     0.051 C 
HETATM    5  C10 UNL     1       8.800   8.903  23.129  1.00  0.00     0.041 C 
HETATM    6  C11 UNL     1       8.697   8.757  24.433  1.00  0.00     0.044 C 
HETATM    7  C16 UNL     1       7.395   8.809  25.022  1.00  0.00     0.045 C 
HETATM    8  C17 UNL     1       6.300   8.998  24.317  1.00  0.00     0.001 C 
HETATM    9 BR1  UNL     1       4.642   9.047  25.246  1.00  0.00    -0.055 Br
HETATM   10  C18 UNL     1       6.311   9.145  22.884  1.00  0.00     0.097 C 
HETATM   11  C19 UNL     1       5.593   8.058  22.127  1.00  0.00     0.190 C 
ENDROOT
BRANCH   1  12
HETATM   12  C4  UNL     1       5.805   8.937  19.801  1.00  0.00     0.051 C 
BRANCH  12  13
HETATM   13  C3  UNL     1       6.765   9.110  18.647  1.00  0.00     0.003 C 
BRANCH  13  14
HETATM   14  C2  UNL     1       6.977  10.555  18.296  1.00  0.00    -0.004 C 
HETATM   15  C1  UNL     1       5.663  11.297  18.378  1.00  0.00     0.005 C 
ENDBRANCH  13  14
ENDBRANCH  12  13
ENDBRANCH   1  12
BRANCH   1  16
HETATM   16  C6  UNL     1       6.280   6.638  20.207  1.00  0.00     0.296 C 
HETATM   17  O1  UNL     1       7.174   5.783  20.243  1.00  0.00    -0.262 OA
BRANCH  16  18
HETATM   18  O2  UNL     1       5.100   6.349  19.538  1.00  0.00    -0.324 OA
HETATM   19  C7  UNL     1       4.829   5.080  18.985  1.00  0.00     0.213 C 
ENDBRANCH  16  18
ENDBRANCH   1  16
BRANCH  11  20
HETATM   20  O5  UNL     1       5.376   6.871  22.764  1.00  0.00    -0.294 OA
BRANCH  20  21
HETATM   21  C20 UNL     1       4.199   6.190  22.981  1.00  0.00     0.362 C 
HETATM   22  O6  UNL     1       3.223   6.893  23.338  1.00  0.00    -0.238 OA
HETATM   23  N3  UNL     1       4.029   4.809  22.833  1.00  0.00    -0.337 N 
HETATM   24  C21 UNL     1       5.137   3.981  22.424  1.00  0.00     0.154 C 
HETATM   25  C22 UNL     1       2.756   4.182  23.082  1.00  0.00     0.154 C 
ENDBRANCH  20  21
ENDBRANCH  11  20
BRANCH   6  26
HETATM   26  N1  UNL     1       9.881   8.469  25.195  1.00  0.00    -0.267 N 
HETATM   27  C12 UNL     1       9.985   7.726  26.280  1.00  0.00     0.033 A 
HETATM   28  C13 UNL     1       8.945   7.101  27.129  1.00  0.00     0.070 C 
HETATM   29  C14 UNL     1      11.340   7.629  26.617  1.00  0.00     0.118 A 
HETATM   30  N2  UNL     1      12.027   8.320  25.726  1.00  0.00    -0.317 N 
HETATM   31  C15 UNL     1      11.150   8.840  24.850  1.00  0.00     0.331 A 
ATOM     32  H2  UNL     1      13.039   8.438  25.705  1.00  0.00     0.170 HD
HETATM   33  O4  UNL     1      11.487   9.538  23.892  1.00  0.00    -0.246 OA
ENDBRANCH   6  26
TORSDOF 8
ENDMDL
MODEL 4
REMARK VINA RESULT: -5.932757553      4.745      7.699
REMARK  8 active torsions:
REMARK  status: ('A' for Active; 'I' for Inactive)
REMARK    1  A    between atoms: C2_2  and  C3_3 
REMARK    2  A    between atoms: C3_3  and  C4_4 
REMARK    3  A    between atoms: C4_4  and  C5_5 
REMARK    4  A    between atoms: C5_5  and  C6_6 
REMARK    5  A    between atoms: C6_6  and  O2_8 
REMARK    6  A    between atoms: C11_14  and  N1_15 
REMARK    7  A    between atoms: C19_27  and  O5_28 
REMARK    8  A    between atoms: O5_28  and  C20_29 
REMARK       I    between atoms: C20_29  and  N3_31 
ROOT
HETATM    1  C5  UNL     1       6.698   2.206  18.718  1.00  0.00     0.177 C 
HETATM    2  O3  UNL     1       6.074   1.524  19.730  1.00  0.00    -0.352 OA
HETATM    3  C8  UNL     1       5.796   2.416  20.769  1.00  0.00     0.090 C 
HETATM    4  C9  UNL     1       6.809   2.172  21.914  1.00  0.00     0.051 C 
HETATM    5  C10 UNL     1       4.505   2.051  21.382  1.00  0.00     0.041 C 
HETATM    6  C11 UNL     1       3.542   2.917  21.614  1.00  0.00     0.044 C 
HETATM    7  C16 UNL     1       3.722   4.268  21.179  1.00  0.00     0.045 C 
HETATM    8  C17 UNL     1       4.809   4.678  20.560  1.00  0.00     0.001 C 
HETATM    9 BR1  UNL     1       4.902   6.507  20.048  1.00  0.00    -0.055 Br
HETATM   10  C18 UNL     1       5.905   3.799  20.242  1.00  0.00     0.097 C 
HETATM   11  C19 UNL     1       6.163   3.611  18.769  1.00  0.00     0.190 C 
ENDROOT
BRANCH   1  12
HETATM   12  C4  UNL     1       8.208   2.183  18.868  1.00  0.00     0.051 C 
BRANCH  12  13
HETATM   13  C3  UNL     1       8.692   0.805  19.254  1.00  0.00     0.003 C 
BRANCH  13  14
HETATM   14  C2  UNL     1       9.961   0.429  18.546  1.00  0.00    -0.004 C 
HETATM   15  C1  UNL     1       9.646  -0.496  17.393  1.00  0.00     0.005 C 
ENDBRANCH  13  14
ENDBRANCH  12  13
ENDBRANCH   1  12
BRANCH   1  16
HETATM   16  C6  UNL     1       6.451   1.570  17.381  1.00  0.00     0.296 C 
HETATM   17  O1  UNL     1       7.092   1.828  16.354  1.00  0.00    -0.262 OA
BRANCH  16  18
HETATM   18  O2  UNL     1       5.428   0.636  17.319  1.00  0.00    -0.324 OA
HETATM   19  C7  UNL     1       5.217  -0.189  16.195  1.00  0.00     0.213 C 
ENDBRANCH  16  18
ENDBRANCH   1  16
BRANCH  11  20
HETATM   20  O5  UNL     1       5.154   3.907  17.900  1.00  0.00    -0.294 OA
BRANCH  20  21
HETATM   21  C20 UNL     1       5.184   4.635  16.732  1.00  0.00     0.362 C 
HETATM   22  O6  UNL     1       5.938   5.637  16.736  1.00  0.00    -0.238 OA
HETATM   23  N3  UNL     1       4.450   4.336  15.578  1.00  0.00    -0.337 N 
HETATM   24  C21 UNL     1       3.576   3.189  15.551  1.00  0.00     0.154 C 
HETATM   25  C22 UNL     1       4.545   5.157  14.398  1.00  0.00     0.154 C 
ENDBRANCH  20  21
ENDBRANCH  11  20
BRANCH   6  26
HETATM   26  N1  UNL     1       2.322   2.454  22.216  1.00  0.00    -0.267 N 
HETATM   27  C12 UNL     1       1.277   1.916  21.617  1.00  0.00     0.033 A 
HETATM   28  C13 UNL     1       0.957   1.762  20.179  1.00  0.00     0.070 C 
HETATM   29  C14 UNL     1       0.367   1.511  22.602  1.00  0.00     0.118 A 
HETATM   30  N2  UNL     1       0.885   1.817  23.777  1.00  0.00    -0.317 N 
HETATM   31  C15 UNL     1       2.079   2.394  23.559  1.00  0.00     0.331 A 
ATOM     32  H2  UNL     1       0.456   1.646  24.687  1.00  0.00     0.170 HD
HETATM   33  O4  UNL     1       2.812   2.792  24.466  1.00  0.00    -0.246 OA
ENDBRANCH   6  26
TORSDOF 8
ENDMDL
MODEL 5
REMARK VINA RESULT: -5.851311743      2.468      3.641
REMARK  8 active torsions:
REMARK  status: ('A' for Active; 'I' for Inactive)
REMARK    1  A    between atoms: C2_2  and  C3_3 
REMARK    2  A    between atoms: C3_3  and  C4_4 
REMARK    3  A    between atoms: C4_4  and  C5_5 
REMARK    4  A    between atoms: C5_5  and  C6_6 
REMARK    5  A    between atoms: C6_6  and  O2_8 
REMARK    6  A    between atoms: C11_14  and  N1_15 
REMARK    7  A    between atoms: C19_27  and  O5_28 
REMARK    8  A    between atoms: O5_28  and  C20_29 
REMARK       I    between atoms: C20_29  and  N3_31 
ROOT
HETATM    1  C5  UNL     1       7.362   8.732  21.390  1.00  0.00     0.177 C 
HETATM    2  O3  UNL     1       7.549   7.384  21.553  1.00  0.00    -0.352 OA
HETATM    3  C8  UNL     1       6.300   6.763  21.640  1.00  0.00     0.090 C 
HETATM    4  C9  UNL     1       6.035   6.392  23.119  1.00  0.00     0.051 C 
HETATM    5  C10 UNL     1       6.369   5.450  20.972  1.00  0.00     0.041 C 
HETATM    6  C11 UNL     1       5.486   5.038  20.088  1.00  0.00     0.044 C 
HETATM    7  C16 UNL     1       4.448   5.940  19.693  1.00  0.00     0.045 C 
HETATM    8  C17 UNL     1       4.340   7.159  20.177  1.00  0.00     0.001 C 
HETATM    9 BR1  UNL     1       2.903   8.238  19.556  1.00  0.00    -0.055 Br
HETATM   10  C18 UNL     1       5.271   7.705  21.131  1.00  0.00     0.097 C 
HETATM   11  C19 UNL     1       6.068   8.886  20.639  1.00  0.00     0.190 C 
ENDROOT
BRANCH   1  12
HETATM   12  C4  UNL     1       7.320   9.461  22.720  1.00  0.00     0.051 C 
BRANCH  12  13
HETATM   13  C3  UNL     1       8.485   9.059  23.594  1.00  0.00     0.003 C 
BRANCH  13  14
HETATM   14  C2  UNL     1       8.050   8.662  24.975  1.00  0.00    -0.004 C 
HETATM   15  C1  UNL     1       9.180   7.950  25.681  1.00  0.00     0.005 C 
ENDBRANCH  13  14
ENDBRANCH  12  13
ENDBRANCH   1  12
BRANCH   1  16
HETATM   16  C6  UNL     1       8.506   9.369  20.656  1.00  0.00     0.296 C 
HETATM   17  O1  UNL     1       9.242   8.775  19.858  1.00  0.00    -0.262 OA
BRANCH  16  18
HETATM   18  O2  UNL     1       8.731  10.714  20.907  1.00  0.00    -0.324 OA
HETATM   19  C7  UNL     1       8.494  11.718  19.945  1.00  0.00     0.213 C 
ENDBRANCH  16  18
ENDBRANCH   1  16
BRANCH  11  20
HETATM   20  O5  UNL     1       6.169   9.072  19.291  1.00  0.00    -0.294 OA
BRANCH  20  21
HETATM   21  C20 UNL     1       5.663  10.081  18.502  1.00  0.00     0.362 C 
HETATM   22  O6  UNL     1       5.171  11.056  19.117  1.00  0.00    -0.238 OA
HETATM   23  N3  UNL     1       5.665  10.086  17.102  1.00  0.00    -0.337 N 
HETATM   24  C21 UNL     1       6.226   8.975  16.373  1.00  0.00     0.154 C 
HETATM   25  C22 UNL     1       5.113  11.189  16.358  1.00  0.00     0.154 C 
ENDBRANCH  20  21
ENDBRANCH  11  20
BRANCH   6  26
HETATM   26  N1  UNL     1       5.648   3.739  19.496  1.00  0.00    -0.267 N 
HETATM   27  C12 UNL     1       5.424   2.563  20.050  1.00  0.00     0.033 A 
HETATM   28  C13 UNL     1       5.100   2.197  21.448  1.00  0.00     0.070 C 
HETATM   29  C14 UNL     1       5.604   1.576  19.073  1.00  0.00     0.118 A 
HETATM   30  N2  UNL     1       5.936   2.181  17.947  1.00  0.00    -0.317 N 
HETATM   31  C15 UNL     1       5.967   3.503  18.189  1.00  0.00     0.331 A 
ATOM     32  H2  UNL     1       6.133   1.728  17.055  1.00  0.00     0.170 HD
HETATM   33  O4  UNL     1       6.245   4.340  17.328  1.00  0.00    -0.246 OA
ENDBRANCH   6  26
TORSDOF 8
ENDMDL
