MODEL 1
REMARK VINA RESULT: -8.682763572      0.000      0.000
REMARK  8 active torsions:
REMARK  status: ('A' for Active; 'I' for Inactive)
REMARK    1  A    between atoms: N1_4  and  C4_5 
REMARK    2  A    between atoms: C7_8  and  C8_9 
REMARK    3  A    between atoms: C8_9  and  C9_10 
REMARK    4  A    between atoms: C9_10  and  N2_11 
REMARK       I    between atoms: N2_11  and  C10_13 
REMARK    5  A    between atoms: C10_13  and  C11_15 
REMARK    6  A    between atoms: C11_15  and  C12_16 
REMARK    7  A    between atoms: C20_24  and  C21_25 
REMARK    8  A    between atoms: C21_25  and  C22_26 
ROOT
HETATM    1  C1  UNL     1       7.012  36.827  79.808  1.00  0.00     0.012 C 
HETATM    2  C2  UNL     1       7.294  37.161  78.344  1.00  0.00     0.014 C 
HETATM    3  C3  UNL     1       7.933  35.885  77.748  1.00  0.00     0.277 C 
HETATM    4  N1  UNL     1       6.927  35.075  77.177  1.00  0.00     0.093 N 
HETATM    5  C18 UNL     1       6.302  35.653  76.004  1.00  0.00     0.273 C 
HETATM    6  C19 UNL     1       6.206  37.138  76.150  1.00  0.00     0.035 C 
HETATM    7  C20 UNL     1       6.066  37.539  77.624  1.00  0.00    -0.003 C 
ENDROOT
BRANCH   4   8
HETATM    8  C4  UNL     1       7.378  33.702  76.886  1.00  0.00     0.223 C 
HETATM    9  C5  UNL     1       8.842  33.664  77.140  1.00  0.00     0.036 C 
HETATM   10  C6  UNL     1       9.652  33.329  75.910  1.00  0.00     0.007 C 
HETATM   11  C7  UNL     1       9.072  31.952  75.438  1.00  0.00    -0.013 C 
HETATM   12  C16 UNL     1       7.828  32.345  74.760  1.00  0.00     0.007 C 
HETATM   13  C17 UNL     1       6.927  33.236  75.556  1.00  0.00     0.036 C 
BRANCH  11  14
HETATM   14  C8  UNL     1      10.136  31.259  74.688  1.00  0.00     0.024 C 
BRANCH  14  15
HETATM   15  C9  UNL     1      10.955  30.315  75.471  1.00  0.00     0.123 C 
BRANCH  15  16
HETATM   16  N2  UNL     1      11.912  29.588  74.715  1.00  0.00    -0.361 N 
HETATM   17  C10 UNL     1      12.540  28.436  75.251  1.00  0.00     0.218 C 
HETATM   18  O1  UNL     1      12.260  28.042  76.388  1.00  0.00    -0.274 OA
ATOM     19  H2  UNL     1      12.150  29.898  73.773  1.00  0.00     0.162 HD
BRANCH  17  20
HETATM   20  C11 UNL     1      13.536  27.715  74.423  1.00  0.00     0.111 C 
BRANCH  20  21
HETATM   21  C12 UNL     1      14.920  28.286  74.624  1.00  0.00    -0.043 C 
HETATM   22  C13 UNL     1      15.888  27.115  74.732  1.00  0.00     0.015 C 
HETATM   23  C14 UNL     1      15.046  29.123  75.853  1.00  0.00     0.015 C 
HETATM   24  C15 UNL     1      15.311  29.087  73.393  1.00  0.00     0.015 C 
ENDBRANCH  20  21
ENDBRANCH  17  20
ENDBRANCH  15  16
ENDBRANCH  14  15
ENDBRANCH  11  14
ENDBRANCH   4   8
BRANCH   7  25
HETATM   25  C21 UNL     1       5.623  38.945  77.659  1.00  0.00     0.050 C 
BRANCH  25  26
HETATM   26  C22 UNL     1       4.464  39.297  78.485  1.00  0.00     0.023 A 
HETATM   27  C23 UNL     1       3.705  38.403  79.184  1.00  0.00     0.128 A 
HETATM   28  F1  UNL     1       4.023  37.066  79.263  1.00  0.00    -0.205 F 
HETATM   29  C24 UNL     1       2.598  38.868  79.882  1.00  0.00     0.088 A 
HETATM   30  C25 UNL     1       2.242  40.189  79.895  1.00  0.00     0.161 A 
HETATM   31  F2  UNL     1       1.150  40.651  80.583  1.00  0.00    -0.203 F 
HETATM   32  C26 UNL     1       2.990  41.112  79.201  1.00  0.00     0.194 A 
HETATM   33  F3  UNL     1       2.629  42.417  79.223  1.00  0.00    -0.200 F 
HETATM   34  C27 UNL     1       4.079  40.651  78.513  1.00  0.00     0.167 A 
HETATM   35  F4  UNL     1       4.816  41.587  77.825  1.00  0.00    -0.202 F 
ENDBRANCH  25  26
ENDBRANCH   7  25
TORSDOF 8
ENDMDL
MODEL 2
REMARK VINA RESULT: -8.491174723      1.974      2.904
REMARK  8 active torsions:
REMARK  status: ('A' for Active; 'I' for Inactive)
REMARK    1  A    between atoms: N1_4  and  C4_5 
REMARK    2  A    between atoms: C7_8  and  C8_9 
REMARK    3  A    between atoms: C8_9  and  C9_10 
REMARK    4  A    between atoms: C9_10  and  N2_11 
REMARK       I    between atoms: N2_11  and  C10_13 
REMARK    5  A    between atoms: C10_13  and  C11_15 
REMARK    6  A    between atoms: C11_15  and  C12_16 
REMARK    7  A    between atoms: C20_24  and  C21_25 
REMARK    8  A    between atoms: C21_25  and  C22_26 
ROOT
HETATM    1  C1  UNL     1       7.037  36.975  79.909  1.00  0.00     0.012 C 
HETATM    2  C2  UNL     1       7.318  37.270  78.437  1.00  0.00     0.014 C 
HETATM    3  C3  UNL     1       8.063  36.024  77.904  1.00  0.00     0.277 C 
HETATM    4  N1  UNL     1       7.132  35.115  77.353  1.00  0.00     0.093 N 
HETATM    5  C18 UNL     1       6.484  35.594  76.148  1.00  0.00     0.273 C 
HETATM    6  C19 UNL     1       6.272  37.072  76.231  1.00  0.00     0.035 C 
HETATM    7  C20 UNL     1       6.077  37.521  77.684  1.00  0.00    -0.003 C 
ENDROOT
BRANCH   4   8
HETATM    8  C4  UNL     1       7.692  33.771  77.128  1.00  0.00     0.223 C 
HETATM    9  C5  UNL     1       9.159  33.871  77.343  1.00  0.00     0.036 C 
HETATM   10  C6  UNL     1       9.968  33.535  76.113  1.00  0.00     0.007 C 
HETATM   11  C7  UNL     1       9.498  32.089  75.734  1.00  0.00    -0.013 C 
HETATM   12  C16 UNL     1       8.210  32.337  75.069  1.00  0.00     0.007 C 
HETATM   13  C17 UNL     1       7.254  33.192  75.838  1.00  0.00     0.036 C 
BRANCH  11  14
HETATM   14  C8  UNL     1      10.601  31.447  74.995  1.00  0.00     0.024 C 
BRANCH  14  15
HETATM   15  C9  UNL     1      11.268  30.331  75.691  1.00  0.00     0.123 C 
BRANCH  15  16
HETATM   16  N2  UNL     1      11.358  30.477  77.101  1.00  0.00    -0.361 N 
HETATM   17  C10 UNL     1      12.616  30.615  77.739  1.00  0.00     0.218 C 
HETATM   18  O1  UNL     1      13.658  30.616  77.075  1.00  0.00    -0.274 OA
ATOM     19  H2  UNL     1      10.507  30.482  77.662  1.00  0.00     0.162 HD
BRANCH  17  20
HETATM   20  C11 UNL     1      12.657  30.760  79.214  1.00  0.00     0.111 C 
BRANCH  20  21
HETATM   21  C12 UNL     1      12.508  32.208  79.619  1.00  0.00    -0.043 C 
HETATM   22  C13 UNL     1      11.068  32.411  80.073  1.00  0.00     0.015 C 
HETATM   23  C14 UNL     1      12.799  33.168  78.514  1.00  0.00     0.015 C 
HETATM   24  C15 UNL     1      13.405  32.484  80.815  1.00  0.00     0.015 C 
ENDBRANCH  20  21
ENDBRANCH  17  20
ENDBRANCH  15  16
ENDBRANCH  14  15
ENDBRANCH  11  14
ENDBRANCH   4   8
BRANCH   7  25
HETATM   25  C21 UNL     1       5.526  38.889  77.653  1.00  0.00     0.050 C 
BRANCH  25  26
HETATM   26  C22 UNL     1       4.390  39.209  78.522  1.00  0.00     0.023 A 
HETATM   27  C23 UNL     1       3.679  38.294  79.245  1.00  0.00     0.128 A 
HETATM   28  F1  UNL     1       4.032  36.966  79.307  1.00  0.00    -0.205 F 
HETATM   29  C24 UNL     1       2.587  38.730  79.985  1.00  0.00     0.088 A 
HETATM   30  C25 UNL     1       2.200  40.042  80.018  1.00  0.00     0.161 A 
HETATM   31  F2  UNL     1       1.123  40.474  80.747  1.00  0.00    -0.203 F 
HETATM   32  C26 UNL     1       2.899  40.985  79.300  1.00  0.00     0.194 A 
HETATM   33  F3  UNL     1       2.507  42.281  79.342  1.00  0.00    -0.200 F 
HETATM   34  C27 UNL     1       3.973  40.554  78.571  1.00  0.00     0.167 A 
HETATM   35  F4  UNL     1       4.661  41.509  77.860  1.00  0.00    -0.202 F 
ENDBRANCH  25  26
ENDBRANCH   7  25
TORSDOF 8
ENDMDL
MODEL 3
REMARK VINA RESULT: -8.435175270      1.387      1.929
REMARK  8 active torsions:
REMARK  status: ('A' for Active; 'I' for Inactive)
REMARK    1  A    between atoms: N1_4  and  C4_5 
REMARK    2  A    between atoms: C7_8  and  C8_9 
REMARK    3  A    between atoms: C8_9  and  C9_10 
REMARK    4  A    between atoms: C9_10  and  N2_11 
REMARK       I    between atoms: N2_11  and  C10_13 
REMARK    5  A    between atoms: C10_13  and  C11_15 
REMARK    6  A    between atoms: C11_15  and  C12_16 
REMARK    7  A    between atoms: C20_24  and  C21_25 
REMARK    8  A    between atoms: C21_25  and  C22_26 
ROOT
HETATM    1  C1  UNL     1       9.020  36.538  78.756  1.00  0.00     0.012 C 
HETATM    2  C2  UNL     1       8.452  36.723  77.350  1.00  0.00     0.014 C 
HETATM    3  C3  UNL     1       8.917  35.481  76.554  1.00  0.00     0.277 C 
HETATM    4  N1  UNL     1       7.926  34.477  76.622  1.00  0.00     0.093 N 
HETATM    5  C18 UNL     1       6.698  34.813  75.929  1.00  0.00     0.273 C 
HETATM    6  C19 UNL     1       6.424  36.278  76.051  1.00  0.00     0.035 C 
HETATM    7  C20 UNL     1       6.984  36.837  77.365  1.00  0.00    -0.003 C 
ENDROOT
BRANCH   4   8
HETATM    8  C4  UNL     1       8.406  33.153  76.188  1.00  0.00     0.223 C 
HETATM    9  C5  UNL     1       8.290  32.244  77.359  1.00  0.00     0.036 C 
HETATM   10  C6  UNL     1       9.616  31.683  77.813  1.00  0.00     0.007 C 
HETATM   11  C7  UNL     1      10.185  30.974  76.538  1.00  0.00    -0.013 C 
HETATM   12  C16 UNL     1      10.702  32.103  75.749  1.00  0.00     0.007 C 
HETATM   13  C17 UNL     1       9.735  33.225  75.540  1.00  0.00     0.036 C 
BRANCH  11  14
HETATM   14  C8  UNL     1      11.099  29.911  76.995  1.00  0.00     0.024 C 
BRANCH  14  15
HETATM   15  C9  UNL     1      12.387  30.372  77.545  1.00  0.00     0.123 C 
BRANCH  15  16
HETATM   16  N2  UNL     1      13.489  30.262  76.657  1.00  0.00    -0.361 N 
HETATM   17  C10 UNL     1      14.277  29.085  76.616  1.00  0.00     0.218 C 
HETATM   18  O1  UNL     1      14.012  28.129  77.354  1.00  0.00    -0.274 OA
ATOM     19  H2  UNL     1      13.716  31.041  76.039  1.00  0.00     0.162 HD
BRANCH  17  20
HETATM   20  C11 UNL     1      15.419  29.022  75.675  1.00  0.00     0.111 C 
BRANCH  20  21
HETATM   21  C12 UNL     1      14.997  28.425  74.352  1.00  0.00    -0.043 C 
HETATM   22  C13 UNL     1      15.900  29.012  73.275  1.00  0.00     0.015 C 
HETATM   23  C14 UNL     1      13.578  28.715  73.994  1.00  0.00     0.015 C 
HETATM   24  C15 UNL     1      15.242  26.925  74.383  1.00  0.00     0.015 C 
ENDBRANCH  20  21
ENDBRANCH  17  20
ENDBRANCH  15  16
ENDBRANCH  14  15
ENDBRANCH  11  14
ENDBRANCH   4   8
BRANCH   7  25
HETATM   25  C21 UNL     1       6.374  38.163  77.576  1.00  0.00     0.050 C 
BRANCH  25  26
HETATM   26  C22 UNL     1       5.171  38.259  78.407  1.00  0.00     0.023 A 
HETATM   27  C23 UNL     1       4.739  37.292  79.269  1.00  0.00     0.128 A 
HETATM   28  F1  UNL     1       5.464  36.150  79.520  1.00  0.00    -0.205 F 
HETATM   29  C24 UNL     1       3.548  37.491  79.955  1.00  0.00     0.088 A 
HETATM   30  C25 UNL     1       2.793  38.622  79.800  1.00  0.00     0.161 A 
HETATM   31  F2  UNL     1       1.618  38.821  80.476  1.00  0.00    -0.203 F 
HETATM   32  C26 UNL     1       3.205  39.614  78.939  1.00  0.00     0.194 A 
HETATM   33  F3  UNL     1       2.450  40.729  78.796  1.00  0.00    -0.200 F 
HETATM   34  C27 UNL     1       4.378  39.415  78.264  1.00  0.00     0.167 A 
HETATM   35  F4  UNL     1       4.775  40.416  77.409  1.00  0.00    -0.202 F 
ENDBRANCH  25  26
ENDBRANCH   7  25
TORSDOF 8
ENDMDL
MODEL 4
REMARK VINA RESULT: -8.177169947      1.187      1.560
REMARK  8 active torsions:
REMARK  status: ('A' for Active; 'I' for Inactive)
REMARK    1  A    between atoms: N1_4  and  C4_5 
REMARK    2  A    between atoms: C7_8  and  C8_9 
REMARK    3  A    between atoms: C8_9  and  C9_10 
REMARK    4  A    between atoms: C9_10  and  N2_11 
REMARK       I    between atoms: N2_11  and  C10_13 
REMARK    5  A    between atoms: C10_13  and  C11_15 
REMARK    6  A    between atoms: C11_15  and  C12_16 
REMARK    7  A    between atoms: C20_24  and  C21_25 
REMARK    8  A    between atoms: C21_25  and  C22_26 
ROOT
HETATM    1  C1  UNL     1       9.007  36.231  78.834  1.00  0.00     0.012 C 
HETATM    2  C2  UNL     1       8.406  36.753  77.531  1.00  0.00     0.014 C 
HETATM    3  C3  UNL     1       8.783  35.707  76.457  1.00  0.00     0.277 C 
HETATM    4  N1  UNL     1       7.745  34.756  76.338  1.00  0.00     0.093 N 
HETATM    5  C18 UNL     1       6.515  35.292  75.791  1.00  0.00     0.273 C 
HETATM    6  C19 UNL     1       6.318  36.701  76.251  1.00  0.00     0.035 C 
HETATM    7  C20 UNL     1       6.946  36.922  77.633  1.00  0.00    -0.003 C 
ENDROOT
BRANCH   4   8
HETATM    8  C4  UNL     1       8.144  33.546  75.597  1.00  0.00     0.223 C 
HETATM    9  C5  UNL     1       7.324  32.424  76.124  1.00  0.00     0.036 C 
HETATM   10  C6  UNL     1       8.148  31.330  76.759  1.00  0.00     0.007 C 
HETATM   11  C7  UNL     1       9.135  30.891  75.624  1.00  0.00    -0.013 C 
HETATM   12  C16 UNL     1      10.151  31.954  75.657  1.00  0.00     0.007 C 
HETATM   13  C17 UNL     1       9.611  33.347  75.600  1.00  0.00     0.036 C 
BRANCH  11  14
HETATM   14  C8  UNL     1       9.519  29.492  75.890  1.00  0.00     0.024 C 
BRANCH  14  15
HETATM   15  C9  UNL     1      10.923  29.282  76.286  1.00  0.00     0.123 C 
BRANCH  15  16
HETATM   16  N2  UNL     1      11.847  29.241  75.209  1.00  0.00    -0.361 N 
HETATM   17  C10 UNL     1      12.689  28.118  75.013  1.00  0.00     0.218 C 
HETATM   18  O1  UNL     1      12.629  27.150  75.779  1.00  0.00    -0.274 OA
ATOM     19  H2  UNL     1      11.905  30.030  74.566  1.00  0.00     0.162 HD
BRANCH  17  20
HETATM   20  C11 UNL     1      13.639  28.126  73.876  1.00  0.00     0.111 C 
BRANCH  20  21
HETATM   21  C12 UNL     1      15.060  28.303  74.360  1.00  0.00    -0.043 C 
HETATM   22  C13 UNL     1      15.641  26.915  74.593  1.00  0.00     0.015 C 
HETATM   23  C14 UNL     1      15.163  29.081  75.630  1.00  0.00     0.015 C 
HETATM   24  C15 UNL     1      15.880  28.963  73.264  1.00  0.00     0.015 C 
ENDBRANCH  20  21
ENDBRANCH  17  20
ENDBRANCH  15  16
ENDBRANCH  14  15
ENDBRANCH  11  14
ENDBRANCH   4   8
BRANCH   7  25
HETATM   25  C21 UNL     1       6.411  38.191  78.163  1.00  0.00     0.050 C 
BRANCH  25  26
HETATM   26  C22 UNL     1       5.102  38.180  78.823  1.00  0.00     0.023 A 
HETATM   27  C23 UNL     1       4.626  37.159  79.594  1.00  0.00     0.128 A 
HETATM   28  F1  UNL     1       5.389  36.059  79.917  1.00  0.00    -0.205 F 
HETATM   29  C24 UNL     1       3.342  37.256  80.114  1.00  0.00     0.088 A 
HETATM   30  C25 UNL     1       2.538  38.338  79.882  1.00  0.00     0.161 A 
HETATM   31  F2  UNL     1       1.270  38.436  80.394  1.00  0.00    -0.203 F 
HETATM   32  C26 UNL     1       2.991  39.382  79.109  1.00  0.00     0.194 A 
HETATM   33  F3  UNL     1       2.186  40.449  78.888  1.00  0.00    -0.200 F 
HETATM   34  C27 UNL     1       4.256  39.283  78.598  1.00  0.00     0.167 A 
HETATM   35  F4  UNL     1       4.695  40.335  77.828  1.00  0.00    -0.202 F 
ENDBRANCH  25  26
ENDBRANCH   7  25
TORSDOF 8
ENDMDL
MODEL 5
REMARK VINA RESULT: -8.051474522      2.417      3.324
REMARK  8 active torsions:
REMARK  status: ('A' for Active; 'I' for Inactive)
REMARK    1  A    between atoms: N1_4  and  C4_5 
REMARK    2  A    between atoms: C7_8  and  C8_9 
REMARK    3  A    between atoms: C8_9  and  C9_10 
REMARK    4  A    between atoms: C9_10  and  N2_11 
REMARK       I    between atoms: N2_11  and  C10_13 
REMARK    5  A    between atoms: C10_13  and  C11_15 
REMARK    6  A    between atoms: C11_15  and  C12_16 
REMARK    7  A    between atoms: C20_24  and  C21_25 
REMARK    8  A    between atoms: C21_25  and  C22_26 
ROOT
HETATM    1  C1  UNL     1       9.197  36.247  78.768  1.00  0.00     0.012 C 
HETATM    2  C2  UNL     1       8.554  36.716  77.464  1.00  0.00     0.014 C 
HETATM    3  C3  UNL     1       8.939  35.651  76.412  1.00  0.00     0.277 C 
HETATM    4  N1  UNL     1       7.928  34.668  76.340  1.00  0.00     0.093 N 
HETATM    5  C18 UNL     1       6.671  35.154  75.805  1.00  0.00     0.273 C 
HETATM    6  C19 UNL     1       6.444  36.569  76.231  1.00  0.00     0.035 C 
HETATM    7  C20 UNL     1       7.093  36.846  77.592  1.00  0.00    -0.003 C 
ENDROOT
BRANCH   4   8
HETATM    8  C4  UNL     1       8.346  33.450  75.624  1.00  0.00     0.223 C 
HETATM    9  C5  UNL     1       7.623  32.311  76.246  1.00  0.00     0.036 C 
HETATM   10  C6  UNL     1       8.543  31.289  76.871  1.00  0.00     0.007 C 
HETATM   11  C7  UNL     1       9.481  30.854  75.694  1.00  0.00    -0.013 C 
HETATM   12  C16 UNL     1      10.437  31.968  75.620  1.00  0.00     0.007 C 
HETATM   13  C17 UNL     1       9.819  33.328  75.542  1.00  0.00     0.036 C 
BRANCH  11  14
HETATM   14  C8  UNL     1       9.956  29.490  75.991  1.00  0.00     0.024 C 
BRANCH  14  15
HETATM   15  C9  UNL     1      11.378  29.379  76.365  1.00  0.00     0.123 C 
BRANCH  15  16
HETATM   16  N2  UNL     1      11.661  29.666  77.726  1.00  0.00    -0.361 N 
HETATM   17  C10 UNL     1      12.917  30.196  78.113  1.00  0.00     0.218 C 
HETATM   18  O1  UNL     1      13.788  30.423  77.267  1.00  0.00    -0.274 OA
ATOM     19  H2  UNL     1      10.951  29.487  78.436  1.00  0.00     0.162 HD
BRANCH  17  20
HETATM   20  C11 UNL     1      13.164  30.473  79.548  1.00  0.00     0.111 C 
BRANCH  20  21
HETATM   21  C12 UNL     1      12.656  31.845  79.928  1.00  0.00    -0.043 C 
HETATM   22  C13 UNL     1      11.200  31.695  80.348  1.00  0.00     0.015 C 
HETATM   23  C14 UNL     1      12.731  32.837  78.815  1.00  0.00     0.015 C 
HETATM   24  C15 UNL     1      13.430  32.343  81.138  1.00  0.00     0.015 C 
ENDBRANCH  20  21
ENDBRANCH  17  20
ENDBRANCH  15  16
ENDBRANCH  14  15
ENDBRANCH  11  14
ENDBRANCH   4   8
BRANCH   7  25
HETATM   25  C21 UNL     1       6.532  38.113  78.099  1.00  0.00     0.050 C 
BRANCH  25  26
HETATM   26  C22 UNL     1       5.233  38.085  78.778  1.00  0.00     0.023 A 
HETATM   27  C23 UNL     1       4.782  37.056  79.555  1.00  0.00     0.128 A 
HETATM   28  F1  UNL     1       5.563  35.966  79.864  1.00  0.00    -0.205 F 
HETATM   29  C24 UNL     1       3.504  37.137  80.094  1.00  0.00     0.088 A 
HETATM   30  C25 UNL     1       2.684  38.210  79.877  1.00  0.00     0.161 A 
HETATM   31  F2  UNL     1       1.423  38.291  80.408  1.00  0.00    -0.203 F 
HETATM   32  C26 UNL     1       3.113  39.260  79.099  1.00  0.00     0.194 A 
HETATM   33  F3  UNL     1       2.292  40.318  78.893  1.00  0.00    -0.200 F 
HETATM   34  C27 UNL     1       4.371  39.178  78.568  1.00  0.00     0.167 A 
HETATM   35  F4  UNL     1       4.785  40.237  77.794  1.00  0.00    -0.202 F 
ENDBRANCH  25  26
ENDBRANCH   7  25
TORSDOF 8
ENDMDL
