MODEL 1
REMARK VINA RESULT: -6.332402620      0.000      0.000
REMARK  9 active torsions:
REMARK  status: ('A' for Active; 'I' for Inactive)
REMARK    1  A    between atoms: C2_2  and  C3_3 
REMARK    2  A    between atoms: C3_3  and  C4_4 
REMARK    3  A    between atoms: C3_3  and  N3_20 
REMARK    4  A    between atoms: C4_4  and  N1_5 
REMARK    5  A    between atoms: C6_8  and  N2_9 
REMARK    6  A    between atoms: C6_8  and  C7_13 
REMARK    7  A    between atoms: C7_13  and  C8_14 
REMARK    8  A    between atoms: C18_25  and  C19_26 
REMARK    9  A    between atoms: C23_32  and  C24_33 
ROOT
HETATM    1  C3  UNL     1       5.836  36.799  78.912  1.00  0.00     0.118 C 
ENDROOT
BRANCH   1   2
HETATM    2  C2  UNL     1       5.151  38.184  78.716  1.00  0.00     0.026 C 
HETATM    3  C1  UNL     1       3.797  38.161  79.453  1.00  0.00     0.007 C 
ENDBRANCH   1   2
BRANCH   1   4
HETATM    4  C4  UNL     1       4.727  35.865  79.110  1.00  0.00     0.092 C 
BRANCH   4   5
HETATM    5  N1  UNL     1       4.820  34.470  79.153  1.00  0.00    -0.323 N 
HETATM    6  C5  UNL     1       4.132  33.480  78.333  1.00  0.00     0.260 C 
HETATM    7  O1  UNL     1       2.949  33.645  77.976  1.00  0.00    -0.270 OA
HETATM    8  C6  UNL     1       5.051  32.343  78.043  1.00  0.00     0.205 C 
HETATM    9  C11 UNL     1       6.293  32.777  78.780  1.00  0.00     0.074 C 
HETATM   10  C12 UNL     1       5.689  33.614  79.938  1.00  0.00     0.090 C 
HETATM   11  C13 UNL     1       4.870  32.675  80.775  1.00  0.00     0.033 C 
BRANCH   8  12
HETATM   12  N2  UNL     1       4.533  31.073  78.440  1.00  0.00    -0.061 N 
ATOM     13  H23 UNL     1       3.564  31.158  78.746  1.00  0.00     0.275 HD
ATOM     14  H22 UNL     1       4.404  30.468  77.629  1.00  0.00     0.275 HD
ATOM     15  H21 UNL     1       5.095  30.607  79.152  1.00  0.00     0.275 HD
ENDBRANCH   8  12
BRANCH   8  16
HETATM   16  C7  UNL     1       5.331  32.393  76.552  1.00  0.00     0.052 C 
BRANCH  16  17
HETATM   17  C8  UNL     1       6.744  32.319  76.146  1.00  0.00    -0.020 C 
HETATM   18  C9  UNL     1       7.133  32.920  74.832  1.00  0.00     0.009 C 
HETATM   19  C10 UNL     1       7.088  30.824  76.019  1.00  0.00     0.009 C 
ENDBRANCH  16  17
ENDBRANCH   8  16
ENDBRANCH   4   5
ENDBRANCH   1   4
BRANCH   1  20
HETATM   20  N3  UNL     1       6.751  36.618  77.862  1.00  0.00    -0.395 N 
HETATM   21  C14 UNL     1       6.211  36.133  76.641  1.00  0.00     0.118 C 
HETATM   22  C15 UNL     1       6.997  36.573  75.426  1.00  0.00     0.020 C 
HETATM   23  C16 UNL     1       7.930  37.718  75.747  1.00  0.00     0.004 C 
HETATM   24  C17 UNL     1       8.861  37.383  76.875  1.00  0.00     0.030 C 
HETATM   25  C18 UNL     1       8.117  36.704  78.038  1.00  0.00     0.113 C 
BRANCH  25  26
HETATM   26  C19 UNL     1       8.914  35.486  78.334  1.00  0.00    -0.032 A 
HETATM   27  C20 UNL     1       9.164  34.992  79.599  1.00  0.00     0.054 A 
HETATM   28  C21 UNL     1       9.878  33.813  79.828  1.00  0.00     0.156 A 
HETATM   29  F1  UNL     1      10.096  33.380  81.110  1.00  0.00    -0.203 F 
HETATM   30  C22 UNL     1      10.369  33.087  78.794  1.00  0.00     0.169 A 
HETATM   31  F2  UNL     1      11.081  31.925  78.990  1.00  0.00    -0.202 F 
HETATM   32  C23 UNL     1      10.143  33.543  77.515  1.00  0.00     0.090 A 
HETATM   33  C25 UNL     1       9.442  34.699  77.296  1.00  0.00     0.028 A 
BRANCH  32  34
HETATM   34  C24 UNL     1      10.678  32.699  76.391  1.00  0.00     0.420 C 
HETATM   35  F3  UNL     1      12.045  32.848  76.454  1.00  0.00    -0.166 F 
HETATM   36  F4  UNL     1      10.227  31.420  76.410  1.00  0.00    -0.166 F 
HETATM   37  F5  UNL     1      10.294  33.361  75.210  1.00  0.00    -0.166 F 
ENDBRANCH  32  34
ENDBRANCH  25  26
ENDBRANCH   1  20
TORSDOF 9
ENDMDL
MODEL 2
REMARK VINA RESULT: -6.299776913      3.261      5.690
REMARK  9 active torsions:
REMARK  status: ('A' for Active; 'I' for Inactive)
REMARK    1  A    between atoms: C2_2  and  C3_3 
REMARK    2  A    between atoms: C3_3  and  C4_4 
REMARK    3  A    between atoms: C3_3  and  N3_20 
REMARK    4  A    between atoms: C4_4  and  N1_5 
REMARK    5  A    between atoms: C6_8  and  N2_9 
REMARK    6  A    between atoms: C6_8  and  C7_13 
REMARK    7  A    between atoms: C7_13  and  C8_14 
REMARK    8  A    between atoms: C18_25  and  C19_26 
REMARK    9  A    between atoms: C23_32  and  C24_33 
ROOT
HETATM    1  C3  UNL     1       9.960  33.436  80.066  1.00  0.00     0.118 C 
ENDROOT
BRANCH   1   2
HETATM    2  C2  UNL     1      10.942  32.889  81.143  1.00  0.00     0.026 C 
HETATM    3  C1  UNL     1      12.198  32.356  80.425  1.00  0.00     0.007 C 
ENDBRANCH   1   2
BRANCH   1   4
HETATM    4  C4  UNL     1       9.647  32.275  79.231  1.00  0.00     0.092 C 
BRANCH   4   5
HETATM    5  N1  UNL     1       9.669  32.235  77.833  1.00  0.00    -0.323 N 
HETATM    6  C5  UNL     1       8.813  31.481  76.925  1.00  0.00     0.260 C 
HETATM    7  O1  UNL     1       8.424  30.331  77.205  1.00  0.00    -0.270 OA
HETATM    8  C6  UNL     1       8.530  32.297  75.709  1.00  0.00     0.205 C 
HETATM    9  C11 UNL     1       9.310  33.552  76.014  1.00  0.00     0.074 C 
HETATM   10  C12 UNL     1      10.464  32.995  76.887  1.00  0.00     0.090 C 
HETATM   11  C13 UNL     1      11.261  32.066  76.019  1.00  0.00     0.033 C 
BRANCH   8  12
HETATM   12  N2  UNL     1       8.890  31.650  74.489  1.00  0.00    -0.061 N 
ATOM     13  H23 UNL     1       9.675  31.016  74.635  1.00  0.00     0.275 HD
ATOM     14  H22 UNL     1       8.175  30.978  74.213  1.00  0.00     0.275 HD
ATOM     15  H21 UNL     1       9.088  32.298  73.726  1.00  0.00     0.275 HD
ENDBRANCH   8  12
BRANCH   8  16
HETATM   16  C7  UNL     1       7.048  32.626  75.754  1.00  0.00     0.052 C 
BRANCH  16  17
HETATM   17  C8  UNL     1       6.646  33.719  76.654  1.00  0.00    -0.020 C 
HETATM   18  C9  UNL     1       6.018  33.359  77.963  1.00  0.00     0.009 C 
HETATM   19  C10 UNL     1       5.572  34.532  75.906  1.00  0.00     0.009 C 
ENDBRANCH  16  17
ENDBRANCH   8  16
ENDBRANCH   4   5
ENDBRANCH   1   4
BRANCH   1  20
HETATM   20  N3  UNL     1       8.942  34.141  80.729  1.00  0.00    -0.395 N 
HETATM   21  C14 UNL     1       7.888  33.356  81.268  1.00  0.00     0.118 C 
HETATM   22  C15 UNL     1       7.231  33.989  82.473  1.00  0.00     0.020 C 
HETATM   23  C16 UNL     1       8.074  35.103  83.052  1.00  0.00     0.004 C 
HETATM   24  C17 UNL     1       8.400  36.149  82.027  1.00  0.00     0.030 C 
HETATM   25  C18 UNL     1       8.843  35.517  80.696  1.00  0.00     0.113 C 
BRANCH  25  26
HETATM   26  C19 UNL     1       8.009  36.186  79.666  1.00  0.00    -0.032 A 
HETATM   27  C20 UNL     1       6.717  36.632  79.859  1.00  0.00     0.054 A 
HETATM   28  C21 UNL     1       5.987  37.303  78.874  1.00  0.00     0.156 A 
HETATM   29  F1  UNL     1       4.705  37.715  79.131  1.00  0.00    -0.203 F 
HETATM   30  C22 UNL     1       6.528  37.549  77.656  1.00  0.00     0.169 A 
HETATM   31  F2  UNL     1       5.831  38.201  76.665  1.00  0.00    -0.202 F 
HETATM   32  C23 UNL     1       7.816  37.121  77.419  1.00  0.00     0.090 A 
HETATM   33  C25 UNL     1       8.526  36.465  78.388  1.00  0.00     0.028 A 
BRANCH  32  34
HETATM   34  C24 UNL     1       8.394  37.434  76.068  1.00  0.00     0.420 C 
HETATM   35  F3  UNL     1       7.756  36.577  75.200  1.00  0.00    -0.166 F 
HETATM   36  F4  UNL     1       8.332  38.750  75.742  1.00  0.00    -0.166 F 
HETATM   37  F5  UNL     1       9.725  36.980  76.115  1.00  0.00    -0.166 F 
ENDBRANCH  32  34
ENDBRANCH  25  26
ENDBRANCH   1  20
TORSDOF 9
ENDMDL
MODEL 3
REMARK VINA RESULT: -6.247338035      4.438      6.598
REMARK  9 active torsions:
REMARK  status: ('A' for Active; 'I' for Inactive)
REMARK    1  A    between atoms: C2_2  and  C3_3 
REMARK    2  A    between atoms: C3_3  and  C4_4 
REMARK    3  A    between atoms: C3_3  and  N3_20 
REMARK    4  A    between atoms: C4_4  and  N1_5 
REMARK    5  A    between atoms: C6_8  and  N2_9 
REMARK    6  A    between atoms: C6_8  and  C7_13 
REMARK    7  A    between atoms: C7_13  and  C8_14 
REMARK    8  A    between atoms: C18_25  and  C19_26 
REMARK    9  A    between atoms: C23_32  and  C24_33 
ROOT
HETATM    1  C3  UNL     1       7.316  35.602  79.651  1.00  0.00     0.118 C 
ENDROOT
BRANCH   1   2
HETATM    2  C2  UNL     1       6.240  34.487  79.503  1.00  0.00     0.026 C 
HETATM    3  C1  UNL     1       5.399  34.452  80.795  1.00  0.00     0.007 C 
ENDBRANCH   1   2
BRANCH   1   4
HETATM    4  C4  UNL     1       8.561  34.878  79.912  1.00  0.00     0.092 C 
BRANCH   4   5
HETATM    5  N1  UNL     1       9.237  34.047  79.011  1.00  0.00    -0.323 N 
HETATM    6  C5  UNL     1       8.998  32.642  78.705  1.00  0.00     0.260 C 
HETATM    7  O1  UNL     1       8.660  31.834  79.591  1.00  0.00    -0.270 OA
HETATM    8  C6  UNL     1       9.221  32.401  77.250  1.00  0.00     0.205 C 
HETATM    9  C11 UNL     1       9.617  33.780  76.785  1.00  0.00     0.074 C 
HETATM   10  C12 UNL     1      10.286  34.357  78.059  1.00  0.00     0.090 C 
HETATM   11  C13 UNL     1      11.499  33.516  78.336  1.00  0.00     0.033 C 
BRANCH   8  12
HETATM   12  N2  UNL     1      10.181  31.380  76.980  1.00  0.00    -0.061 N 
ATOM     13  H23 UNL     1      10.814  31.262  77.771  1.00  0.00     0.275 HD
ATOM     14  H22 UNL     1       9.739  30.462  76.976  1.00  0.00     0.275 HD
ATOM     15  H21 UNL     1      10.707  31.531  76.119  1.00  0.00     0.275 HD
ENDBRANCH   8  12
BRANCH   8  16
HETATM   16  C7  UNL     1       7.863  32.064  76.662  1.00  0.00     0.052 C 
BRANCH  16  17
HETATM   17  C8  UNL     1       7.275  33.061  75.753  1.00  0.00    -0.020 C 
HETATM   18  C9  UNL     1       5.830  33.408  75.927  1.00  0.00     0.009 C 
HETATM   19  C10 UNL     1       7.377  32.476  74.332  1.00  0.00     0.009 C 
ENDBRANCH  16  17
ENDBRANCH   8  16
ENDBRANCH   4   5
ENDBRANCH   1   4
BRANCH   1  20
HETATM   20  N3  UNL     1       7.202  36.463  78.547  1.00  0.00    -0.395 N 
HETATM   21  C14 UNL     1       8.345  37.250  78.248  1.00  0.00     0.118 C 
HETATM   22  C15 UNL     1       8.453  37.609  76.783  1.00  0.00     0.020 C 
HETATM   23  C16 UNL     1       7.552  36.750  75.927  1.00  0.00     0.004 C 
HETATM   24  C17 UNL     1       6.121  36.818  76.375  1.00  0.00     0.030 C 
HETATM   25  C18 UNL     1       6.004  36.697  77.904  1.00  0.00     0.113 C 
BRANCH  25  26
HETATM   26  C19 UNL     1       5.146  37.841  78.307  1.00  0.00    -0.032 A 
HETATM   27  C20 UNL     1       5.279  39.133  77.840  1.00  0.00     0.054 A 
HETATM   28  C21 UNL     1       4.415  40.169  78.209  1.00  0.00     0.156 A 
HETATM   29  F1  UNL     1       4.606  41.432  77.712  1.00  0.00    -0.203 F 
HETATM   30  C22 UNL     1       3.387  39.944  79.063  1.00  0.00     0.169 A 
HETATM   31  F2  UNL     1       2.525  40.945  79.449  1.00  0.00    -0.202 F 
HETATM   32  C23 UNL     1       3.218  38.668  79.554  1.00  0.00     0.090 A 
HETATM   33  C25 UNL     1       4.066  37.658  79.189  1.00  0.00     0.028 A 
BRANCH  32  34
HETATM   34  C24 UNL     1       2.051  38.449  80.476  1.00  0.00     0.420 C 
HETATM   35  F3  UNL     1       2.408  39.065  81.655  1.00  0.00    -0.166 F 
HETATM   36  F4  UNL     1       0.862  38.835  79.951  1.00  0.00    -0.166 F 
HETATM   37  F5  UNL     1       2.059  37.072  80.769  1.00  0.00    -0.166 F 
ENDBRANCH  32  34
ENDBRANCH  25  26
ENDBRANCH   1  20
TORSDOF 9
ENDMDL
MODEL 4
REMARK VINA RESULT: -6.228127051      1.576      2.648
REMARK  9 active torsions:
REMARK  status: ('A' for Active; 'I' for Inactive)
REMARK    1  A    between atoms: C2_2  and  C3_3 
REMARK    2  A    between atoms: C3_3  and  C4_4 
REMARK    3  A    between atoms: C3_3  and  N3_20 
REMARK    4  A    between atoms: C4_4  and  N1_5 
REMARK    5  A    between atoms: C6_8  and  N2_9 
REMARK    6  A    between atoms: C6_8  and  C7_13 
REMARK    7  A    between atoms: C7_13  and  C8_14 
REMARK    8  A    between atoms: C18_25  and  C19_26 
REMARK    9  A    between atoms: C23_32  and  C24_33 
ROOT
HETATM    1  C3  UNL     1       6.219  36.364  78.434  1.00  0.00     0.118 C 
ENDROOT
BRANCH   1   2
HETATM    2  C2  UNL     1       5.837  37.789  78.931  1.00  0.00     0.026 C 
HETATM    3  C1  UNL     1       4.339  37.789  79.295  1.00  0.00     0.007 C 
ENDBRANCH   1   2
BRANCH   1   4
HETATM    4  C4  UNL     1       4.960  35.618  78.457  1.00  0.00     0.092 C 
BRANCH   4   5
HETATM    5  N1  UNL     1       4.791  34.297  78.888  1.00  0.00    -0.323 N 
HETATM    6  C5  UNL     1       3.878  33.279  78.384  1.00  0.00     0.260 C 
HETATM    7  O1  UNL     1       2.728  33.571  78.005  1.00  0.00    -0.270 OA
HETATM    8  C6  UNL     1       4.546  31.946  78.417  1.00  0.00     0.205 C 
HETATM    9  C11 UNL     1       5.892  32.310  78.992  1.00  0.00     0.074 C 
HETATM   10  C12 UNL     1       5.531  33.533  79.874  1.00  0.00     0.090 C 
HETATM   11  C13 UNL     1       4.605  33.041  80.948  1.00  0.00     0.033 C 
BRANCH   8  12
HETATM   12  N2  UNL     1       3.825  30.962  79.158  1.00  0.00    -0.061 N 
ATOM     13  H23 UNL     1       2.844  30.948  78.879  1.00  0.00     0.275 HD
ATOM     14  H22 UNL     1       4.098  30.023  78.870  1.00  0.00     0.275 HD
ATOM     15  H21 UNL     1       3.910  31.067  80.169  1.00  0.00     0.275 HD
ENDBRANCH   8  12
BRANCH   8  16
HETATM   16  C7  UNL     1       4.735  31.531  76.969  1.00  0.00     0.052 C 
BRANCH  16  17
HETATM   17  C8  UNL     1       4.792  30.085  76.702  1.00  0.00    -0.020 C 
HETATM   18  C9  UNL     1       6.124  29.476  76.397  1.00  0.00     0.009 C 
HETATM   19  C10 UNL     1       3.940  29.835  75.443  1.00  0.00     0.009 C 
ENDBRANCH  16  17
ENDBRANCH   8  16
ENDBRANCH   4   5
ENDBRANCH   1   4
BRANCH   1  20
HETATM   20  N3  UNL     1       6.951  36.504  77.244  1.00  0.00    -0.395 N 
HETATM   21  C14 UNL     1       6.284  37.156  76.173  1.00  0.00     0.118 C 
HETATM   22  C15 UNL     1       7.227  37.866  75.229  1.00  0.00     0.020 C 
HETATM   23  C16 UNL     1       8.601  38.041  75.835  1.00  0.00     0.004 C 
HETATM   24  C17 UNL     1       9.191  36.733  76.273  1.00  0.00     0.030 C 
HETATM   25  C18 UNL     1       8.163  35.878  77.035  1.00  0.00     0.113 C 
BRANCH  25  26
HETATM   26  C19 UNL     1       8.219  34.548  76.377  1.00  0.00    -0.032 A 
HETATM   27  C20 UNL     1       7.241  34.030  75.554  1.00  0.00     0.054 A 
HETATM   28  C21 UNL     1       7.359  32.792  74.915  1.00  0.00     0.156 A 
HETATM   29  F1  UNL     1       6.346  32.333  74.113  1.00  0.00    -0.203 F 
HETATM   30  C22 UNL     1       8.466  32.028  75.082  1.00  0.00     0.169 A 
HETATM   31  F2  UNL     1       8.608  30.803  74.471  1.00  0.00    -0.202 F 
HETATM   32  C23 UNL     1       9.469  32.507  75.897  1.00  0.00     0.090 A 
HETATM   33  C25 UNL     1       9.347  33.720  76.519  1.00  0.00     0.028 A 
BRANCH  32  34
HETATM   34  C24 UNL     1      10.693  31.647  76.038  1.00  0.00     0.420 C 
HETATM   35  F3  UNL     1      10.410  30.791  77.079  1.00  0.00    -0.166 F 
HETATM   36  F4  UNL     1      11.077  31.052  74.880  1.00  0.00    -0.166 F 
HETATM   37  F5  UNL     1      11.696  32.501  76.532  1.00  0.00    -0.166 F 
ENDBRANCH  32  34
ENDBRANCH  25  26
ENDBRANCH   1  20
TORSDOF 9
ENDMDL
MODEL 5
REMARK VINA RESULT: -6.135929888      4.236      6.079
REMARK  9 active torsions:
REMARK  status: ('A' for Active; 'I' for Inactive)
REMARK    1  A    between atoms: C2_2  and  C3_3 
REMARK    2  A    between atoms: C3_3  and  C4_4 
REMARK    3  A    between atoms: C3_3  and  N3_20 
REMARK    4  A    between atoms: C4_4  and  N1_5 
REMARK    5  A    between atoms: C6_8  and  N2_9 
REMARK    6  A    between atoms: C6_8  and  C7_13 
REMARK    7  A    between atoms: C7_13  and  C8_14 
REMARK    8  A    between atoms: C18_25  and  C19_26 
REMARK    9  A    between atoms: C23_32  and  C24_33 
ROOT
HETATM    1  C3  UNL     1       7.054  35.218  79.438  1.00  0.00     0.118 C 
ENDROOT
BRANCH   1   2
HETATM    2  C2  UNL     1       7.024  35.938  80.819  1.00  0.00     0.026 C 
HETATM    3  C1  UNL     1       5.832  35.387  81.626  1.00  0.00     0.007 C 
ENDBRANCH   1   2
BRANCH   1   4
HETATM    4  C4  UNL     1       5.960  34.249  79.507  1.00  0.00     0.092 C 
BRANCH   4   5
HETATM    5  N1  UNL     1       5.848  33.077  78.750  1.00  0.00    -0.323 N 
HETATM    6  C5  UNL     1       5.479  32.923  77.348  1.00  0.00     0.260 C 
HETATM    7  O1  UNL     1       4.612  33.648  76.823  1.00  0.00    -0.270 OA
HETATM    8  C6  UNL     1       6.279  31.823  76.737  1.00  0.00     0.205 C 
HETATM    9  C11 UNL     1       7.104  31.374  77.917  1.00  0.00     0.074 C 
HETATM   10  C12 UNL     1       6.158  31.704  79.101  1.00  0.00     0.090 C 
HETATM   11  C13 UNL     1       4.940  30.842  78.940  1.00  0.00     0.033 C 
BRANCH   8  12
HETATM   12  N2  UNL     1       5.483  30.800  76.140  1.00  0.00    -0.061 N 
ATOM     13  H23 UNL     1       5.311  30.044  76.803  1.00  0.00     0.275 HD
ATOM     14  H22 UNL     1       4.526  31.124  75.999  1.00  0.00     0.275 HD
ATOM     15  H21 UNL     1       5.871  30.434  75.271  1.00  0.00     0.275 HD
ENDBRANCH   8  12
BRANCH   8  16
HETATM   16  C7  UNL     1       7.200  32.480  75.725  1.00  0.00     0.052 C 
BRANCH  16  17
HETATM   17  C8  UNL     1       8.645  32.358  75.976  1.00  0.00    -0.020 C 
HETATM   18  C9  UNL     1       9.456  33.614  76.046  1.00  0.00     0.009 C 
HETATM   19  C10 UNL     1       9.233  31.568  74.792  1.00  0.00     0.009 C 
ENDBRANCH  16  17
ENDBRANCH   8  16
ENDBRANCH   4   5
ENDBRANCH   1   4
BRANCH   1  20
HETATM   20  N3  UNL     1       7.083  36.203  78.438  1.00  0.00    -0.395 N 
HETATM   21  C14 UNL     1       8.295  36.933  78.316  1.00  0.00     0.118 C 
HETATM   22  C15 UNL     1       8.542  37.447  76.916  1.00  0.00     0.020 C 
HETATM   23  C16 UNL     1       7.657  36.758  75.902  1.00  0.00     0.004 C 
HETATM   24  C17 UNL     1       6.203  36.880  76.252  1.00  0.00     0.030 C 
HETATM   25  C18 UNL     1       5.957  36.596  77.744  1.00  0.00     0.113 C 
BRANCH  25  26
HETATM   26  C19 UNL     1       5.146  37.747  78.217  1.00  0.00    -0.032 A 
HETATM   27  C20 UNL     1       5.286  39.048  77.778  1.00  0.00     0.054 A 
HETATM   28  C21 UNL     1       4.465  40.091  78.214  1.00  0.00     0.156 A 
HETATM   29  F1  UNL     1       4.661  41.363  77.741  1.00  0.00    -0.203 F 
HETATM   30  C22 UNL     1       3.473  39.866  79.109  1.00  0.00     0.169 A 
HETATM   31  F2  UNL     1       2.653  40.874  79.562  1.00  0.00    -0.202 F 
HETATM   32  C23 UNL     1       3.297  38.581  79.574  1.00  0.00     0.090 A 
HETATM   33  C25 UNL     1       4.104  37.563  79.143  1.00  0.00     0.028 A 
BRANCH  32  34
HETATM   34  C24 UNL     1       2.171  38.362  80.545  1.00  0.00     0.420 C 
HETATM   35  F3  UNL     1       1.953  37.003  80.537  1.00  0.00    -0.166 F 
HETATM   36  F4  UNL     1       2.390  38.912  81.766  1.00  0.00    -0.166 F 
HETATM   37  F5  UNL     1       1.033  38.916  79.930  1.00  0.00    -0.166 F 
ENDBRANCH  32  34
ENDBRANCH  25  26
ENDBRANCH   1  20
TORSDOF 9
ENDMDL
