MODEL 1
REMARK VINA RESULT: -11.090878488      0.000      0.000
REMARK  3 active torsions:
REMARK  status: ('A' for Active; 'I' for Inactive)
REMARK       I    between atoms: C2_2  and  N1_4 
REMARK    1  A    between atoms: N1_4  and  C3_6 
REMARK    2  A    between atoms: C4_9  and  C5_10 
REMARK    3  A    between atoms: C5_10  and  C6_11 
ROOT
HETATM    1  C3  UNL     1      -0.998   9.424   4.312  1.00  0.00     0.138 A 
HETATM    2  N2  UNL     1      -1.993  10.220   3.879  1.00  0.00    -0.330 N 
ATOM      3  H2  UNL     1      -2.610  10.647   4.569  1.00  0.00     0.168 HD
HETATM    4  C4  UNL     1      -2.210  10.478   2.576  1.00  0.00     0.087 A 
HETATM    5  N3  UNL     1      -1.382   9.902   1.686  1.00  0.00    -0.343 N 
ATOM      6  H3  UNL     1      -1.521  10.079   0.691  1.00  0.00     0.167 HD
HETATM    7  C16 UNL     1      -0.371   9.097   2.076  1.00  0.00     0.075 A 
HETATM    8  C17 UNL     1      -0.141   8.827   3.407  1.00  0.00     0.104 A 
HETATM    9  N4  UNL     1       0.863   8.027   3.788  1.00  0.00    -0.360 N 
ATOM     10  H4  UNL     1       0.994   7.857   4.785  1.00  0.00     0.165 HD
HETATM   11  C18 UNL     1       1.720   7.428   2.911  1.00  0.00     0.101 A 
HETATM   12  C19 UNL     1       1.530   7.667   1.571  1.00  0.00     0.003 A 
HETATM   13  C20 UNL     1       2.373   7.083   0.649  1.00  0.00    -0.013 A 
HETATM   14  C21 UNL     1       3.419   6.253   0.990  1.00  0.00     0.013 A 
HETATM   15  C22 UNL     1       4.236   5.690   0.033  1.00  0.00     0.001 A 
HETATM   16  C23 UNL     1       4.004   5.962  -1.301  1.00  0.00     0.001 A 
HETATM   17  C24 UNL     1       2.952   6.796  -1.655  1.00  0.00     0.012 A 
HETATM   18  C25 UNL     1       2.130   7.363  -0.691  1.00  0.00    -0.025 A 
HETATM   19  C26 UNL     1       1.100   8.184  -1.095  1.00  0.00     0.013 A 
HETATM   20  C27 UNL     1       0.265   8.762  -0.160  1.00  0.00     0.015 A 
HETATM   21  C28 UNL     1       0.484   8.501   1.166  1.00  0.00     0.005 A 
ENDROOT
BRANCH   4  22
HETATM   22  C5  UNL     1      -3.326  11.367   2.145  1.00  0.00     0.115 C 
BRANCH  22  23
HETATM   23  C6  UNL     1      -3.107  12.775   2.518  1.00  0.00    -0.050 A 
HETATM   24  C7  UNL     1      -1.821  13.261   2.577  1.00  0.00     0.008 A 
HETATM   25  C8  UNL     1      -1.558  14.575   2.921  1.00  0.00     0.013 A 
HETATM   26  C9  UNL     1      -2.591  15.431   3.215  1.00  0.00    -0.026 A 
HETATM   27  C10 UNL     1      -2.367  16.761   3.567  1.00  0.00     0.012 A 
HETATM   28  C14 UNL     1      -3.887  14.971   3.164  1.00  0.00    -0.025 A 
HETATM   29  C11 UNL     1      -3.398  17.629   3.864  1.00  0.00     0.001 A 
HETATM   30  C12 UNL     1      -4.688  17.157   3.809  1.00  0.00     0.001 A 
HETATM   31  C13 UNL     1      -4.915  15.854   3.466  1.00  0.00     0.012 A 
HETATM   32  C15 UNL     1      -4.125  13.654   2.818  1.00  0.00     0.019 A 
ENDBRANCH  22  23
ENDBRANCH   4  22
BRANCH   1  33
HETATM   33  N1  UNL     1      -0.804   9.187   5.568  1.00  0.00    -0.311 N 
HETATM   34  C2  UNL     1      -0.542  10.209   6.513  1.00  0.00     0.219 C 
HETATM   35  C1  UNL     1       0.840  10.738   6.614  1.00  0.00     0.117 C 
HETATM   36  O1  UNL     1      -1.501  10.615   7.218  1.00  0.00    -0.274 OA
ATOM     37  H1  UNL     1      -0.840   8.221   5.893  1.00  0.00     0.170 HD
ENDBRANCH   1  33
TORSDOF 3
ENDMDL
MODEL 2
REMARK VINA RESULT: -10.896690500      0.672      1.408
REMARK  3 active torsions:
REMARK  status: ('A' for Active; 'I' for Inactive)
REMARK       I    between atoms: C2_2  and  N1_4 
REMARK    1  A    between atoms: N1_4  and  C3_6 
REMARK    2  A    between atoms: C4_9  and  C5_10 
REMARK    3  A    between atoms: C5_10  and  C6_11 
ROOT
HETATM    1  C3  UNL     1      -0.557   9.320   4.446  1.00  0.00     0.138 A 
HETATM    2  N2  UNL     1      -1.693   9.962   4.115  1.00  0.00    -0.330 N 
ATOM      3  H2  UNL     1      -2.281  10.328   4.865  1.00  0.00     0.168 HD
HETATM    4  C4  UNL     1      -2.089  10.143   2.843  1.00  0.00     0.087 A 
HETATM    5  N3  UNL     1      -1.296   9.651   1.873  1.00  0.00    -0.343 N 
ATOM      6  H3  UNL     1      -1.569   9.773   0.898  1.00  0.00     0.167 HD
HETATM    7  C16 UNL     1      -0.148   9.001   2.158  1.00  0.00     0.075 A 
HETATM    8  C17 UNL     1       0.266   8.810   3.458  1.00  0.00     0.104 A 
HETATM    9  N4  UNL     1       1.405   8.165   3.735  1.00  0.00    -0.360 N 
ATOM     10  H4  UNL     1       1.670   8.049   4.713  1.00  0.00     0.165 HD
HETATM   11  C18 UNL     1       2.230   7.654   2.775  1.00  0.00     0.101 A 
HETATM   12  C19 UNL     1       1.859   7.818   1.462  1.00  0.00     0.003 A 
HETATM   13  C20 UNL     1       2.664   7.319   0.460  1.00  0.00    -0.013 A 
HETATM   14  C21 UNL     1       3.845   6.647   0.692  1.00  0.00     0.013 A 
HETATM   15  C22 UNL     1       4.617   6.164  -0.342  1.00  0.00     0.001 A 
HETATM   16  C23 UNL     1       4.201   6.356  -1.645  1.00  0.00     0.001 A 
HETATM   17  C24 UNL     1       3.012   7.031  -1.890  1.00  0.00     0.012 A 
HETATM   18  C25 UNL     1       2.235   7.517  -0.848  1.00  0.00    -0.025 A 
HETATM   19  C26 UNL     1       1.065   8.180  -1.145  1.00  0.00     0.013 A 
HETATM   20  C27 UNL     1       0.271   8.675  -0.130  1.00  0.00     0.015 A 
HETATM   21  C28 UNL     1       0.671   8.492   1.166  1.00  0.00     0.005 A 
ENDROOT
BRANCH   4  22
HETATM   22  C5  UNL     1      -3.356  10.861   2.527  1.00  0.00     0.115 C 
BRANCH  22  23
HETATM   23  C6  UNL     1      -3.282  12.302   2.824  1.00  0.00    -0.050 A 
HETATM   24  C7  UNL     1      -4.443  12.993   3.086  1.00  0.00     0.008 A 
HETATM   25  C8  UNL     1      -4.431  14.347   3.371  1.00  0.00     0.013 A 
HETATM   26  C9  UNL     1      -3.244  15.036   3.396  1.00  0.00    -0.026 A 
HETATM   27  C10 UNL     1      -3.191  16.400   3.678  1.00  0.00     0.012 A 
HETATM   28  C14 UNL     1      -2.069  14.370   3.138  1.00  0.00    -0.025 A 
HETATM   29  C11 UNL     1      -2.003  17.103   3.707  1.00  0.00     0.001 A 
HETATM   30  C12 UNL     1      -0.836  16.424   3.446  1.00  0.00     0.001 A 
HETATM   31  C13 UNL     1      -0.880  15.088   3.169  1.00  0.00     0.012 A 
HETATM   32  C15 UNL     1      -2.104  13.017   2.856  1.00  0.00     0.019 A 
ENDBRANCH  22  23
ENDBRANCH   4  22
BRANCH   1  33
HETATM   33  N1  UNL     1      -0.191   9.155   5.674  1.00  0.00    -0.311 N 
HETATM   34  C2  UNL     1      -0.008  10.233   6.574  1.00  0.00     0.219 C 
HETATM   35  C1  UNL     1       1.266  10.990   6.517  1.00  0.00     0.117 C 
HETATM   36  O1  UNL     1      -0.941  10.492   7.377  1.00  0.00    -0.274 OA
ATOM     37  H1  UNL     1      -0.027   8.207   6.010  1.00  0.00     0.170 HD
ENDBRANCH   1  33
TORSDOF 3
ENDMDL
MODEL 3
REMARK VINA RESULT: -10.532072195      3.676      4.758
REMARK  3 active torsions:
REMARK  status: ('A' for Active; 'I' for Inactive)
REMARK       I    between atoms: C2_2  and  N1_4 
REMARK    1  A    between atoms: N1_4  and  C3_6 
REMARK    2  A    between atoms: C4_9  and  C5_10 
REMARK    3  A    between atoms: C5_10  and  C6_11 
ROOT
HETATM    1  C3  UNL     1      -2.734   7.533   3.379  1.00  0.00     0.138 A 
HETATM    2  N2  UNL     1      -2.652   8.423   4.386  1.00  0.00    -0.330 N 
ATOM      3  H2  UNL     1      -2.699   8.079   5.345  1.00  0.00     0.168 HD
HETATM    4  C4  UNL     1      -2.512   9.746   4.185  1.00  0.00     0.087 A 
HETATM    5  N3  UNL     1      -2.453  10.175   2.911  1.00  0.00    -0.343 N 
ATOM      6  H3  UNL     1      -2.346  11.172   2.727  1.00  0.00     0.167 HD
HETATM    7  C16 UNL     1      -2.531   9.318   1.871  1.00  0.00     0.075 A 
HETATM    8  C17 UNL     1      -2.674   7.962   2.066  1.00  0.00     0.104 A 
HETATM    9  N4  UNL     1      -2.751   7.118   1.030  1.00  0.00    -0.360 N 
ATOM     10  H4  UNL     1      -2.856   6.122   1.225  1.00  0.00     0.165 HD
HETATM   11  C18 UNL     1      -2.695   7.520  -0.273  1.00  0.00     0.101 A 
HETATM   12  C19 UNL     1      -2.553   8.865  -0.518  1.00  0.00     0.003 A 
HETATM   13  C20 UNL     1      -2.491   9.316  -1.820  1.00  0.00    -0.013 A 
HETATM   14  C21 UNL     1      -2.565   8.488  -2.919  1.00  0.00     0.013 A 
HETATM   15  C22 UNL     1      -2.499   8.984  -4.203  1.00  0.00     0.001 A 
HETATM   16  C23 UNL     1      -2.355  10.344  -4.398  1.00  0.00     0.001 A 
HETATM   17  C24 UNL     1      -2.280  11.187  -3.296  1.00  0.00     0.012 A 
HETATM   18  C25 UNL     1      -2.346  10.687  -2.004  1.00  0.00    -0.025 A 
HETATM   19  C26 UNL     1      -2.266  11.566  -0.946  1.00  0.00     0.013 A 
HETATM   20  C27 UNL     1      -2.329  11.098   0.351  1.00  0.00     0.015 A 
HETATM   21  C28 UNL     1      -2.471   9.753   0.559  1.00  0.00     0.005 A 
ENDROOT
BRANCH   4  22
HETATM   22  C5  UNL     1      -2.426  10.692   5.334  1.00  0.00     0.115 C 
BRANCH  22  23
HETATM   23  C6  UNL     1      -2.507  12.101   4.916  1.00  0.00    -0.050 A 
HETATM   24  C7  UNL     1      -3.740  12.654   4.656  1.00  0.00     0.008 A 
HETATM   25  C8  UNL     1      -3.875  13.973   4.261  1.00  0.00     0.013 A 
HETATM   26  C9  UNL     1      -2.764  14.767   4.118  1.00  0.00    -0.026 A 
HETATM   27  C10 UNL     1      -2.858  16.100   3.721  1.00  0.00     0.012 A 
HETATM   28  C14 UNL     1      -1.519  14.240   4.371  1.00  0.00    -0.025 A 
HETATM   29  C11 UNL     1      -1.748  16.907   3.575  1.00  0.00     0.001 A 
HETATM   30  C12 UNL     1      -0.509  16.367   3.830  1.00  0.00     0.001 A 
HETATM   31  C13 UNL     1      -0.409  15.062   4.219  1.00  0.00     0.012 A 
HETATM   32  C15 UNL     1      -1.408  12.920   4.765  1.00  0.00     0.019 A 
ENDBRANCH  22  23
ENDBRANCH   4  22
BRANCH   1  33
HETATM   33  N1  UNL     1      -2.868   6.266   3.590  1.00  0.00    -0.311 N 
HETATM   34  C2  UNL     1      -4.128   5.621   3.632  1.00  0.00     0.219 C 
HETATM   35  C1  UNL     1      -4.918   5.699   4.884  1.00  0.00     0.117 C 
HETATM   36  O1  UNL     1      -4.511   5.014   2.599  1.00  0.00    -0.274 OA
ATOM     37  H1  UNL     1      -2.029   5.704   3.733  1.00  0.00     0.170 HD
ENDBRANCH   1  33
TORSDOF 3
ENDMDL
MODEL 4
REMARK VINA RESULT: -10.502284607      3.627      4.504
REMARK  3 active torsions:
REMARK  status: ('A' for Active; 'I' for Inactive)
REMARK       I    between atoms: C2_2  and  N1_4 
REMARK    1  A    between atoms: N1_4  and  C3_6 
REMARK    2  A    between atoms: C4_9  and  C5_10 
REMARK    3  A    between atoms: C5_10  and  C6_11 
ROOT
HETATM    1  C3  UNL     1      -2.908   7.671   3.456  1.00  0.00     0.138 A 
HETATM    2  N2  UNL     1      -3.040   8.573   4.446  1.00  0.00    -0.330 N 
ATOM      3  H2  UNL     1      -3.159   8.234   5.401  1.00  0.00     0.168 HD
HETATM    4  C4  UNL     1      -3.024   9.902   4.234  1.00  0.00     0.087 A 
HETATM    5  N3  UNL     1      -2.866  10.323   2.966  1.00  0.00    -0.343 N 
ATOM      6  H3  UNL     1      -2.849  11.325   2.774  1.00  0.00     0.167 HD
HETATM    7  C16 UNL     1      -2.730   9.454   1.943  1.00  0.00     0.075 A 
HETATM    8  C17 UNL     1      -2.745   8.093   2.149  1.00  0.00     0.104 A 
HETATM    9  N4  UNL     1      -2.609   7.235   1.130  1.00  0.00    -0.360 N 
ATOM     10  H4  UNL     1      -2.626   6.236   1.333  1.00  0.00     0.165 HD
HETATM   11  C18 UNL     1      -2.448   7.630  -0.167  1.00  0.00     0.101 A 
HETATM   12  C19 UNL     1      -2.427   8.980  -0.423  1.00  0.00     0.003 A 
HETATM   13  C20 UNL     1      -2.265   9.423  -1.719  1.00  0.00    -0.013 A 
HETATM   14  C21 UNL     1      -2.121   8.583  -2.801  1.00  0.00     0.013 A 
HETATM   15  C22 UNL     1      -1.963   9.072  -4.081  1.00  0.00     0.001 A 
HETATM   16  C23 UNL     1      -1.948  10.438  -4.287  1.00  0.00     0.001 A 
HETATM   17  C24 UNL     1      -2.092  11.294  -3.202  1.00  0.00     0.012 A 
HETATM   18  C25 UNL     1      -2.252  10.801  -1.915  1.00  0.00    -0.025 A 
HETATM   19  C26 UNL     1      -2.390  11.692  -0.874  1.00  0.00     0.013 A 
HETATM   20  C27 UNL     1      -2.550  11.232   0.418  1.00  0.00     0.015 A 
HETATM   21  C28 UNL     1      -2.568   9.881   0.636  1.00  0.00     0.005 A 
ENDROOT
BRANCH   4  22
HETATM   22  C5  UNL     1      -3.175  10.862   5.364  1.00  0.00     0.115 C 
BRANCH  22  23
HETATM   23  C6  UNL     1      -2.779  12.233   5.002  1.00  0.00    -0.050 A 
HETATM   24  C7  UNL     1      -1.458  12.600   5.110  1.00  0.00     0.008 A 
HETATM   25  C8  UNL     1      -1.030  13.874   4.783  1.00  0.00     0.013 A 
HETATM   26  C9  UNL     1      -1.931  14.811   4.338  1.00  0.00    -0.026 A 
HETATM   27  C10 UNL     1      -1.539  16.105   4.000  1.00  0.00     0.012 A 
HETATM   28  C14 UNL     1      -3.258  14.471   4.221  1.00  0.00    -0.025 A 
HETATM   29  C11 UNL     1      -2.436  17.054   3.551  1.00  0.00     0.001 A 
HETATM   30  C12 UNL     1      -3.760  16.701   3.438  1.00  0.00     0.001 A 
HETATM   31  C13 UNL     1      -4.151  15.434   3.769  1.00  0.00     0.012 A 
HETATM   32  C15 UNL     1      -3.662  13.192   4.553  1.00  0.00     0.019 A 
ENDBRANCH  22  23
ENDBRANCH   4  22
BRANCH   1  33
HETATM   33  N1  UNL     1      -2.925   6.398   3.678  1.00  0.00    -0.311 N 
HETATM   34  C2  UNL     1      -4.115   5.630   3.662  1.00  0.00     0.219 C 
HETATM   35  C1  UNL     1      -4.976   5.640   4.869  1.00  0.00     0.117 C 
HETATM   36  O1  UNL     1      -4.379   4.979   2.619  1.00  0.00    -0.274 OA
ATOM     37  H1  UNL     1      -2.043   5.926   3.873  1.00  0.00     0.170 HD
ENDBRANCH   1  33
TORSDOF 3
ENDMDL
MODEL 5
REMARK VINA RESULT: -10.481420761      1.801      8.860
REMARK  3 active torsions:
REMARK  status: ('A' for Active; 'I' for Inactive)
REMARK       I    between atoms: C2_2  and  N1_4 
REMARK    1  A    between atoms: N1_4  and  C3_6 
REMARK    2  A    between atoms: C4_9  and  C5_10 
REMARK    3  A    between atoms: C5_10  and  C6_11 
ROOT
HETATM    1  C3  UNL     1      -2.599   9.051   2.853  1.00  0.00     0.138 A 
HETATM    2  N2  UNL     1      -1.388   8.470   2.947  1.00  0.00    -0.330 N 
ATOM      3  H2  UNL     1      -1.322   7.459   2.824  1.00  0.00     0.168 HD
HETATM    4  C4  UNL     1      -0.261   9.161   3.195  1.00  0.00     0.087 A 
HETATM    5  N3  UNL     1      -0.375  10.492   3.353  1.00  0.00    -0.343 N 
ATOM      6  H3  UNL     1       0.462  11.044   3.542  1.00  0.00     0.167 HD
HETATM    7  C16 UNL     1      -1.569  11.116   3.267  1.00  0.00     0.075 A 
HETATM    8  C17 UNL     1      -2.728  10.418   3.013  1.00  0.00     0.104 A 
HETATM    9  N4  UNL     1      -3.909  11.042   2.929  1.00  0.00    -0.360 N 
ATOM     10  H4  UNL     1      -4.740  10.482   2.739  1.00  0.00     0.165 HD
HETATM   11  C18 UNL     1      -4.058  12.390   3.084  1.00  0.00     0.101 A 
HETATM   12  C19 UNL     1      -2.929  13.131   3.340  1.00  0.00     0.003 A 
HETATM   13  C20 UNL     1      -3.034  14.496   3.503  1.00  0.00    -0.013 A 
HETATM   14  C21 UNL     1      -4.225  15.185   3.426  1.00  0.00     0.013 A 
HETATM   15  C22 UNL     1      -4.282  16.552   3.597  1.00  0.00     0.001 A 
HETATM   16  C23 UNL     1      -3.118  17.252   3.850  1.00  0.00     0.001 A 
HETATM   17  C24 UNL     1      -1.912  16.566   3.930  1.00  0.00     0.012 A 
HETATM   18  C25 UNL     1      -1.856  15.191   3.759  1.00  0.00    -0.025 A 
HETATM   19  C26 UNL     1      -0.635  14.559   3.847  1.00  0.00     0.013 A 
HETATM   20  C27 UNL     1      -0.548  13.191   3.681  1.00  0.00     0.015 A 
HETATM   21  C28 UNL     1      -1.692  12.485   3.428  1.00  0.00     0.005 A 
ENDROOT
BRANCH   4  22
HETATM   22  C5  UNL     1       1.057   8.472   3.290  1.00  0.00     0.115 C 
BRANCH  22  23
HETATM   23  C6  UNL     1       1.614   8.126   1.972  1.00  0.00    -0.050 A 
HETATM   24  C7  UNL     1       0.876   8.393   0.842  1.00  0.00     0.008 A 
HETATM   25  C8  UNL     1       1.350   8.089  -0.422  1.00  0.00     0.013 A 
HETATM   26  C9  UNL     1       2.584   7.506  -0.574  1.00  0.00    -0.026 A 
HETATM   27  C10 UNL     1       3.097   7.184  -1.829  1.00  0.00     0.012 A 
HETATM   28  C14 UNL     1       3.343   7.228   0.540  1.00  0.00    -0.025 A 
HETATM   29  C11 UNL     1       4.336   6.599  -1.993  1.00  0.00     0.001 A 
HETATM   30  C12 UNL     1       5.084   6.326  -0.872  1.00  0.00     0.001 A 
HETATM   31  C13 UNL     1       4.588   6.639   0.362  1.00  0.00     0.012 A 
HETATM   32  C15 UNL     1       2.849   7.541   1.792  1.00  0.00     0.019 A 
ENDBRANCH  22  23
ENDBRANCH   4  22
BRANCH   1  33
HETATM   33  N1  UNL     1      -3.671   8.371   2.614  1.00  0.00    -0.311 N 
HETATM   34  C2  UNL     1      -4.390   7.686   3.623  1.00  0.00     0.219 C 
HETATM   35  C1  UNL     1      -3.899   6.357   4.060  1.00  0.00     0.117 C 
HETATM   36  O1  UNL     1      -5.412   8.245   4.098  1.00  0.00    -0.274 OA
ATOM     37  H1  UNL     1      -4.016   8.326   1.655  1.00  0.00     0.170 HD
ENDBRANCH   1  33
TORSDOF 3
ENDMDL
