MODEL 1
REMARK VINA RESULT: -10.037284604      0.000      0.000
REMARK  2 active torsions:
REMARK  status: ('A' for Active; 'I' for Inactive)
REMARK    1  A    between atoms: C7_9  and  C8_10 
REMARK       I    between atoms: C8_10  and  N2_12 
REMARK    2  A    between atoms: N2_12  and  C9_14 
ROOT
HETATM    1  C1  UNL     1      -3.524   9.847  -5.906  1.00  0.00     0.050 C 
HETATM    2  C2  UNL     1      -3.714   8.997  -4.737  1.00  0.00    -0.033 A 
HETATM    3  C3  UNL     1      -4.246   7.716  -4.931  1.00  0.00     0.052 A 
HETATM    4  C4  UNL     1      -4.419   6.926  -3.818  1.00  0.00     0.059 A 
HETATM    5  N1  UNL     1      -4.093   7.353  -2.581  1.00  0.00    -0.354 N 
ATOM      6  H1  UNL     1      -4.237   6.734  -1.783  1.00  0.00     0.166 HD
HETATM    7  C5  UNL     1      -3.582   8.581  -2.384  1.00  0.00     0.044 A 
HETATM    8  C6  UNL     1      -3.252   9.004  -1.094  1.00  0.00     0.047 A 
HETATM    9  C7  UNL     1      -2.731  10.239  -0.836  1.00  0.00     0.034 A 
HETATM   10  C19 UNL     1      -2.540  11.067  -1.916  1.00  0.00     0.018 A 
HETATM   11  C20 UNL     1      -2.854  10.686  -3.216  1.00  0.00     0.015 A 
HETATM   12  C21 UNL     1      -3.380   9.433  -3.451  1.00  0.00    -0.002 A 
HETATM   13  C22 UNL     1      -4.977   5.576  -4.012  1.00  0.00     0.006 A 
HETATM   14  C23 UNL     1      -5.158   4.764  -2.900  1.00  0.00     0.014 A 
HETATM   15  C24 UNL     1      -5.680   3.484  -3.012  1.00  0.00     0.001 A 
HETATM   16  C25 UNL     1      -6.038   2.979  -4.260  1.00  0.00     0.001 A 
HETATM   17  C26 UNL     1      -5.860   3.780  -5.358  1.00  0.00     0.016 A 
HETATM   18  C27 UNL     1      -5.336   5.061  -5.236  1.00  0.00     0.031 A 
HETATM   19  C28 UNL     1      -5.167   5.873  -6.433  1.00  0.00     0.233 A 
HETATM   20  O2  UNL     1      -5.499   5.386  -7.537  1.00  0.00    -0.283 OA
HETATM   21  C29 UNL     1      -4.614   7.209  -6.250  1.00  0.00     0.235 A 
HETATM   22  O3  UNL     1      -4.469   7.903  -7.270  1.00  0.00    -0.283 OA
ENDROOT
BRANCH   9  23
HETATM   23  C8  UNL     1      -2.377  10.696   0.532  1.00  0.00     0.256 C 
HETATM   24  O1  UNL     1      -2.005  11.896   0.656  1.00  0.00    -0.267 OA
HETATM   25  N2  UNL     1      -2.446   9.857   1.637  1.00  0.00    -0.323 N 
ATOM     26  H2  UNL     1      -2.762   8.903   1.458  1.00  0.00     0.169 HD
BRANCH  25  27
HETATM   27  C9  UNL     1      -2.135  10.165   2.970  1.00  0.00     0.035 A 
HETATM   28  C10 UNL     1      -3.036  10.583   3.920  1.00  0.00     0.030 A 
HETATM   29  C11 UNL     1      -2.644  10.853   5.238  1.00  0.00     0.014 A 
HETATM   30  C12 UNL     1      -1.339  10.710   5.631  1.00  0.00    -0.026 A 
HETATM   31  C13 UNL     1      -0.955  10.977   6.937  1.00  0.00     0.012 A 
HETATM   32  C17 UNL     1      -0.413  10.294   4.706  1.00  0.00    -0.024 A 
HETATM   33  C14 UNL     1       0.358  10.830   7.319  1.00  0.00     0.001 A 
HETATM   34  C15 UNL     1       1.277  10.411   6.375  1.00  0.00     0.001 A 
HETATM   35  C16 UNL     1       0.930  10.141   5.086  1.00  0.00     0.012 A 
HETATM   36  C18 UNL     1      -0.820  10.039   3.434  1.00  0.00     0.042 A 
ENDBRANCH  25  27
ENDBRANCH   9  23
TORSDOF 2
ENDMDL
MODEL 2
REMARK VINA RESULT: -10.009733279      1.305      1.634
REMARK  2 active torsions:
REMARK  status: ('A' for Active; 'I' for Inactive)
REMARK    1  A    between atoms: C7_9  and  C8_10 
REMARK       I    between atoms: C8_10  and  N2_12 
REMARK    2  A    between atoms: N2_12  and  C9_14 
ROOT
HETATM    1  C1  UNL     1      -3.527   8.985  -6.213  1.00  0.00     0.050 C 
HETATM    2  C2  UNL     1      -3.800   8.316  -4.947  1.00  0.00    -0.033 A 
HETATM    3  C3  UNL     1      -4.358   7.032  -4.987  1.00  0.00     0.052 A 
HETATM    4  C4  UNL     1      -4.610   6.413  -3.784  1.00  0.00     0.059 A 
HETATM    5  N1  UNL     1      -4.334   7.005  -2.604  1.00  0.00    -0.354 N 
ATOM      6  H1  UNL     1      -4.536   6.510  -1.735  1.00  0.00     0.166 HD
HETATM    7  C5  UNL     1      -3.798   8.238  -2.555  1.00  0.00     0.044 A 
HETATM    8  C6  UNL     1      -3.521   8.834  -1.323  1.00  0.00     0.047 A 
HETATM    9  C7  UNL     1      -2.978  10.082  -1.215  1.00  0.00     0.034 A 
HETATM   10  C19 UNL     1      -2.709  10.742  -2.389  1.00  0.00     0.018 A 
HETATM   11  C20 UNL     1      -2.968  10.186  -3.637  1.00  0.00     0.015 A 
HETATM   12  C21 UNL     1      -3.518   8.923  -3.721  1.00  0.00    -0.002 A 
HETATM   13  C22 UNL     1      -5.196   5.062  -3.814  1.00  0.00     0.006 A 
HETATM   14  C23 UNL     1      -5.457   4.421  -2.610  1.00  0.00     0.014 A 
HETATM   15  C24 UNL     1      -6.009   3.150  -2.567  1.00  0.00     0.001 A 
HETATM   16  C25 UNL     1      -6.318   2.479  -3.748  1.00  0.00     0.001 A 
HETATM   17  C26 UNL     1      -6.062   3.110  -4.938  1.00  0.00     0.016 A 
HETATM   18  C27 UNL     1      -5.508   4.385  -4.971  1.00  0.00     0.031 A 
HETATM   19  C28 UNL     1      -5.256   5.013  -6.260  1.00  0.00     0.233 A 
HETATM   20  O2  UNL     1      -5.545   4.380  -7.300  1.00  0.00    -0.283 OA
HETATM   21  C29 UNL     1      -4.674   6.349  -6.238  1.00  0.00     0.235 A 
HETATM   22  O3  UNL     1      -4.458   6.887  -7.337  1.00  0.00    -0.283 OA
ENDROOT
BRANCH   9  23
HETATM   23  C8  UNL     1      -2.680  10.721   0.092  1.00  0.00     0.256 C 
HETATM   24  O1  UNL     1      -1.514  11.178   0.251  1.00  0.00    -0.267 OA
HETATM   25  N2  UNL     1      -3.627  10.824   1.103  1.00  0.00    -0.323 N 
ATOM     26  H2  UNL     1      -4.548  10.438   0.897  1.00  0.00     0.169 HD
BRANCH  25  27
HETATM   27  C9  UNL     1      -3.467  11.397   2.374  1.00  0.00     0.035 A 
HETATM   28  C10 UNL     1      -3.765  12.697   2.703  1.00  0.00     0.030 A 
HETATM   29  C11 UNL     1      -3.592  13.186   4.005  1.00  0.00     0.014 A 
HETATM   30  C12 UNL     1      -3.117  12.379   5.005  1.00  0.00    -0.026 A 
HETATM   31  C13 UNL     1      -2.949  12.866   6.293  1.00  0.00     0.012 A 
HETATM   32  C17 UNL     1      -2.809  11.074   4.709  1.00  0.00    -0.024 A 
HETATM   33  C14 UNL     1      -2.470  12.046   7.288  1.00  0.00     0.001 A 
HETATM   34  C15 UNL     1      -2.164  10.735   6.975  1.00  0.00     0.001 A 
HETATM   35  C16 UNL     1      -2.320  10.229   5.719  1.00  0.00     0.012 A 
HETATM   36  C18 UNL     1      -2.985  10.626   3.439  1.00  0.00     0.042 A 
ENDBRANCH  25  27
ENDBRANCH   9  23
TORSDOF 2
ENDMDL
MODEL 3
REMARK VINA RESULT: -9.835553843      2.062      4.216
REMARK  2 active torsions:
REMARK  status: ('A' for Active; 'I' for Inactive)
REMARK    1  A    between atoms: C7_9  and  C8_10 
REMARK       I    between atoms: C8_10  and  N2_12 
REMARK    2  A    between atoms: N2_12  and  C9_14 
ROOT
HETATM    1  C1  UNL     1      -5.214   8.061  -4.763  1.00  0.00     0.050 C 
HETATM    2  C2  UNL     1      -4.016   8.857  -4.523  1.00  0.00    -0.033 A 
HETATM    3  C3  UNL     1      -3.205   9.175  -5.619  1.00  0.00     0.052 A 
HETATM    4  C4  UNL     1      -2.078   9.928  -5.376  1.00  0.00     0.059 A 
HETATM    5  N1  UNL     1      -1.755  10.351  -4.138  1.00  0.00    -0.354 N 
ATOM      6  H1  UNL     1      -0.910  10.908  -4.002  1.00  0.00     0.166 HD
HETATM    7  C5  UNL     1      -2.527  10.051  -3.078  1.00  0.00     0.044 A 
HETATM    8  C6  UNL     1      -2.173  10.498  -1.803  1.00  0.00     0.047 A 
HETATM    9  C7  UNL     1      -2.919  10.222  -0.694  1.00  0.00     0.034 A 
HETATM   10  C19 UNL     1      -4.055   9.473  -0.884  1.00  0.00     0.018 A 
HETATM   11  C20 UNL     1      -4.444   9.007  -2.136  1.00  0.00     0.015 A 
HETATM   12  C21 UNL     1      -3.674   9.299  -3.242  1.00  0.00    -0.002 A 
HETATM   13  C22 UNL     1      -1.218  10.269  -6.523  1.00  0.00     0.006 A 
HETATM   14  C23 UNL     1      -0.077  11.028  -6.297  1.00  0.00     0.014 A 
HETATM   15  C24 UNL     1       0.776  11.384  -7.331  1.00  0.00     0.001 A 
HETATM   16  C25 UNL     1       0.502  10.980  -8.637  1.00  0.00     0.001 A 
HETATM   17  C26 UNL     1      -0.623  10.231  -8.861  1.00  0.00     0.016 A 
HETATM   18  C27 UNL     1      -1.473   9.880  -7.818  1.00  0.00     0.031 A 
HETATM   19  C28 UNL     1      -2.656   9.082  -8.107  1.00  0.00     0.233 A 
HETATM   20  O2  UNL     1      -2.870   8.738  -9.291  1.00  0.00    -0.283 OA
HETATM   21  C29 UNL     1      -3.512   8.741  -6.978  1.00  0.00     0.235 A 
HETATM   22  O3  UNL     1      -4.522   8.061  -7.223  1.00  0.00    -0.283 OA
ENDROOT
BRANCH   9  23
HETATM   23  C8  UNL     1      -2.551  10.695   0.664  1.00  0.00     0.256 C 
HETATM   24  O1  UNL     1      -2.209  11.906   0.775  1.00  0.00    -0.267 OA
HETATM   25  N2  UNL     1      -2.577   9.861   1.775  1.00  0.00    -0.323 N 
ATOM     26  H2  UNL     1      -2.870   8.899   1.607  1.00  0.00     0.169 HD
BRANCH  25  27
HETATM   27  C9  UNL     1      -2.249  10.186   3.100  1.00  0.00     0.035 A 
HETATM   28  C10 UNL     1      -3.130  10.649   4.047  1.00  0.00     0.030 A 
HETATM   29  C11 UNL     1      -2.723  10.932   5.357  1.00  0.00     0.014 A 
HETATM   30  C12 UNL     1      -1.420  10.756   5.746  1.00  0.00    -0.026 A 
HETATM   31  C13 UNL     1      -1.021  11.037   7.045  1.00  0.00     0.012 A 
HETATM   32  C17 UNL     1      -0.514  10.295   4.824  1.00  0.00    -0.024 A 
HETATM   33  C14 UNL     1       0.289  10.857   7.422  1.00  0.00     0.001 A 
HETATM   34  C15 UNL     1       1.190  10.393   6.482  1.00  0.00     0.001 A 
HETATM   35  C16 UNL     1       0.826  10.108   5.200  1.00  0.00     0.012 A 
HETATM   36  C18 UNL     1      -0.935  10.029   3.560  1.00  0.00     0.042 A 
ENDBRANCH  25  27
ENDBRANCH   9  23
TORSDOF 2
ENDMDL
MODEL 4
REMARK VINA RESULT: -9.505120597      0.549      1.368
REMARK  2 active torsions:
REMARK  status: ('A' for Active; 'I' for Inactive)
REMARK    1  A    between atoms: C7_9  and  C8_10 
REMARK       I    between atoms: C8_10  and  N2_12 
REMARK    2  A    between atoms: N2_12  and  C9_14 
ROOT
HETATM    1  C1  UNL     1      -3.706   9.960  -5.839  1.00  0.00     0.050 C 
HETATM    2  C2  UNL     1      -3.801   9.059  -4.697  1.00  0.00    -0.033 A 
HETATM    3  C3  UNL     1      -4.369   7.795  -4.899  1.00  0.00     0.052 A 
HETATM    4  C4  UNL     1      -4.452   6.955  -3.812  1.00  0.00     0.059 A 
HETATM    5  N1  UNL     1      -4.007   7.320  -2.593  1.00  0.00    -0.354 N 
ATOM      6  H1  UNL     1      -4.086   6.666  -1.813  1.00  0.00     0.166 HD
HETATM    7  C5  UNL     1      -3.460   8.531  -2.388  1.00  0.00     0.044 A 
HETATM    8  C6  UNL     1      -3.006   8.890  -1.116  1.00  0.00     0.047 A 
HETATM    9  C7  UNL     1      -2.444  10.105  -0.851  1.00  0.00     0.034 A 
HETATM   10  C19 UNL     1      -2.340  10.980  -1.905  1.00  0.00     0.018 A 
HETATM   11  C20 UNL     1      -2.778  10.664  -3.187  1.00  0.00     0.015 A 
HETATM   12  C21 UNL     1      -3.343   9.430  -3.430  1.00  0.00    -0.002 A 
HETATM   13  C22 UNL     1      -5.047   5.623  -4.015  1.00  0.00     0.006 A 
HETATM   14  C23 UNL     1      -5.138   4.762  -2.929  1.00  0.00     0.014 A 
HETATM   15  C24 UNL     1      -5.688   3.495  -3.050  1.00  0.00     0.001 A 
HETATM   16  C25 UNL     1      -6.167   3.052  -4.282  1.00  0.00     0.001 A 
HETATM   17  C26 UNL     1      -6.078   3.901  -5.354  1.00  0.00     0.016 A 
HETATM   18  C27 UNL     1      -5.525   5.170  -5.223  1.00  0.00     0.031 A 
HETATM   19  C28 UNL     1      -5.454   6.034  -6.392  1.00  0.00     0.233 A 
HETATM   20  O2  UNL     1      -5.893   5.604  -7.482  1.00  0.00    -0.283 OA
HETATM   21  C29 UNL     1      -4.865   7.354  -6.200  1.00  0.00     0.235 A 
HETATM   22  O3  UNL     1      -4.803   8.093  -7.197  1.00  0.00    -0.283 OA
ENDROOT
BRANCH   9  23
HETATM   23  C8  UNL     1      -1.958  10.493   0.497  1.00  0.00     0.256 C 
HETATM   24  O1  UNL     1      -1.634  11.702   0.662  1.00  0.00    -0.267 OA
HETATM   25  N2  UNL     1      -1.859   9.583   1.542  1.00  0.00    -0.323 N 
ATOM     26  H2  UNL     1      -2.144   8.626   1.333  1.00  0.00     0.169 HD
BRANCH  25  27
HETATM   27  C9  UNL     1      -1.412   9.823   2.850  1.00  0.00     0.035 A 
HETATM   28  C10 UNL     1      -0.125   9.641   3.297  1.00  0.00     0.030 A 
HETATM   29  C11 UNL     1       0.243   9.923   4.619  1.00  0.00     0.014 A 
HETATM   30  C12 UNL     1      -0.674  10.394   5.522  1.00  0.00    -0.026 A 
HETATM   31  C13 UNL     1      -0.305  10.673   6.830  1.00  0.00     0.012 A 
HETATM   32  C17 UNL     1      -1.969  10.586   5.108  1.00  0.00    -0.024 A 
HETATM   33  C14 UNL     1      -1.235  11.145   7.727  1.00  0.00     0.001 A 
HETATM   34  C15 UNL     1      -2.534  11.333   7.295  1.00  0.00     0.001 A 
HETATM   35  C16 UNL     1      -2.925  11.068   6.017  1.00  0.00     0.012 A 
HETATM   36  C18 UNL     1      -2.299  10.305   3.820  1.00  0.00     0.042 A 
ENDBRANCH  25  27
ENDBRANCH   9  23
TORSDOF 2
ENDMDL
MODEL 5
REMARK VINA RESULT: -9.468977003      2.300      4.471
REMARK  2 active torsions:
REMARK  status: ('A' for Active; 'I' for Inactive)
REMARK    1  A    between atoms: C7_9  and  C8_10 
REMARK       I    between atoms: C8_10  and  N2_12 
REMARK    2  A    between atoms: N2_12  and  C9_14 
ROOT
HETATM    1  C1  UNL     1      -4.548   7.333  -4.784  1.00  0.00     0.050 C 
HETATM    2  C2  UNL     1      -3.533   8.364  -4.604  1.00  0.00    -0.033 A 
HETATM    3  C3  UNL     1      -2.740   8.709  -5.706  1.00  0.00     0.052 A 
HETATM    4  C4  UNL     1      -1.787   9.684  -5.520  1.00  0.00     0.059 A 
HETATM    5  N1  UNL     1      -1.609  10.293  -4.331  1.00  0.00    -0.354 N 
ATOM      6  H1  UNL     1      -0.891  11.011  -4.237  1.00  0.00     0.166 HD
HETATM    7  C5  UNL     1      -2.365   9.968  -3.266  1.00  0.00     0.044 A 
HETATM    8  C6  UNL     1      -2.164  10.611  -2.042  1.00  0.00     0.047 A 
HETATM    9  C7  UNL     1      -2.901  10.321  -0.930  1.00  0.00     0.034 A 
HETATM   10  C19 UNL     1      -3.867   9.353  -1.064  1.00  0.00     0.018 A 
HETATM   11  C20 UNL     1      -4.100   8.689  -2.264  1.00  0.00     0.015 A 
HETATM   12  C21 UNL     1      -3.343   8.999  -3.373  1.00  0.00    -0.002 A 
HETATM   13  C22 UNL     1      -0.948  10.055  -6.674  1.00  0.00     0.006 A 
HETATM   14  C23 UNL     1       0.019  11.037  -6.506  1.00  0.00     0.014 A 
HETATM   15  C24 UNL     1       0.842  11.433  -7.549  1.00  0.00     0.001 A 
HETATM   16  C25 UNL     1       0.714  10.845  -8.806  1.00  0.00     0.001 A 
HETATM   17  C26 UNL     1      -0.241   9.876  -8.973  1.00  0.00     0.016 A 
HETATM   18  C27 UNL     1      -1.061   9.485  -7.922  1.00  0.00     0.031 A 
HETATM   19  C28 UNL     1      -2.060   8.451  -8.150  1.00  0.00     0.233 A 
HETATM   20  O2  UNL     1      -2.147   7.946  -9.291  1.00  0.00    -0.283 OA
HETATM   21  C29 UNL     1      -2.894   8.079  -7.014  1.00  0.00     0.235 A 
HETATM   22  O3  UNL     1      -3.747   7.196  -7.207  1.00  0.00    -0.283 OA
ENDROOT
BRANCH   9  23
HETATM   23  C8  UNL     1      -2.695  11.000   0.374  1.00  0.00     0.256 C 
HETATM   24  O1  UNL     1      -1.831  11.920   0.409  1.00  0.00    -0.267 OA
HETATM   25  N2  UNL     1      -3.411  10.656   1.513  1.00  0.00    -0.323 N 
ATOM     26  H2  UNL     1      -4.096   9.907   1.405  1.00  0.00     0.169 HD
BRANCH  25  27
HETATM   27  C9  UNL     1      -3.305  11.215   2.796  1.00  0.00     0.035 A 
HETATM   28  C10 UNL     1      -3.831  12.425   3.181  1.00  0.00     0.030 A 
HETATM   29  C11 UNL     1      -3.695  12.903   4.491  1.00  0.00     0.014 A 
HETATM   30  C12 UNL     1      -3.029  12.177   5.444  1.00  0.00    -0.026 A 
HETATM   31  C13 UNL     1      -2.898  12.654   6.740  1.00  0.00     0.012 A 
HETATM   32  C17 UNL     1      -2.491  10.964   5.091  1.00  0.00    -0.024 A 
HETATM   33  C14 UNL     1      -2.226  11.916   7.686  1.00  0.00     0.001 A 
HETATM   34  C15 UNL     1      -1.690  10.697   7.315  1.00  0.00     0.001 A 
HETATM   35  C16 UNL     1      -1.804  10.203   6.050  1.00  0.00     0.012 A 
HETATM   36  C18 UNL     1      -2.637  10.524   3.814  1.00  0.00     0.042 A 
ENDBRANCH  25  27
ENDBRANCH   9  23
TORSDOF 2
ENDMDL
