MODEL 1
REMARK VINA RESULT: -9.565507204      0.000      0.000
REMARK  7 active torsions:
REMARK  status: ('A' for Active; 'I' for Inactive)
REMARK    1  A    between atoms: C6_6  and  C7_7 
REMARK    2  A    between atoms: C7_7  and  O1_8 
REMARK    3  A    between atoms: N1_10  and  C8_12 
REMARK    4  A    between atoms: C10_14  and  C11_15 
REMARK    5  A    between atoms: N3_21  and  C15_22 
REMARK    6  A    between atoms: C15_22  and  O2_23 
REMARK    7  A    between atoms: C15_22  and  C16_25 
ROOT
HETATM    1  C8  UNL     1      -1.249  11.821   1.728  1.00  0.00     0.133 A 
HETATM    2  C9  UNL     1      -1.704  11.744   0.407  1.00  0.00     0.077 A 
HETATM    3  C10 UNL     1      -1.868  10.438   0.115  1.00  0.00     0.037 A 
HETATM    4  N2  UNL     1      -1.535   9.742   1.204  1.00  0.00    -0.294 N 
ATOM      5  H2  UNL     1      -1.564   8.725   1.271  1.00  0.00     0.187 HD
HETATM    6  N3  UNL     1      -1.166  10.542   2.177  1.00  0.00    -0.216 N 
ENDROOT
BRANCH   1   7
HETATM    7  N1  UNL     1      -0.960  12.881   2.365  1.00  0.00    -0.321 N 
HETATM    8  C7  UNL     1      -1.473  13.582   3.404  1.00  0.00     0.153 C 
ATOM      9  H1  UNL     1      -0.118  13.321   1.996  1.00  0.00     0.169 HD
BRANCH   8  10
HETATM   10  C6  UNL     1      -2.217  14.809   3.434  1.00  0.00     0.027 A 
HETATM   11  C4  UNL     1      -1.452  15.979   3.642  1.00  0.00    -0.046 A 
HETATM   12  C3  UNL     1      -2.110  17.168   3.803  1.00  0.00     0.014 A 
HETATM   13  C5  UNL     1       0.049  15.888   3.615  1.00  0.00     0.049 C 
HETATM   14  C2  UNL     1      -3.490  17.220   3.757  1.00  0.00    -0.061 A 
HETATM   15  C1  UNL     1      -4.168  18.518   3.938  1.00  0.00     0.048 C 
HETATM   16  C27 UNL     1      -4.229  16.085   3.553  1.00  0.00     0.014 A 
HETATM   17  C25 UNL     1      -3.575  14.853   3.387  1.00  0.00    -0.046 A 
HETATM   18  C26 UNL     1      -4.463  13.651   3.185  1.00  0.00     0.049 C 
ENDBRANCH   8  10
BRANCH   8  19
HETATM   19  O1  UNL     1      -1.254  13.085   4.590  1.00  0.00    -0.345 OA
ATOM     20  H1  UNL     1      -1.843  12.373   4.812  1.00  0.00     0.219 HD
ENDBRANCH   8  19
ENDBRANCH   1   7
BRANCH   6  21
HETATM   21  C15 UNL     1      -0.782  10.075   3.441  1.00  0.00     0.174 C 
BRANCH  21  22
HETATM   22  O2  UNL     1       0.253   9.202   3.353  1.00  0.00    -0.344 OA
ATOM     23  H2  UNL     1       0.106   8.434   3.892  1.00  0.00     0.219 HD
ENDBRANCH  21  22
BRANCH  21  24
HETATM   24  C16 UNL     1      -1.204  10.288   4.771  1.00  0.00     0.029 A 
HETATM   25  C17 UNL     1      -0.268  10.577   5.758  1.00  0.00    -0.046 A 
HETATM   26  C18 UNL     1       1.201  10.643   5.507  1.00  0.00     0.049 C 
HETATM   27  C19 UNL     1      -0.739  10.855   7.038  1.00  0.00     0.014 A 
HETATM   28  C20 UNL     1      -2.048  10.855   7.363  1.00  0.00    -0.061 A 
HETATM   29  C21 UNL     1      -2.532  11.196   8.712  1.00  0.00     0.048 C 
HETATM   30  C22 UNL     1      -2.955  10.557   6.342  1.00  0.00     0.014 A 
HETATM   31  C23 UNL     1      -2.557  10.276   5.062  1.00  0.00    -0.046 A 
HETATM   32  C24 UNL     1      -3.537   9.964   3.974  1.00  0.00     0.049 C 
ENDBRANCH  21  24
ENDBRANCH   6  21
BRANCH   3  33
HETATM   33  C11 UNL     1      -2.334   9.919  -1.203  1.00  0.00    -0.007 C 
HETATM   34  C12 UNL     1      -2.412  11.078  -2.202  1.00  0.00     0.021 C 
HETATM   35  C13 UNL     1      -1.339   8.927  -1.802  1.00  0.00     0.021 C 
HETATM   36  C14 UNL     1      -3.699   9.298  -1.122  1.00  0.00     0.021 C 
ENDBRANCH   3  33
TORSDOF 7
ENDMDL
MODEL 2
REMARK VINA RESULT: -9.563778064      2.604      4.140
REMARK  7 active torsions:
REMARK  status: ('A' for Active; 'I' for Inactive)
REMARK    1  A    between atoms: C6_6  and  C7_7 
REMARK    2  A    between atoms: C7_7  and  O1_8 
REMARK    3  A    between atoms: N1_10  and  C8_12 
REMARK    4  A    between atoms: C10_14  and  C11_15 
REMARK    5  A    between atoms: N3_21  and  C15_22 
REMARK    6  A    between atoms: C15_22  and  O2_23 
REMARK    7  A    between atoms: C15_22  and  C16_25 
ROOT
HETATM    1  C8  UNL     1      -0.159   8.434   1.442  1.00  0.00     0.133 A 
HETATM    2  C9  UNL     1       0.393   8.114   0.196  1.00  0.00     0.077 A 
HETATM    3  C10 UNL     1       1.708   7.884   0.388  1.00  0.00     0.037 A 
HETATM    4  N2  UNL     1       1.955   8.050   1.688  1.00  0.00    -0.294 N 
ATOM      5  H2  UNL     1       2.872   7.938   2.121  1.00  0.00     0.187 HD
HETATM    6  N3  UNL     1       0.861   8.375   2.337  1.00  0.00    -0.216 N 
ENDROOT
BRANCH   1   7
HETATM    7  N1  UNL     1      -1.371   8.734   1.674  1.00  0.00    -0.321 N 
HETATM    8  C7  UNL     1      -2.193   9.785   1.440  1.00  0.00     0.153 C 
ATOM      9  H1  UNL     1      -1.853   7.984   2.169  1.00  0.00     0.169 HD
BRANCH   8  10
HETATM   10  C6  UNL     1      -2.682  10.809   2.318  1.00  0.00     0.027 A 
HETATM   11  C4  UNL     1      -2.007  12.049   2.242  1.00  0.00    -0.046 A 
HETATM   12  C3  UNL     1      -2.344  13.029   3.136  1.00  0.00     0.014 A 
HETATM   13  C5  UNL     1      -0.998  12.268   1.150  1.00  0.00     0.049 C 
HETATM   14  C2  UNL     1      -3.322  12.810   4.086  1.00  0.00    -0.061 A 
HETATM   15  C1  UNL     1      -3.657  13.887   5.037  1.00  0.00     0.048 C 
HETATM   16  C27 UNL     1      -3.977  11.608   4.156  1.00  0.00     0.014 A 
HETATM   17  C25 UNL     1      -3.647  10.587   3.249  1.00  0.00    -0.046 A 
HETATM   18  C26 UNL     1      -4.402   9.290   3.407  1.00  0.00     0.049 C 
ENDBRANCH   8  10
BRANCH   8  19
HETATM   19  O1  UNL     1      -2.639   9.897   0.220  1.00  0.00    -0.345 OA
ATOM     20  H1  UNL     1      -2.664   9.070  -0.247  1.00  0.00     0.219 HD
ENDBRANCH   8  19
ENDBRANCH   1   7
BRANCH   6  21
HETATM   21  C15 UNL     1       0.832   8.591   3.720  1.00  0.00     0.174 C 
BRANCH  21  22
HETATM   22  O2  UNL     1       1.863   7.963   4.341  1.00  0.00    -0.344 OA
ATOM     23  H2  UNL     1       1.886   8.167   5.268  1.00  0.00     0.219 HD
ENDBRANCH  21  22
BRANCH  21  24
HETATM   24  C16 UNL     1       0.001   9.294   4.619  1.00  0.00     0.029 A 
HETATM   25  C17 UNL     1      -1.125   8.674   5.152  1.00  0.00    -0.046 A 
HETATM   26  C18 UNL     1      -1.547   7.288   4.799  1.00  0.00     0.049 C 
HETATM   27  C19 UNL     1      -1.870   9.380   6.092  1.00  0.00     0.014 A 
HETATM   28  C20 UNL     1      -1.555  10.625   6.505  1.00  0.00    -0.061 A 
HETATM   29  C21 UNL     1      -2.330  11.340   7.534  1.00  0.00     0.048 C 
HETATM   30  C22 UNL     1      -0.419  11.211   5.943  1.00  0.00     0.014 A 
HETATM   31  C23 UNL     1       0.358  10.571   5.014  1.00  0.00    -0.046 A 
HETATM   32  C24 UNL     1       1.578  11.205   4.422  1.00  0.00     0.049 C 
ENDBRANCH  21  24
ENDBRANCH   6  21
BRANCH   3  33
HETATM   33  C11 UNL     1       2.667   7.519  -0.694  1.00  0.00    -0.007 C 
HETATM   34  C12 UNL     1       3.818   8.529  -0.709  1.00  0.00     0.021 C 
HETATM   35  C13 UNL     1       3.316   6.160  -0.436  1.00  0.00     0.021 C 
HETATM   36  C14 UNL     1       2.029   7.537  -2.054  1.00  0.00     0.021 C 
ENDBRANCH   3  33
TORSDOF 7
ENDMDL
MODEL 3
REMARK VINA RESULT: -9.463766922      3.109      4.052
REMARK  7 active torsions:
REMARK  status: ('A' for Active; 'I' for Inactive)
REMARK    1  A    between atoms: C6_6  and  C7_7 
REMARK    2  A    between atoms: C7_7  and  O1_8 
REMARK    3  A    between atoms: N1_10  and  C8_12 
REMARK    4  A    between atoms: C10_14  and  C11_15 
REMARK    5  A    between atoms: N3_21  and  C15_22 
REMARK    6  A    between atoms: C15_22  and  O2_23 
REMARK    7  A    between atoms: C15_22  and  C16_25 
ROOT
HETATM    1  C8  UNL     1      -3.660   9.570   0.485  1.00  0.00     0.133 A 
HETATM    2  C9  UNL     1      -4.172   9.885  -0.778  1.00  0.00     0.077 A 
HETATM    3  C10 UNL     1      -3.709   8.958  -1.641  1.00  0.00     0.037 A 
HETATM    4  N2  UNL     1      -2.951   8.110  -0.944  1.00  0.00    -0.294 N 
ATOM      5  H2  UNL     1      -2.470   7.304  -1.342  1.00  0.00     0.187 HD
HETATM    6  N3  UNL     1      -2.908   8.451   0.323  1.00  0.00    -0.216 N 
ENDROOT
BRANCH   1   7
HETATM    7  N1  UNL     1      -3.853  10.218   1.560  1.00  0.00    -0.321 N 
HETATM    8  C7  UNL     1      -3.525  11.436   2.054  1.00  0.00     0.153 C 
ATOM      9  H1  UNL     1      -4.402   9.678   2.229  1.00  0.00     0.169 HD
BRANCH   8  10
HETATM   10  C6  UNL     1      -2.542  11.823   3.026  1.00  0.00     0.027 A 
HETATM   11  C4  UNL     1      -1.303  12.253   2.500  1.00  0.00    -0.046 A 
HETATM   12  C3  UNL     1      -0.283  12.519   3.372  1.00  0.00     0.014 A 
HETATM   13  C5  UNL     1      -1.170  12.463   1.017  1.00  0.00     0.049 C 
HETATM   14  C2  UNL     1      -0.465  12.375   4.733  1.00  0.00    -0.061 A 
HETATM   15  C1  UNL     1       0.658  12.667   5.645  1.00  0.00     0.048 C 
HETATM   16  C27 UNL     1      -1.668  11.960   5.241  1.00  0.00     0.014 A 
HETATM   17  C25 UNL     1      -2.729  11.679   4.364  1.00  0.00    -0.046 A 
HETATM   18  C26 UNL     1      -4.013  11.212   5.004  1.00  0.00     0.049 C 
ENDBRANCH   8  10
BRANCH   8  19
HETATM   19  O1  UNL     1      -4.216  12.442   1.593  1.00  0.00    -0.345 OA
ATOM     20  H1  UNL     1      -4.471  12.336   0.684  1.00  0.00     0.219 HD
ENDBRANCH   8  19
ENDBRANCH   1   7
BRANCH   6  21
HETATM   21  C15 UNL     1      -2.197   7.720   1.284  1.00  0.00     0.174 C 
BRANCH  21  22
HETATM   22  O2  UNL     1      -2.288   6.385   1.058  1.00  0.00    -0.344 OA
ATOM     23  H2  UNL     1      -2.379   5.901   1.870  1.00  0.00     0.219 HD
ENDBRANCH  21  22
BRANCH  21  24
HETATM   24  C16 UNL     1      -1.418   8.030   2.420  1.00  0.00     0.029 A 
HETATM   25  C17 UNL     1      -0.106   8.464   2.263  1.00  0.00    -0.046 A 
HETATM   26  C18 UNL     1       0.567   8.593   0.939  1.00  0.00     0.049 C 
HETATM   27  C19 UNL     1       0.598   8.829   3.407  1.00  0.00     0.014 A 
HETATM   28  C20 UNL     1       0.071   8.781   4.649  1.00  0.00    -0.061 A 
HETATM   29  C21 UNL     1       0.815   9.215   5.844  1.00  0.00     0.048 C 
HETATM   30  C22 UNL     1      -1.248   8.337   4.761  1.00  0.00     0.014 A 
HETATM   31  C23 UNL     1      -1.996   7.963   3.676  1.00  0.00    -0.046 A 
HETATM   32  C24 UNL     1      -3.411   7.494   3.806  1.00  0.00     0.049 C 
ENDBRANCH  21  24
ENDBRANCH   6  21
BRANCH   3  33
HETATM   33  C11 UNL     1      -4.015   8.935  -3.100  1.00  0.00    -0.007 C 
HETATM   34  C12 UNL     1      -3.350   7.711  -3.736  1.00  0.00     0.021 C 
HETATM   35  C13 UNL     1      -5.511   8.772  -3.359  1.00  0.00     0.021 C 
HETATM   36  C14 UNL     1      -3.497  10.154  -3.812  1.00  0.00     0.021 C 
ENDBRANCH   3  33
TORSDOF 7
ENDMDL
MODEL 4
REMARK VINA RESULT: -9.381243501      0.129      1.516
REMARK  7 active torsions:
REMARK  status: ('A' for Active; 'I' for Inactive)
REMARK    1  A    between atoms: C6_6  and  C7_7 
REMARK    2  A    between atoms: C7_7  and  O1_8 
REMARK    3  A    between atoms: N1_10  and  C8_12 
REMARK    4  A    between atoms: C10_14  and  C11_15 
REMARK    5  A    between atoms: N3_21  and  C15_22 
REMARK    6  A    between atoms: C15_22  and  O2_23 
REMARK    7  A    between atoms: C15_22  and  C16_25 
ROOT
HETATM    1  C8  UNL     1      -1.278  11.871   1.718  1.00  0.00     0.133 A 
HETATM    2  C9  UNL     1      -1.699  11.760   0.388  1.00  0.00     0.077 A 
HETATM    3  C10 UNL     1      -1.883  10.448   0.134  1.00  0.00     0.037 A 
HETATM    4  N2  UNL     1      -1.594   9.782   1.253  1.00  0.00    -0.294 N 
ATOM      5  H2  UNL     1      -1.646   8.769   1.353  1.00  0.00     0.187 HD
HETATM    6  N3  UNL     1      -1.234  10.606   2.210  1.00  0.00    -0.216 N 
ENDROOT
BRANCH   1   7
HETATM    7  N1  UNL     1      -0.984  12.945   2.327  1.00  0.00    -0.321 N 
HETATM    8  C7  UNL     1      -1.467  13.652   3.377  1.00  0.00     0.153 C 
ATOM      9  H1  UNL     1      -0.165  13.395   1.918  1.00  0.00     0.169 HD
BRANCH   8  10
HETATM   10  C6  UNL     1      -2.232  14.866   3.420  1.00  0.00     0.027 A 
HETATM   11  C4  UNL     1      -1.488  16.046   3.645  1.00  0.00    -0.046 A 
HETATM   12  C3  UNL     1      -2.167  17.221   3.819  1.00  0.00     0.014 A 
HETATM   13  C5  UNL     1       0.014  15.981   3.621  1.00  0.00     0.049 C 
HETATM   14  C2  UNL     1      -3.547  17.250   3.770  1.00  0.00    -0.061 A 
HETATM   15  C1  UNL     1      -4.249  18.533   3.966  1.00  0.00     0.048 C 
HETATM   16  C27 UNL     1      -4.267  16.104   3.550  1.00  0.00     0.014 A 
HETATM   17  C25 UNL     1      -3.590  14.887   3.370  1.00  0.00    -0.046 A 
HETATM   18  C26 UNL     1      -4.457  13.672   3.150  1.00  0.00     0.049 C 
ENDBRANCH   8  10
BRANCH   8  19
HETATM   19  O1  UNL     1      -1.190  13.176   4.560  1.00  0.00    -0.345 OA
ATOM     20  H1  UNL     1      -0.344  13.457   4.887  1.00  0.00     0.219 HD
ENDBRANCH   8  19
ENDBRANCH   1   7
BRANCH   6  21
HETATM   21  C15 UNL     1      -0.893  10.174   3.498  1.00  0.00     0.174 C 
BRANCH  21  22
HETATM   22  O2  UNL     1       0.085   9.233   3.462  1.00  0.00    -0.344 OA
ATOM     23  H2  UNL     1       0.774   9.426   4.087  1.00  0.00     0.219 HD
ENDBRANCH  21  22
BRANCH  21  24
HETATM   24  C16 UNL     1      -1.314  10.473   4.812  1.00  0.00     0.029 A 
HETATM   25  C17 UNL     1      -2.670  10.477   5.121  1.00  0.00    -0.046 A 
HETATM   26  C18 UNL     1      -3.745  10.215   4.121  1.00  0.00     0.049 C 
HETATM   27  C19 UNL     1      -3.032  10.702   6.446  1.00  0.00     0.014 A 
HETATM   28  C20 UNL     1      -2.139  10.917   7.433  1.00  0.00    -0.061 A 
HETATM   29  C21 UNL     1      -2.538  11.109   8.839  1.00  0.00     0.048 C 
HETATM   30  C22 UNL     1      -0.788  10.907   7.079  1.00  0.00     0.014 A 
HETATM   31  C23 UNL     1      -0.364  10.690   5.794  1.00  0.00    -0.046 A 
HETATM   32  C24 UNL     1       1.087  10.676   5.425  1.00  0.00     0.049 C 
ENDBRANCH  21  24
ENDBRANCH   6  21
BRANCH   3  33
HETATM   33  C11 UNL     1      -2.325   9.896  -1.179  1.00  0.00    -0.007 C 
HETATM   34  C12 UNL     1      -2.435  11.037  -2.194  1.00  0.00     0.021 C 
HETATM   35  C13 UNL     1      -1.296   8.927  -1.758  1.00  0.00     0.021 C 
HETATM   36  C14 UNL     1      -3.670   9.232  -1.095  1.00  0.00     0.021 C 
ENDBRANCH   3  33
TORSDOF 7
ENDMDL
MODEL 5
REMARK VINA RESULT: -9.358033726      2.563      4.008
REMARK  7 active torsions:
REMARK  status: ('A' for Active; 'I' for Inactive)
REMARK    1  A    between atoms: C6_6  and  C7_7 
REMARK    2  A    between atoms: C7_7  and  O1_8 
REMARK    3  A    between atoms: N1_10  and  C8_12 
REMARK    4  A    between atoms: C10_14  and  C11_15 
REMARK    5  A    between atoms: N3_21  and  C15_22 
REMARK    6  A    between atoms: C15_22  and  O2_23 
REMARK    7  A    between atoms: C15_22  and  C16_25 
ROOT
HETATM    1  C8  UNL     1      -0.141   8.663   1.526  1.00  0.00     0.133 A 
HETATM    2  C9  UNL     1       0.408   8.290   0.295  1.00  0.00     0.077 A 
HETATM    3  C10 UNL     1       1.694   7.947   0.517  1.00  0.00     0.037 A 
HETATM    4  N2  UNL     1       1.925   8.097   1.823  1.00  0.00    -0.294 N 
ATOM      5  H2  UNL     1       2.818   7.908   2.277  1.00  0.00     0.187 HD
HETATM    6  N3  UNL     1       0.849   8.520   2.444  1.00  0.00    -0.216 N 
ENDROOT
BRANCH   1   7
HETATM    7  N1  UNL     1      -1.327   9.069   1.729  1.00  0.00    -0.321 N 
HETATM    8  C7  UNL     1      -2.059  10.172   1.440  1.00  0.00     0.153 C 
ATOM      9  H1  UNL     1      -1.874   8.383   2.249  1.00  0.00     0.169 HD
BRANCH   8  10
HETATM   10  C6  UNL     1      -2.473  11.269   2.267  1.00  0.00     0.027 A 
HETATM   11  C4  UNL     1      -3.615  11.033   3.065  1.00  0.00    -0.046 A 
HETATM   12  C3  UNL     1      -4.134  12.074   3.784  1.00  0.00     0.014 A 
HETATM   13  C5  UNL     1      -4.177   9.640   3.146  1.00  0.00     0.049 C 
HETATM   14  C2  UNL     1      -3.551  13.325   3.732  1.00  0.00    -0.061 A 
HETATM   15  C1  UNL     1      -4.139  14.428   4.517  1.00  0.00     0.048 C 
HETATM   16  C27 UNL     1      -2.442  13.552   2.960  1.00  0.00     0.014 A 
HETATM   17  C25 UNL     1      -1.893  12.497   2.212  1.00  0.00    -0.046 A 
HETATM   18  C26 UNL     1      -0.684  12.836   1.375  1.00  0.00     0.049 C 
ENDBRANCH   8  10
BRANCH   8  19
HETATM   19  O1  UNL     1      -2.484  10.266   0.210  1.00  0.00    -0.345 OA
ATOM     20  H1  UNL     1      -3.191  10.891   0.105  1.00  0.00     0.219 HD
ENDBRANCH   8  19
ENDBRANCH   1   7
BRANCH   6  21
HETATM   21  C15 UNL     1       0.808   8.745   3.826  1.00  0.00     0.174 C 
BRANCH  21  22
HETATM   22  O2  UNL     1       1.787   8.060   4.469  1.00  0.00    -0.344 OA
ATOM     23  H2  UNL     1       2.537   7.916   3.905  1.00  0.00     0.219 HD
ENDBRANCH  21  22
BRANCH  21  24
HETATM   24  C16 UNL     1       0.004   9.503   4.706  1.00  0.00     0.029 A 
HETATM   25  C17 UNL     1       0.366  10.807   5.026  1.00  0.00    -0.046 A 
HETATM   26  C18 UNL     1       1.601  11.469   4.516  1.00  0.00     0.049 C 
HETATM   27  C19 UNL     1      -0.498  11.539   5.836  1.00  0.00     0.014 A 
HETATM   28  C20 UNL     1      -1.655  11.047   6.322  1.00  0.00    -0.061 A 
HETATM   29  C21 UNL     1      -2.579  11.851   7.141  1.00  0.00     0.048 C 
HETATM   30  C22 UNL     1      -1.979   9.732   5.979  1.00  0.00     0.014 A 
HETATM   31  C23 UNL     1      -1.174   8.958   5.185  1.00  0.00    -0.046 A 
HETATM   32  C24 UNL     1      -1.532   7.551   4.818  1.00  0.00     0.049 C 
ENDBRANCH  21  24
ENDBRANCH   6  21
BRANCH   3  33
HETATM   33  C11 UNL     1       2.642   7.493  -0.541  1.00  0.00    -0.007 C 
HETATM   34  C12 UNL     1       3.830   8.456  -0.599  1.00  0.00     0.021 C 
HETATM   35  C13 UNL     1       3.237   6.125  -0.214  1.00  0.00     0.021 C 
HETATM   36  C14 UNL     1       2.009   7.470  -1.903  1.00  0.00     0.021 C 
ENDBRANCH   3  33
TORSDOF 7
ENDMDL
