MODEL 1
REMARK VINA RESULT: -7.345286397      0.000      0.000
REMARK  7 active torsions:
REMARK  status: ('A' for Active; 'I' for Inactive)
REMARK    1  A    between atoms: C2_6  and  C3_7 
REMARK    2  A    between atoms: N4_8  and  N5_10 
REMARK    3  A    between atoms: N5_10  and  C4_12 
REMARK    4  A    between atoms: C5_15  and  C6_16 
REMARK    5  A    between atoms: C6_16  and  S1_17 
REMARK    6  A    between atoms: S1_17  and  C7_18 
REMARK    7  A    between atoms: C8_25  and  N10_26 
ROOT
HETATM    1  C4  UNL     1      13.515  46.810 -48.869  1.00  0.00     0.712 A 
HETATM    2  N6  UNL     1      13.099  47.979 -48.359  1.00  0.00    -0.177 N 
ATOM      3  H6  UNL     1      12.501  48.586 -48.918  1.00  0.00     0.185 HD
HETATM    4  C5  UNL     1      13.460  48.358 -47.124  1.00  0.00     0.123 A 
HETATM    5  N9  UNL     1      14.264  47.526 -46.389  1.00  0.00    -0.179 N 
ATOM      6  H9  UNL     1      14.546  47.802 -45.449  1.00  0.00     0.185 HD
HETATM    7  C8  UNL     1      14.688  46.352 -46.887  1.00  0.00     0.691 A 
HETATM    8  N11 UNL     1      14.309  45.997 -48.135  1.00  0.00    -0.021 N 
ATOM      9  H11 UNL     1      14.622  45.109 -48.526  1.00  0.00     0.203 HD
ENDROOT
BRANCH   1  10
HETATM   10  N5  UNL     1      13.174  46.437 -50.055  1.00  0.00    -0.132 N 
ATOM     11  H5  UNL     1      12.296  45.934 -50.182  1.00  0.00     0.205 HD
BRANCH  10  12
HETATM   12  N4  UNL     1      13.971  46.700 -51.170  1.00  0.00    -0.294 N 
HETATM   13  C3  UNL     1      14.239  45.787 -52.029  1.00  0.00     0.158 C 
ATOM     14  H4  UNL     1      14.348  47.639 -51.305  1.00  0.00     0.186 HD
BRANCH  13  15
HETATM   15  C2  UNL     1      15.065  46.037 -53.198  1.00  0.00     0.151 A 
HETATM   16  N3  UNL     1      14.862  45.638 -54.467  1.00  0.00    -0.266 N 
HETATM   17  N2  UNL     1      15.850  46.075 -55.228  1.00  0.00    -0.003 NA
ATOM     18  H3  UNL     1      14.069  45.084 -54.791  1.00  0.00     0.186 HD
HETATM   19  N1  UNL     1      16.695  46.758 -54.464  1.00  0.00    -0.221 N 
HETATM   20  C1  UNL     1      17.894  47.390 -54.922  1.00  0.00     0.197 C 
HETATM   21  N12 UNL     1      16.213  46.734 -53.218  1.00  0.00    -0.269 N 
ATOM     22  H12 UNL     1      16.649  47.175 -52.409  1.00  0.00     0.190 HD
ENDBRANCH  13  15
ENDBRANCH  10  12
ENDBRANCH   1  10
BRANCH   4  23
HETATM   23  C6  UNL     1      13.053  49.638 -46.502  1.00  0.00     0.159 C 
BRANCH  23  24
HETATM   24  S1  UNL     1      11.325  49.663 -46.102  1.00  0.00    -0.090 SA
BRANCH  24  25
HETATM   25  C7  UNL     1      10.689  48.256 -45.258  1.00  0.00     0.148 C 
HETATM   26  N7  UNL     1      11.341  47.588 -44.387  1.00  0.00    -0.382 N 
ATOM     27  H72 UNL     1      12.293  47.883 -44.167  1.00  0.00     0.157 HD
ATOM     28  H71 UNL     1      10.972  46.773 -43.898  1.00  0.00     0.157 HD
HETATM   29  N8  UNL     1       9.350  47.841 -45.567  1.00  0.00    -0.075 NA
ENDBRANCH  24  25
ENDBRANCH  23  24
ENDBRANCH   4  23
BRANCH   7  30
HETATM   30  N10 UNL     1      15.444  45.524 -46.248  1.00  0.00    -0.234 N 
ATOM     31 2H10 UNL     1      15.648  45.743 -45.273  1.00  0.00     0.174 HD
ATOM     32 1H10 UNL     1      15.843  44.679 -46.657  1.00  0.00     0.174 HD
ENDBRANCH   7  30
TORSDOF 7
ENDMDL
MODEL 2
REMARK VINA RESULT: -7.281585644      1.490      2.138
REMARK  7 active torsions:
REMARK  status: ('A' for Active; 'I' for Inactive)
REMARK    1  A    between atoms: C2_6  and  C3_7 
REMARK    2  A    between atoms: N4_8  and  N5_10 
REMARK    3  A    between atoms: N5_10  and  C4_12 
REMARK    4  A    between atoms: C5_15  and  C6_16 
REMARK    5  A    between atoms: C6_16  and  S1_17 
REMARK    6  A    between atoms: S1_17  and  C7_18 
REMARK    7  A    between atoms: C8_25  and  N10_26 
ROOT
HETATM    1  C4  UNL     1      13.827  46.853 -46.789  1.00  0.00     0.712 A 
HETATM    2  N6  UNL     1      13.051  47.829 -47.280  1.00  0.00    -0.177 N 
ATOM      3  H6  UNL     1      12.676  47.748 -48.224  1.00  0.00     0.185 HD
HETATM    4  C5  UNL     1      12.760  48.913 -46.543  1.00  0.00     0.123 A 
HETATM    5  N9  UNL     1      13.273  49.002 -45.275  1.00  0.00    -0.179 N 
ATOM      6  H9  UNL     1      13.059  49.820 -44.704  1.00  0.00     0.185 HD
HETATM    7  C8  UNL     1      14.052  48.030 -44.770  1.00  0.00     0.691 A 
HETATM    8  N11 UNL     1      14.328  46.951 -45.536  1.00  0.00    -0.021 N 
ATOM      9  H11 UNL     1      14.918  46.206 -45.167  1.00  0.00     0.203 HD
ENDROOT
BRANCH   1  10
HETATM   10  N5  UNL     1      14.113  45.808 -47.489  1.00  0.00    -0.132 N 
ATOM     11  H5  UNL     1      14.395  44.953 -47.009  1.00  0.00     0.205 HD
BRANCH  10  12
HETATM   12  N4  UNL     1      14.046  45.812 -48.883  1.00  0.00    -0.294 N 
HETATM   13  C3  UNL     1      15.086  46.033 -49.600  1.00  0.00     0.158 C 
ATOM     14  H4  UNL     1      13.152  45.636 -49.341  1.00  0.00     0.186 HD
BRANCH  13  15
HETATM   15  C2  UNL     1      15.042  46.042 -51.052  1.00  0.00     0.151 A 
HETATM   16  N3  UNL     1      14.289  45.285 -51.871  1.00  0.00    -0.266 N 
HETATM   17  N2  UNL     1      14.549  45.604 -53.127  1.00  0.00    -0.003 NA
ATOM     18  H3  UNL     1      13.622  44.575 -51.570  1.00  0.00     0.186 HD
HETATM   19  N1  UNL     1      15.466  46.566 -53.132  1.00  0.00    -0.221 N 
HETATM   20  C1  UNL     1      16.009  47.180 -54.305  1.00  0.00     0.197 C 
HETATM   21  N12 UNL     1      15.768  46.834 -51.859  1.00  0.00    -0.269 N 
ATOM     22  H12 UNL     1      16.444  47.531 -51.548  1.00  0.00     0.190 HD
ENDBRANCH  13  15
ENDBRANCH  10  12
ENDBRANCH   1  10
BRANCH   4  23
HETATM   23  C6  UNL     1      11.924  50.036 -47.022  1.00  0.00     0.159 C 
BRANCH  23  24
HETATM   24  S1  UNL     1      10.391  50.148 -46.136  1.00  0.00    -0.090 SA
BRANCH  24  25
HETATM   25  C7  UNL     1       9.930  48.750 -45.174  1.00  0.00     0.148 C 
HETATM   26  N7  UNL     1       9.981  48.710 -43.898  1.00  0.00    -0.382 N 
ATOM     27  H72 UNL     1      10.314  49.538 -43.403  1.00  0.00     0.157 HD
ATOM     28  H71 UNL     1       9.714  47.900 -43.340  1.00  0.00     0.157 HD
HETATM   29  N8  UNL     1       9.461  47.586 -45.870  1.00  0.00    -0.075 NA
ENDBRANCH  24  25
ENDBRANCH  23  24
ENDBRANCH   4  23
BRANCH   7  30
HETATM   30  N10 UNL     1      14.564  48.054 -43.586  1.00  0.00    -0.234 N 
ATOM     31 2H10 UNL     1      13.915  48.124 -42.803  1.00  0.00     0.174 HD
ATOM     32 1H10 UNL     1      15.564  48.007 -43.394  1.00  0.00     0.174 HD
ENDBRANCH   7  30
TORSDOF 7
ENDMDL
MODEL 3
REMARK VINA RESULT: -7.093019736      2.223      4.184
REMARK  7 active torsions:
REMARK  status: ('A' for Active; 'I' for Inactive)
REMARK    1  A    between atoms: C2_6  and  C3_7 
REMARK    2  A    between atoms: N4_8  and  N5_10 
REMARK    3  A    between atoms: N5_10  and  C4_12 
REMARK    4  A    between atoms: C5_15  and  C6_16 
REMARK    5  A    between atoms: C6_16  and  S1_17 
REMARK    6  A    between atoms: S1_17  and  C7_18 
REMARK    7  A    between atoms: C8_25  and  N10_26 
ROOT
HETATM    1  C4  UNL     1      13.360  48.626 -46.856  1.00  0.00     0.712 A 
HETATM    2  N6  UNL     1      14.355  48.445 -45.975  1.00  0.00    -0.177 N 
ATOM      3  H6  UNL     1      15.303  48.724 -46.224  1.00  0.00     0.185 HD
HETATM    4  C5  UNL     1      14.118  47.900 -44.772  1.00  0.00     0.123 A 
HETATM    5  N9  UNL     1      12.835  47.533 -44.458  1.00  0.00    -0.179 N 
ATOM      6  H9  UNL     1      12.641  47.119 -43.546  1.00  0.00     0.185 HD
HETATM    7  C8  UNL     1      11.828  47.710 -45.330  1.00  0.00     0.691 A 
HETATM    8  N11 UNL     1      12.098  48.259 -46.535  1.00  0.00    -0.021 N 
ATOM      9  H11 UNL     1      11.344  48.399 -47.207  1.00  0.00     0.203 HD
ENDROOT
BRANCH   1  10
HETATM   10  N5  UNL     1      13.577  49.147 -48.015  1.00  0.00    -0.132 N 
ATOM     11  H5  UNL     1      13.753  50.150 -48.081  1.00  0.00     0.205 HD
BRANCH  10  12
HETATM   12  N4  UNL     1      13.578  48.381 -49.181  1.00  0.00    -0.294 N 
HETATM   13  C3  UNL     1      14.229  47.278 -49.255  1.00  0.00     0.158 C 
ATOM     14  H4  UNL     1      13.052  48.704 -49.993  1.00  0.00     0.186 HD
BRANCH  13  15
HETATM   15  C2  UNL     1      14.245  46.463 -50.457  1.00  0.00     0.151 A 
HETATM   16  N3  UNL     1      13.787  45.209 -50.624  1.00  0.00    -0.266 N 
HETATM   17  N2  UNL     1      13.992  44.829 -51.874  1.00  0.00    -0.003 NA
ATOM     18  H3  UNL     1      13.349  44.640 -49.900  1.00  0.00     0.186 HD
HETATM   19  N1  UNL     1      14.580  45.829 -52.522  1.00  0.00    -0.221 N 
HETATM   20  C1  UNL     1      14.964  45.803 -53.900  1.00  0.00     0.197 C 
HETATM   21  N12 UNL     1      14.735  46.830 -51.652  1.00  0.00    -0.269 N 
ATOM     22  H12 UNL     1      15.159  47.733 -51.864  1.00  0.00     0.190 HD
ENDBRANCH  13  15
ENDBRANCH  10  12
ENDBRANCH   1  10
BRANCH   4  23
HETATM   23  C6  UNL     1      15.166  47.656 -43.756  1.00  0.00     0.159 C 
BRANCH  23  24
HETATM   24  S1  UNL     1      16.716  47.209 -44.495  1.00  0.00    -0.090 SA
BRANCH  24  25
HETATM   25  C7  UNL     1      16.761  45.689 -45.378  1.00  0.00     0.148 C 
HETATM   26  N7  UNL     1      17.677  44.808 -45.243  1.00  0.00    -0.382 N 
ATOM     27  H72 UNL     1      18.434  44.998 -44.586  1.00  0.00     0.157 HD
ATOM     28  H71 UNL     1      17.703  43.927 -45.755  1.00  0.00     0.157 HD
HETATM   29  N8  UNL     1      15.696  45.422 -46.303  1.00  0.00    -0.075 NA
ENDBRANCH  24  25
ENDBRANCH  23  24
ENDBRANCH   4  23
BRANCH   7  30
HETATM   30  N10 UNL     1      10.601  47.386 -45.096  1.00  0.00    -0.234 N 
ATOM     31 2H10 UNL     1      10.086  46.947 -45.858  1.00  0.00     0.174 HD
ATOM     32 1H10 UNL     1      10.127  47.543 -44.207  1.00  0.00     0.174 HD
ENDBRANCH   7  30
TORSDOF 7
ENDMDL
MODEL 4
REMARK VINA RESULT: -7.040703969      3.110      7.411
REMARK  7 active torsions:
REMARK  status: ('A' for Active; 'I' for Inactive)
REMARK    1  A    between atoms: C2_6  and  C3_7 
REMARK    2  A    between atoms: N4_8  and  N5_10 
REMARK    3  A    between atoms: N5_10  and  C4_12 
REMARK    4  A    between atoms: C5_15  and  C6_16 
REMARK    5  A    between atoms: C6_16  and  S1_17 
REMARK    6  A    between atoms: S1_17  and  C7_18 
REMARK    7  A    between atoms: C8_25  and  N10_26 
ROOT
HETATM    1  C4  UNL     1      15.754  47.343 -45.400  1.00  0.00     0.712 A 
HETATM    2  N6  UNL     1      15.771  47.660 -46.703  1.00  0.00    -0.177 N 
ATOM      3  H6  UNL     1      15.207  48.441 -47.038  1.00  0.00     0.185 HD
HETATM    4  C5  UNL     1      16.522  46.964 -47.571  1.00  0.00     0.123 A 
HETATM    5  N9  UNL     1      17.274  45.920 -47.098  1.00  0.00    -0.179 N 
ATOM      6  H9  UNL     1      17.849  45.383 -47.747  1.00  0.00     0.185 HD
HETATM    7  C8  UNL     1      17.266  45.591 -45.796  1.00  0.00     0.691 A 
HETATM    8  N11 UNL     1      16.500  46.310 -44.946  1.00  0.00    -0.021 N 
ATOM      9  H11 UNL     1      16.483  46.073 -43.954  1.00  0.00     0.203 HD
ENDROOT
BRANCH   1  10
HETATM   10  N5  UNL     1      15.036  48.006 -44.559  1.00  0.00    -0.132 N 
ATOM     11  H5  UNL     1      15.444  48.274 -43.664  1.00  0.00     0.205 HD
BRANCH  10  12
HETATM   12  N4  UNL     1      13.716  48.367 -44.837  1.00  0.00    -0.294 N 
HETATM   13  C3  UNL     1      12.805  47.482 -45.015  1.00  0.00     0.158 C 
ATOM     14  H4  UNL     1      13.471  49.355 -44.900  1.00  0.00     0.186 HD
BRANCH  13  15
HETATM   15  C2  UNL     1      11.426  47.833 -45.305  1.00  0.00     0.151 A 
HETATM   16  N3  UNL     1      10.372  47.013 -45.473  1.00  0.00    -0.266 N 
HETATM   17  N2  UNL     1       9.291  47.733 -45.722  1.00  0.00    -0.003 NA
ATOM     18  H3  UNL     1      10.401  45.995 -45.416  1.00  0.00     0.186 HD
HETATM   19  N1  UNL     1       9.635  49.016 -45.717  1.00  0.00    -0.221 N 
HETATM   20  C1  UNL     1       8.740  50.109 -45.947  1.00  0.00     0.197 C 
HETATM   21  N12 UNL     1      10.944  49.076 -45.461  1.00  0.00    -0.269 N 
ATOM     22  H12 UNL     1      11.493  49.934 -45.395  1.00  0.00     0.190 HD
ENDBRANCH  13  15
ENDBRANCH  10  12
ENDBRANCH   1  10
BRANCH   4  23
HETATM   23  C6  UNL     1      16.580  47.246 -49.023  1.00  0.00     0.159 C 
BRANCH  23  24
HETATM   24  S1  UNL     1      16.110  45.837 -49.993  1.00  0.00    -0.090 SA
BRANCH  24  25
HETATM   25  C7  UNL     1      14.394  45.648 -50.332  1.00  0.00     0.148 C 
HETATM   26  N7  UNL     1      13.464  46.200 -49.652  1.00  0.00    -0.382 N 
ATOM     27  H72 UNL     1      13.729  46.783 -48.858  1.00  0.00     0.157 HD
ATOM     28  H71 UNL     1      12.470  46.090 -49.849  1.00  0.00     0.157 HD
HETATM   29  N8  UNL     1      14.021  44.827 -51.449  1.00  0.00    -0.075 NA
ENDBRANCH  24  25
ENDBRANCH  23  24
ENDBRANCH   4  23
BRANCH   7  30
HETATM   30  N10 UNL     1      17.950  44.622 -45.289  1.00  0.00    -0.234 N 
ATOM     31 2H10 UNL     1      18.959  44.756 -45.217  1.00  0.00     0.174 HD
ATOM     32 1H10 UNL     1      17.546  43.745 -44.961  1.00  0.00     0.174 HD
ENDBRANCH   7  30
TORSDOF 7
ENDMDL
MODEL 5
REMARK VINA RESULT: -7.031692164      1.487      2.404
REMARK  7 active torsions:
REMARK  status: ('A' for Active; 'I' for Inactive)
REMARK    1  A    between atoms: C2_6  and  C3_7 
REMARK    2  A    between atoms: N4_8  and  N5_10 
REMARK    3  A    between atoms: N5_10  and  C4_12 
REMARK    4  A    between atoms: C5_15  and  C6_16 
REMARK    5  A    between atoms: C6_16  and  S1_17 
REMARK    6  A    between atoms: S1_17  and  C7_18 
REMARK    7  A    between atoms: C8_25  and  N10_26 
ROOT
HETATM    1  C4  UNL     1      13.400  47.601 -49.309  1.00  0.00     0.712 A 
HETATM    2  N6  UNL     1      13.337  47.567 -47.970  1.00  0.00    -0.177 N 
ATOM      3  H6  UNL     1      13.598  46.715 -47.475  1.00  0.00     0.185 HD
HETATM    4  C5  UNL     1      12.936  48.641 -47.273  1.00  0.00     0.123 A 
HETATM    5  N9  UNL     1      12.591  49.778 -47.957  1.00  0.00    -0.179 N 
ATOM      6  H9  UNL     1      12.285  50.602 -47.440  1.00  0.00     0.185 HD
HETATM    7  C8  UNL     1      12.650  49.826 -49.299  1.00  0.00     0.691 A 
HETATM    8  N11 UNL     1      13.057  48.728 -49.974  1.00  0.00    -0.021 N 
ATOM      9  H11 UNL     1      13.107  48.749 -50.992  1.00  0.00     0.203 HD
ENDROOT
BRANCH   1  10
HETATM   10  N5  UNL     1      13.784  46.574 -49.987  1.00  0.00    -0.132 N 
ATOM     11  H5  UNL     1      13.457  45.648 -49.711  1.00  0.00     0.205 HD
BRANCH  10  12
HETATM   12  N4  UNL     1      14.634  46.691 -51.088  1.00  0.00    -0.294 N 
HETATM   13  C3  UNL     1      14.391  46.077 -52.188  1.00  0.00     0.158 C 
ATOM     14  H4  UNL     1      15.466  47.278 -51.017  1.00  0.00     0.186 HD
BRANCH  13  15
HETATM   15  C2  UNL     1      15.259  46.184 -53.347  1.00  0.00     0.151 A 
HETATM   16  N3  UNL     1      15.102  45.633 -54.564  1.00  0.00    -0.266 N 
HETATM   17  N2  UNL     1      16.118  45.976 -55.337  1.00  0.00    -0.003 NA
ATOM     18  H3  UNL     1      14.320  45.043 -54.848  1.00  0.00     0.186 HD
HETATM   19  N1  UNL     1      16.937  46.748 -54.630  1.00  0.00    -0.221 N 
HETATM   20  C1  UNL     1      18.154  47.321 -55.118  1.00  0.00     0.197 C 
HETATM   21  N12 UNL     1      16.409  46.875 -53.410  1.00  0.00    -0.269 N 
ATOM     22  H12 UNL     1      16.817  47.413 -52.645  1.00  0.00     0.190 HD
ENDBRANCH  13  15
ENDBRANCH  10  12
ENDBRANCH   1  10
BRANCH   4  23
HETATM   23  C6  UNL     1      12.827  48.674 -45.797  1.00  0.00     0.159 C 
BRANCH  23  24
HETATM   24  S1  UNL     1      11.283  48.008 -45.229  1.00  0.00    -0.090 SA
BRANCH  24  25
HETATM   25  C7  UNL     1       9.854  49.001 -45.484  1.00  0.00     0.148 C 
HETATM   26  N7  UNL     1       8.712  48.759 -44.965  1.00  0.00    -0.382 N 
ATOM     27  H72 UNL     1       8.618  47.937 -44.368  1.00  0.00     0.157 HD
ATOM     28  H71 UNL     1       7.883  49.334 -45.113  1.00  0.00     0.157 HD
HETATM   29  N8  UNL     1       9.985  50.157 -46.324  1.00  0.00    -0.075 NA
ENDBRANCH  24  25
ENDBRANCH  23  24
ENDBRANCH   4  23
BRANCH   7  30
HETATM   30  N10 UNL     1      12.340  50.863 -50.001  1.00  0.00    -0.234 N 
ATOM     31 2H10 UNL     1      12.737  51.755 -49.708  1.00  0.00     0.174 HD
ATOM     32 1H10 UNL     1      11.732  50.840 -50.819  1.00  0.00     0.174 HD
ENDBRANCH   7  30
TORSDOF 7
ENDMDL
