MODEL 1
REMARK VINA RESULT: -6.454255088      0.000      0.000
REMARK  7 active torsions:
REMARK  status: ('A' for Active; 'I' for Inactive)
REMARK    1  A    between atoms: C3_6  and  N3_7 
REMARK    2  A    between atoms: C4_10  and  C5_11 
REMARK    3  A    between atoms: C5_11  and  N4_12 
REMARK    4  A    between atoms: C5_11  and  C6_16 
REMARK       I    between atoms: C6_16  and  N5_18 
REMARK    5  A    between atoms: N5_18  and  N6_20 
REMARK    6  A    between atoms: C7_21  and  N7_22 
REMARK    7  A    between atoms: C8_28  and  N9_29 
ROOT
HETATM    1  C6  UNL     1      13.691  49.313 -50.268  1.00  0.00     0.273 C 
HETATM    2  O3  UNL     1      13.233  48.217 -49.944  1.00  0.00    -0.269 OA
HETATM    3  N5  UNL     1      14.122  49.641 -51.536  1.00  0.00    -0.244 N 
ATOM      4  H5  UNL     1      14.441  50.608 -51.608  1.00  0.00     0.191 HD
ENDROOT
BRANCH   1   5
HETATM    5  C5  UNL     1      13.753  50.315 -49.125  1.00  0.00     0.330 C 
BRANCH   5   6
HETATM    6  C4  UNL     1      12.498  51.033 -48.904  1.00  0.00     0.102 A 
HETATM    7  N1  UNL     1      12.141  52.163 -49.503  1.00  0.00    -0.296 N 
HETATM    8  C1  UNL     1      12.749  53.019 -50.480  1.00  0.00     0.177 C 
HETATM    9  N2  UNL     1      10.924  52.472 -49.028  1.00  0.00    -0.307 N 
HETATM   10  C2  UNL     1      10.498  51.592 -48.159  1.00  0.00     0.145 A 
ATOM     11  H2  UNL     1      10.394  53.297 -49.311  1.00  0.00     0.186 HD
HETATM   12  C3  UNL     1      11.485  50.626 -48.037  1.00  0.00     0.146 A 
BRANCH  12  13
HETATM   13  N3  UNL     1      11.433  49.475 -47.183  1.00  0.00    -0.112 N 
HETATM   14  O1  UNL     1      10.742  48.498 -47.496  1.00  0.00    -0.532 OA
HETATM   15  O2  UNL     1      12.130  49.422 -46.000  1.00  0.00    -0.532 OA
ENDBRANCH  12  13
ENDBRANCH   5   6
BRANCH   5  16
HETATM   16  N4  UNL     1      14.312  49.705 -47.941  1.00  0.00    -0.061 N 
ATOM     17  H43 UNL     1      15.190  50.159 -47.689  1.00  0.00     0.275 HD
ATOM     18  H42 UNL     1      13.752  49.940 -47.122  1.00  0.00     0.275 HD
ATOM     19  H41 UNL     1      14.440  48.695 -48.004  1.00  0.00     0.275 HD
ENDBRANCH   5  16
ENDBRANCH   1   5
BRANCH   3  20
HETATM   20  N6  UNL     1      14.220  48.935 -52.758  1.00  0.00    -0.059 N 
HETATM   21  C7  UNL     1      13.240  48.407 -53.449  1.00  0.00     0.705 A 
HETATM   22  N8  UNL     1      13.534  47.919 -54.702  1.00  0.00    -0.156 N 
HETATM   23  S1  UNL     1      15.152  48.207 -54.867  1.00  0.00     0.040 SA
ATOM     24  H8  UNL     1      12.901  47.483 -55.371  1.00  0.00     0.193 HD
HETATM   25  C8  UNL     1      15.458  48.934 -53.378  1.00  0.00     0.198 A 
BRANCH  21  26
HETATM   26  N7  UNL     1      12.004  48.127 -53.088  1.00  0.00    -0.232 N 
ATOM     27  H72 UNL     1      11.780  48.506 -52.167  1.00  0.00     0.174 HD
ATOM     28  H71 UNL     1      11.246  47.702 -53.621  1.00  0.00     0.174 HD
ENDBRANCH  21  26
BRANCH  25  29
HETATM   29  N9  UNL     1      16.588  49.403 -52.898  1.00  0.00    -0.377 N 
ATOM     30  H92 UNL     1      17.000  49.271 -51.975  1.00  0.00     0.158 HD
ATOM     31  H91 UNL     1      17.267  49.990 -53.382  1.00  0.00     0.158 HD
ENDBRANCH  25  29
ENDBRANCH   3  20
TORSDOF 7
ENDMDL
MODEL 2
REMARK VINA RESULT: -6.431372386      1.849      2.562
REMARK  7 active torsions:
REMARK  status: ('A' for Active; 'I' for Inactive)
REMARK    1  A    between atoms: C3_6  and  N3_7 
REMARK    2  A    between atoms: C4_10  and  C5_11 
REMARK    3  A    between atoms: C5_11  and  N4_12 
REMARK    4  A    between atoms: C5_11  and  C6_16 
REMARK       I    between atoms: C6_16  and  N5_18 
REMARK    5  A    between atoms: N5_18  and  N6_20 
REMARK    6  A    between atoms: C7_21  and  N7_22 
REMARK    7  A    between atoms: C8_28  and  N9_29 
ROOT
HETATM    1  C6  UNL     1      12.779  51.298 -50.055  1.00  0.00     0.273 C 
HETATM    2  O3  UNL     1      12.031  51.738 -50.928  1.00  0.00    -0.269 OA
HETATM    3  N5  UNL     1      13.877  50.499 -50.291  1.00  0.00    -0.244 N 
ATOM      4  H5  UNL     1      14.386  50.262 -49.439  1.00  0.00     0.191 HD
ENDROOT
BRANCH   1   5
HETATM    5  C5  UNL     1      12.388  51.712 -48.645  1.00  0.00     0.330 C 
BRANCH   5   6
HETATM    6  C4  UNL     1      11.476  50.775 -47.988  1.00  0.00     0.102 A 
HETATM    7  N1  UNL     1      10.171  50.958 -47.826  1.00  0.00    -0.296 N 
HETATM    8  C1  UNL     1       9.248  51.996 -48.183  1.00  0.00     0.177 C 
HETATM    9  N2  UNL     1       9.714  49.866 -47.192  1.00  0.00    -0.307 N 
HETATM   10  C2  UNL     1      10.669  49.005 -46.948  1.00  0.00     0.145 A 
ATOM     11  H2  UNL     1       8.738  49.724 -46.932  1.00  0.00     0.186 HD
HETATM   12  C3  UNL     1      11.844  49.545 -47.446  1.00  0.00     0.146 A 
BRANCH  12  13
HETATM   13  N3  UNL     1      13.141  48.935 -47.388  1.00  0.00    -0.112 N 
HETATM   14  O1  UNL     1      13.898  49.171 -46.438  1.00  0.00    -0.532 OA
HETATM   15  O2  UNL     1      13.586  48.088 -48.376  1.00  0.00    -0.532 OA
ENDBRANCH  12  13
ENDBRANCH   5   6
BRANCH   5  16
HETATM   16  N4  UNL     1      13.559  52.052 -47.870  1.00  0.00    -0.061 N 
ATOM     17  H43 UNL     1      14.274  52.465 -48.469  1.00  0.00     0.275 HD
ATOM     18  H42 UNL     1      13.363  52.844 -47.259  1.00  0.00     0.275 HD
ATOM     19  H41 UNL     1      13.951  51.278 -47.332  1.00  0.00     0.275 HD
ENDBRANCH   5  16
ENDBRANCH   1   5
BRANCH   3  20
HETATM   20  N6  UNL     1      14.456  49.936 -51.454  1.00  0.00    -0.059 N 
HETATM   21  C7  UNL     1      14.123  48.813 -52.040  1.00  0.00     0.705 A 
HETATM   22  N8  UNL     1      14.692  48.539 -53.263  1.00  0.00    -0.156 N 
HETATM   23  S1  UNL     1      15.667  49.842 -53.545  1.00  0.00     0.040 SA
ATOM     24  H8  UNL     1      14.546  47.722 -53.856  1.00  0.00     0.193 HD
HETATM   25  C8  UNL     1      15.362  50.725 -52.142  1.00  0.00     0.198 A 
BRANCH  21  26
HETATM   26  N7  UNL     1      13.416  47.798 -51.587  1.00  0.00    -0.232 N 
ATOM     27  H72 UNL     1      12.414  47.942 -51.716  1.00  0.00     0.174 HD
ATOM     28  H71 UNL     1      13.722  46.888 -51.242  1.00  0.00     0.174 HD
ENDBRANCH  21  26
BRANCH  25  29
HETATM   29  N9  UNL     1      15.848  51.888 -51.769  1.00  0.00    -0.377 N 
ATOM     30  H92 UNL     1      16.161  52.670 -52.344  1.00  0.00     0.158 HD
ATOM     31  H91 UNL     1      15.995  52.218 -50.816  1.00  0.00     0.158 HD
ENDBRANCH  25  29
ENDBRANCH   3  20
TORSDOF 7
ENDMDL
MODEL 3
REMARK VINA RESULT: -6.343685151      1.729      2.721
REMARK  7 active torsions:
REMARK  status: ('A' for Active; 'I' for Inactive)
REMARK    1  A    between atoms: C3_6  and  N3_7 
REMARK    2  A    between atoms: C4_10  and  C5_11 
REMARK    3  A    between atoms: C5_11  and  N4_12 
REMARK    4  A    between atoms: C5_11  and  C6_16 
REMARK       I    between atoms: C6_16  and  N5_18 
REMARK    5  A    between atoms: N5_18  and  N6_20 
REMARK    6  A    between atoms: C7_21  and  N7_22 
REMARK    7  A    between atoms: C8_28  and  N9_29 
ROOT
HETATM    1  C6  UNL     1      13.036  51.222 -50.389  1.00  0.00     0.273 C 
HETATM    2  O3  UNL     1      12.189  51.723 -51.128  1.00  0.00    -0.269 OA
HETATM    3  N5  UNL     1      14.063  50.405 -50.810  1.00  0.00    -0.244 N 
ATOM      4  H5  UNL     1      14.677  50.115 -50.049  1.00  0.00     0.191 HD
ENDROOT
BRANCH   1   5
HETATM    5  C5  UNL     1      12.859  51.581 -48.921  1.00  0.00     0.330 C 
BRANCH   5   6
HETATM    6  C4  UNL     1      11.845  50.779 -48.237  1.00  0.00     0.102 A 
HETATM    7  N1  UNL     1      10.593  51.154 -48.006  1.00  0.00    -0.296 N 
HETATM    8  C1  UNL     1       9.825  52.330 -48.298  1.00  0.00     0.177 C 
HETATM    9  N2  UNL     1      10.004  50.129 -47.371  1.00  0.00    -0.307 N 
HETATM   10  C2  UNL     1      10.824  49.127 -47.190  1.00  0.00     0.145 A 
ATOM     11  H2  UNL     1       9.030  50.131 -47.065  1.00  0.00     0.186 HD
HETATM   12  C3  UNL     1      12.044  49.493 -47.737  1.00  0.00     0.146 A 
BRANCH  12  13
HETATM   13  N3  UNL     1      13.233  48.690 -47.754  1.00  0.00    -0.112 N 
HETATM   14  O1  UNL     1      14.052  48.769 -46.830  1.00  0.00    -0.532 OA
HETATM   15  O2  UNL     1      13.506  47.827 -48.789  1.00  0.00    -0.532 OA
ENDBRANCH  12  13
ENDBRANCH   5   6
BRANCH   5  16
HETATM   16  N4  UNL     1      14.138  51.630 -48.250  1.00  0.00    -0.061 N 
ATOM     17  H43 UNL     1      14.791  50.976 -48.682  1.00  0.00     0.275 HD
ATOM     18  H42 UNL     1      14.612  52.510 -48.453  1.00  0.00     0.275 HD
ATOM     19  H41 UNL     1      14.095  51.476 -47.243  1.00  0.00     0.275 HD
ENDBRANCH   5  16
ENDBRANCH   1   5
BRANCH   3  20
HETATM   20  N6  UNL     1      14.454  49.881 -52.065  1.00  0.00    -0.059 N 
HETATM   21  C7  UNL     1      15.247  50.439 -52.945  1.00  0.00     0.705 A 
HETATM   22  N8  UNL     1      15.641  49.678 -54.022  1.00  0.00    -0.156 N 
HETATM   23  S1  UNL     1      14.893  48.227 -53.774  1.00  0.00     0.040 SA
ATOM     24  H8  UNL     1      16.251  49.948 -54.794  1.00  0.00     0.193 HD
HETATM   25  C8  UNL     1      14.095  48.570 -52.330  1.00  0.00     0.198 A 
BRANCH  21  26
HETATM   26  N7  UNL     1      15.640  51.692 -53.056  1.00  0.00    -0.232 N 
ATOM     27  H72 UNL     1      16.652  51.767 -53.164  1.00  0.00     0.174 HD
ATOM     28  H71 UNL     1      15.090  52.545 -53.154  1.00  0.00     0.174 HD
ENDBRANCH  21  26
BRANCH  25  29
HETATM   29  N9  UNL     1      13.317  47.796 -51.605  1.00  0.00    -0.377 N 
ATOM     30  H92 UNL     1      12.901  46.896 -51.844  1.00  0.00     0.158 HD
ATOM     31  H91 UNL     1      12.994  47.965 -50.653  1.00  0.00     0.158 HD
ENDBRANCH  25  29
ENDBRANCH   3  20
TORSDOF 7
ENDMDL
MODEL 4
REMARK VINA RESULT: -6.307789451      1.822      2.605
REMARK  7 active torsions:
REMARK  status: ('A' for Active; 'I' for Inactive)
REMARK    1  A    between atoms: C3_6  and  N3_7 
REMARK    2  A    between atoms: C4_10  and  C5_11 
REMARK    3  A    between atoms: C5_11  and  N4_12 
REMARK    4  A    between atoms: C5_11  and  C6_16 
REMARK       I    between atoms: C6_16  and  N5_18 
REMARK    5  A    between atoms: N5_18  and  N6_20 
REMARK    6  A    between atoms: C7_21  and  N7_22 
REMARK    7  A    between atoms: C8_28  and  N9_29 
ROOT
HETATM    1  C6  UNL     1      13.802  49.492 -50.452  1.00  0.00     0.273 C 
HETATM    2  O3  UNL     1      13.265  48.446 -50.088  1.00  0.00    -0.269 OA
HETATM    3  N5  UNL     1      14.259  49.739 -51.729  1.00  0.00    -0.244 N 
ATOM      4  H5  UNL     1      14.648  50.676 -51.837  1.00  0.00     0.191 HD
ENDROOT
BRANCH   1   5
HETATM    5  C5  UNL     1      13.934  50.531 -49.349  1.00  0.00     0.330 C 
BRANCH   5   6
HETATM    6  C4  UNL     1      12.654  51.080 -48.901  1.00  0.00     0.102 A 
HETATM    7  N1  UNL     1      11.987  50.694 -47.820  1.00  0.00    -0.296 N 
HETATM    8  C1  UNL     1      12.216  49.725 -46.789  1.00  0.00     0.177 C 
HETATM    9  N2  UNL     1      10.880  51.453 -47.771  1.00  0.00    -0.307 N 
HETATM   10  C2  UNL     1      10.819  52.298 -48.768  1.00  0.00     0.145 A 
ATOM     11  H2  UNL     1      10.171  51.380 -47.041  1.00  0.00     0.186 HD
HETATM   12  C3  UNL     1      11.953  52.101 -49.541  1.00  0.00     0.146 A 
BRANCH  12  13
HETATM   13  N3  UNL     1      12.288  52.814 -50.740  1.00  0.00    -0.112 N 
HETATM   14  O1  UNL     1      11.611  52.663 -51.764  1.00  0.00    -0.532 OA
HETATM   15  O2  UNL     1      13.363  53.668 -50.795  1.00  0.00    -0.532 OA
ENDBRANCH  12  13
ENDBRANCH   5   6
BRANCH   5  16
HETATM   16  N4  UNL     1      14.781  50.041 -48.285  1.00  0.00    -0.061 N 
ATOM     17  H43 UNL     1      14.563  50.518 -47.410  1.00  0.00     0.275 HD
ATOM     18  H42 UNL     1      14.522  49.088 -48.035  1.00  0.00     0.275 HD
ATOM     19  H41 UNL     1      15.781  50.097 -48.481  1.00  0.00     0.275 HD
ENDBRANCH   5  16
ENDBRANCH   1   5
BRANCH   3  20
HETATM   20  N6  UNL     1      14.308  48.980 -52.923  1.00  0.00    -0.059 N 
HETATM   21  C7  UNL     1      13.304  48.414 -53.544  1.00  0.00     0.705 A 
HETATM   22  N8  UNL     1      13.545  47.874 -54.787  1.00  0.00    -0.156 N 
HETATM   23  S1  UNL     1      15.150  48.167 -55.039  1.00  0.00     0.040 SA
ATOM     24  H8  UNL     1      12.886  47.403 -55.407  1.00  0.00     0.193 HD
HETATM   25  C8  UNL     1      15.516  48.962 -53.598  1.00  0.00     0.198 A 
BRANCH  21  26
HETATM   26  N7  UNL     1      12.088  48.140 -53.115  1.00  0.00    -0.232 N 
ATOM     27  H72 UNL     1      11.660  47.377 -53.640  1.00  0.00     0.174 HD
ATOM     28  H71 UNL     1      11.585  48.495 -52.301  1.00  0.00     0.174 HD
ENDBRANCH  21  26
BRANCH  25  29
HETATM   29  N9  UNL     1      16.663  49.461 -53.192  1.00  0.00    -0.377 N 
ATOM     30  H92 UNL     1      16.874  50.401 -52.857  1.00  0.00     0.158 HD
ATOM     31  H91 UNL     1      17.560  48.980 -53.136  1.00  0.00     0.158 HD
ENDBRANCH  25  29
ENDBRANCH   3  20
TORSDOF 7
ENDMDL
MODEL 5
REMARK VINA RESULT: -6.306460413      2.837      5.725
REMARK  7 active torsions:
REMARK  status: ('A' for Active; 'I' for Inactive)
REMARK    1  A    between atoms: C3_6  and  N3_7 
REMARK    2  A    between atoms: C4_10  and  C5_11 
REMARK    3  A    between atoms: C5_11  and  N4_12 
REMARK    4  A    between atoms: C5_11  and  C6_16 
REMARK       I    between atoms: C6_16  and  N5_18 
REMARK    5  A    between atoms: N5_18  and  N6_20 
REMARK    6  A    between atoms: C7_21  and  N7_22 
REMARK    7  A    between atoms: C8_28  and  N9_29 
ROOT
HETATM    1  C6  UNL     1      13.388  51.512 -49.643  1.00  0.00     0.273 C 
HETATM    2  O3  UNL     1      14.213  51.786 -48.771  1.00  0.00    -0.269 OA
HETATM    3  N5  UNL     1      12.177  50.894 -49.413  1.00  0.00    -0.244 N 
ATOM      4  H5  UNL     1      11.623  50.780 -50.262  1.00  0.00     0.191 HD
ENDROOT
BRANCH   1   5
HETATM    5  C5  UNL     1      13.818  51.916 -51.044  1.00  0.00     0.330 C 
BRANCH   5   6
HETATM    6  C4  UNL     1      14.724  50.960 -51.681  1.00  0.00     0.102 A 
HETATM    7  N1  UNL     1      15.946  51.232 -52.121  1.00  0.00    -0.296 N 
HETATM    8  C1  UNL     1      16.769  52.407 -52.142  1.00  0.00     0.177 C 
HETATM    9  N2  UNL     1      16.431  50.084 -52.619  1.00  0.00    -0.307 N 
HETATM   10  C2  UNL     1      15.573  49.103 -52.515  1.00  0.00     0.145 A 
ATOM     11  H2  UNL     1      17.360  49.988 -53.031  1.00  0.00     0.186 HD
HETATM   12  C3  UNL     1      14.437  49.615 -51.909  1.00  0.00     0.146 A 
BRANCH  12  13
HETATM   13  N3  UNL     1      13.242  48.881 -51.605  1.00  0.00    -0.112 N 
HETATM   14  O1  UNL     1      13.261  47.984 -50.754  1.00  0.00    -0.532 OA
HETATM   15  O2  UNL     1      12.054  49.138 -52.248  1.00  0.00    -0.532 OA
ENDBRANCH  12  13
ENDBRANCH   5   6
BRANCH   5  16
HETATM   16  N4  UNL     1      12.672  52.282 -51.845  1.00  0.00    -0.061 N 
ATOM     17  H43 UNL     1      12.674  51.766 -52.725  1.00  0.00     0.275 HD
ATOM     18  H42 UNL     1      11.817  51.915 -51.428  1.00  0.00     0.275 HD
ATOM     19  H41 UNL     1      12.579  53.282 -52.020  1.00  0.00     0.275 HD
ENDBRANCH   5  16
ENDBRANCH   1   5
BRANCH   3  20
HETATM   20  N6  UNL     1      11.533  50.384 -48.261  1.00  0.00    -0.059 N 
HETATM   21  C7  UNL     1      10.368  50.740 -47.780  1.00  0.00     0.705 A 
HETATM   22  N8  UNL     1       9.846  49.990 -46.751  1.00  0.00    -0.156 N 
HETATM   23  S1  UNL     1      10.992  48.830 -46.488  1.00  0.00     0.040 SA
ATOM     24  H8  UNL     1       8.960  50.120 -46.264  1.00  0.00     0.193 HD
HETATM   25  C8  UNL     1      12.116  49.280 -47.661  1.00  0.00     0.198 A 
BRANCH  21  26
HETATM   26  N7  UNL     1       9.641  51.811 -48.028  1.00  0.00    -0.232 N 
ATOM     27  H72 UNL     1       8.889  51.928 -47.349  1.00  0.00     0.174 HD
ATOM     28  H71 UNL     1       9.787  52.559 -48.706  1.00  0.00     0.174 HD
ENDBRANCH  21  26
BRANCH  25  29
HETATM   29  N9  UNL     1      13.272  48.730 -47.960  1.00  0.00    -0.377 N 
ATOM     30  H92 UNL     1      13.977  49.034 -48.631  1.00  0.00     0.158 HD
ATOM     31  H91 UNL     1      13.675  47.884 -47.557  1.00  0.00     0.158 HD
ENDBRANCH  25  29
ENDBRANCH   3  20
TORSDOF 7
ENDMDL
