MODEL 1
REMARK VINA RESULT: -7.782609943      0.000      0.000
REMARK  4 active torsions:
REMARK  status: ('A' for Active; 'I' for Inactive)
REMARK    1  A    between atoms: C4_8  and  C5_9 
REMARK    2  A    between atoms: C6_17  and  C7_18 
REMARK       I    between atoms: C7_18  and  N8_20 
REMARK    3  A    between atoms: N8_20  and  N9_22 
REMARK    4  A    between atoms: C8_24  and  C9_25 
ROOT
HETATM    1  N1  UNL     1      17.790  47.779 -48.307  1.00  0.00    -0.191 NA
HETATM    2  C1  UNL     1      16.774  48.178 -47.888  1.00  0.00     0.104 C 
HETATM    3  C2  UNL     1      15.532  48.653 -47.337  1.00  0.00     0.103 A 
HETATM    4  C3  UNL     1      15.346  48.973 -46.006  1.00  0.00     0.139 A 
HETATM    5  N2  UNL     1      16.371  48.907 -44.998  1.00  0.00    -0.081 NA
HETATM    6  N3  UNL     1      14.100  49.334 -45.845  1.00  0.00    -0.340 N 
ATOM      7  H3  UNL     1      13.705  49.620 -44.949  1.00  0.00     0.167 HD
HETATM    8  C4  UNL     1      13.384  49.286 -47.007  1.00  0.00     0.098 A 
HETATM    9  C6  UNL     1      14.317  48.847 -47.960  1.00  0.00     0.088 A 
ENDROOT
BRANCH   9  10
HETATM   10  C7  UNL     1      14.085  48.672 -49.371  1.00  0.00     0.274 C 
HETATM   11  O1  UNL     1      13.278  47.807 -49.786  1.00  0.00    -0.266 OA
HETATM   12  N8  UNL     1      14.720  49.434 -50.382  1.00  0.00    -0.266 N 
ATOM     13  H8  UNL     1      15.382  50.162 -50.113  1.00  0.00     0.190 HD
BRANCH  12  14
HETATM   14  N9  UNL     1      14.459  49.213 -51.753  1.00  0.00    -0.305 N 
HETATM   15  C8  UNL     1      15.374  48.845 -52.568  1.00  0.00     0.158 C 
ATOM     16  H9  UNL     1      13.512  49.351 -52.103  1.00  0.00     0.186 HD
BRANCH  15  17
HETATM   17  C9  UNL     1      15.044  48.634 -53.962  1.00  0.00     0.154 A 
HETATM   18  N10 UNL     1      13.926  48.088 -54.466  1.00  0.00    -0.268 N 
HETATM   19  N11 UNL     1      14.034  48.086 -55.771  1.00  0.00    -0.227 N 
ATOM     20  H10 UNL     1      13.133  47.737 -53.928  1.00  0.00     0.190 HD
HETATM   21  N12 UNL     1      15.188  48.613 -56.154  1.00  0.00    -0.227 N 
ATOM     22  H11 UNL     1      13.323  47.726 -56.409  1.00  0.00     0.210 HD
HETATM   23  N13 UNL     1      15.805  48.948 -55.037  1.00  0.00    -0.268 N 
ATOM     24  H12 UNL     1      15.527  48.734 -57.108  1.00  0.00     0.210 HD
ATOM     25  H13 UNL     1      16.727  49.382 -54.990  1.00  0.00     0.190 HD
ENDBRANCH  15  17
ENDBRANCH  12  14
ENDBRANCH   9  10
BRANCH   8  26
HETATM   26  C5  UNL     1      11.999  49.639 -47.142  1.00  0.00     0.162 A 
HETATM   27  N4  UNL     1      11.572  50.871 -47.557  1.00  0.00    -0.270 N 
HETATM   28  N5  UNL     1      10.254  50.906 -47.601  1.00  0.00    -0.225 N 
ATOM     29  H4  UNL     1      12.185  51.649 -47.799  1.00  0.00     0.190 HD
HETATM   30  N6  UNL     1       9.817  49.712 -47.218  1.00  0.00    -0.005 NA
ATOM     31  H5  UNL     1       9.678  51.702 -47.876  1.00  0.00     0.205 HD
HETATM   32  N7  UNL     1      10.883  48.965 -46.948  1.00  0.00    -0.265 N 
ATOM     33  H7  UNL     1      10.844  47.996 -46.632  1.00  0.00     0.186 HD
ENDBRANCH   8  26
TORSDOF 4
ENDMDL
MODEL 2
REMARK VINA RESULT: -7.767807579      1.695      6.698
REMARK  4 active torsions:
REMARK  status: ('A' for Active; 'I' for Inactive)
REMARK    1  A    between atoms: C4_8  and  C5_9 
REMARK    2  A    between atoms: C6_17  and  C7_18 
REMARK       I    between atoms: C7_18  and  N8_20 
REMARK    3  A    between atoms: N8_20  and  N9_22 
REMARK    4  A    between atoms: C8_24  and  C9_25 
ROOT
HETATM    1  N1  UNL     1      17.136  48.267 -47.742  1.00  0.00    -0.191 NA
HETATM    2  C1  UNL     1      16.983  48.149 -48.896  1.00  0.00     0.104 C 
HETATM    3  C2  UNL     1      16.833  48.015 -50.321  1.00  0.00     0.103 A 
HETATM    4  C3  UNL     1      17.855  47.658 -51.178  1.00  0.00     0.139 A 
HETATM    5  N2  UNL     1      19.196  47.341 -50.764  1.00  0.00    -0.081 NA
HETATM    6  N3  UNL     1      17.384  47.665 -52.398  1.00  0.00    -0.340 N 
ATOM      7  H3  UNL     1      17.941  47.436 -53.221  1.00  0.00     0.167 HD
HETATM    8  C4  UNL     1      16.064  48.012 -52.450  1.00  0.00     0.098 A 
HETATM    9  C6  UNL     1      15.721  48.235 -51.107  1.00  0.00     0.088 A 
ENDROOT
BRANCH   9  10
HETATM   10  C7  UNL     1      14.417  48.582 -50.600  1.00  0.00     0.274 C 
HETATM   11  O1  UNL     1      13.465  47.770 -50.671  1.00  0.00    -0.266 OA
HETATM   12  N8  UNL     1      14.104  49.823 -49.995  1.00  0.00    -0.266 N 
ATOM     13  H8  UNL     1      14.835  50.527 -49.897  1.00  0.00     0.190 HD
BRANCH  12  14
HETATM   14  N9  UNL     1      12.804  50.112 -49.522  1.00  0.00    -0.305 N 
HETATM   15  C8  UNL     1      12.553  50.276 -48.279  1.00  0.00     0.158 C 
ATOM     16  H9  UNL     1      12.041  50.191 -50.194  1.00  0.00     0.186 HD
BRANCH  15  17
HETATM   17  C9  UNL     1      11.200  50.570 -47.857  1.00  0.00     0.154 A 
HETATM   18  N10 UNL     1      10.350  49.762 -47.204  1.00  0.00    -0.268 N 
HETATM   19  N11 UNL     1       9.233  50.418 -47.018  1.00  0.00    -0.227 N 
ATOM     20  H10 UNL     1      10.542  48.805 -46.905  1.00  0.00     0.190 HD
HETATM   21  N12 UNL     1       9.308  51.639 -47.528  1.00  0.00    -0.227 N 
ATOM     22  H11 UNL     1       8.412  50.040 -46.545  1.00  0.00     0.210 HD
HETATM   23  N13 UNL     1      10.520  51.727 -48.043  1.00  0.00    -0.268 N 
ATOM     24  H12 UNL     1       8.585  52.358 -47.523  1.00  0.00     0.210 HD
ATOM     25  H13 UNL     1      10.893  52.551 -48.514  1.00  0.00     0.190 HD
ENDBRANCH  15  17
ENDBRANCH  12  14
ENDBRANCH   9  10
BRANCH   8  26
HETATM   26  C5  UNL     1      15.274  48.092 -53.646  1.00  0.00     0.162 A 
HETATM   27  N4  UNL     1      13.956  47.729 -53.705  1.00  0.00    -0.270 N 
HETATM   28  N5  UNL     1      13.484  47.919 -54.922  1.00  0.00    -0.225 N 
ATOM     29  H4  UNL     1      13.417  47.365 -52.920  1.00  0.00     0.190 HD
HETATM   30  N6  UNL     1      14.479  48.401 -55.658  1.00  0.00    -0.005 NA
ATOM     31  H5  UNL     1      12.532  47.731 -55.239  1.00  0.00     0.205 HD
HETATM   32  N7  UNL     1      15.547  48.498 -54.870  1.00  0.00    -0.265 N 
ATOM     33  H7  UNL     1      16.458  48.841 -55.173  1.00  0.00     0.186 HD
ENDBRANCH   8  26
TORSDOF 4
ENDMDL
MODEL 3
REMARK VINA RESULT: -7.650189293      2.485      7.230
REMARK  4 active torsions:
REMARK  status: ('A' for Active; 'I' for Inactive)
REMARK    1  A    between atoms: C4_8  and  C5_9 
REMARK    2  A    between atoms: C6_17  and  C7_18 
REMARK       I    between atoms: C7_18  and  N8_20 
REMARK    3  A    between atoms: N8_20  and  N9_22 
REMARK    4  A    between atoms: C8_24  and  C9_25 
ROOT
HETATM    1  N1  UNL     1      17.139  53.740 -50.666  1.00  0.00    -0.191 NA
HETATM    2  C1  UNL     1      16.739  52.852 -51.314  1.00  0.00     0.104 C 
HETATM    3  C2  UNL     1      16.246  51.783 -52.143  1.00  0.00     0.103 A 
HETATM    4  C3  UNL     1      16.525  51.656 -53.489  1.00  0.00     0.139 A 
HETATM    5  N2  UNL     1      17.368  52.549 -54.239  1.00  0.00    -0.081 NA
HETATM    6  N3  UNL     1      15.895  50.600 -53.936  1.00  0.00    -0.340 N 
ATOM      7  H3  UNL     1      15.936  50.285 -54.905  1.00  0.00     0.167 HD
HETATM    8  C4  UNL     1      15.176  49.966 -52.964  1.00  0.00     0.098 A 
HETATM    9  C6  UNL     1      15.410  50.737 -51.814  1.00  0.00     0.088 A 
ENDROOT
BRANCH   9  10
HETATM   10  C7  UNL     1      14.917  50.471 -50.486  1.00  0.00     0.274 C 
HETATM   11  O1  UNL     1      15.493  49.641 -49.743  1.00  0.00    -0.266 OA
HETATM   12  N8  UNL     1      13.783  51.100 -49.918  1.00  0.00    -0.266 N 
ATOM     13  H8  UNL     1      13.272  51.792 -50.466  1.00  0.00     0.190 HD
BRANCH  12  14
HETATM   14  N9  UNL     1      13.340  50.793 -48.612  1.00  0.00    -0.305 N 
HETATM   15  C8  UNL     1      12.291  50.094 -48.397  1.00  0.00     0.158 C 
ATOM     16  H9  UNL     1      13.874  51.139 -47.816  1.00  0.00     0.186 HD
BRANCH  15  17
HETATM   17  C9  UNL     1      11.888  49.813 -47.035  1.00  0.00     0.154 A 
HETATM   18  N10 UNL     1      10.726  49.286 -46.615  1.00  0.00    -0.268 N 
HETATM   19  N11 UNL     1      10.773  49.201 -45.309  1.00  0.00    -0.227 N 
ATOM     20  H10 UNL     1       9.946  49.003 -47.208  1.00  0.00     0.190 HD
HETATM   21  N12 UNL     1      11.928  49.655 -44.843  1.00  0.00    -0.227 N 
ATOM     22  H11 UNL     1      10.020  48.834 -44.727  1.00  0.00     0.210 HD
HETATM   23  N13 UNL     1      12.609  50.030 -45.910  1.00  0.00    -0.268 N 
ATOM     24  H12 UNL     1      12.227  49.703 -43.870  1.00  0.00     0.210 HD
ATOM     25  H13 UNL     1      13.548  50.427 -45.889  1.00  0.00     0.190 HD
ENDBRANCH  15  17
ENDBRANCH  12  14
ENDBRANCH   9  10
BRANCH   8  26
HETATM   26  C5  UNL     1      14.396  48.775 -53.153  1.00  0.00     0.162 A 
HETATM   27  N4  UNL     1      13.880  48.041 -52.120  1.00  0.00    -0.270 N 
HETATM   28  N5  UNL     1      13.199  47.012 -52.588  1.00  0.00    -0.225 N 
ATOM     29  H4  UNL     1      14.003  48.259 -51.132  1.00  0.00     0.190 HD
HETATM   30  N6  UNL     1      13.267  47.067 -53.913  1.00  0.00    -0.005 NA
ATOM     31  H5  UNL     1      12.712  46.306 -52.035  1.00  0.00     0.205 HD
HETATM   32  N7  UNL     1      13.991  48.136 -54.231  1.00  0.00    -0.265 N 
ATOM     33  H7  UNL     1      14.205  48.424 -55.186  1.00  0.00     0.186 HD
ENDBRANCH   8  26
TORSDOF 4
ENDMDL
MODEL 4
REMARK VINA RESULT: -7.613490976      2.444      8.335
REMARK  4 active torsions:
REMARK  status: ('A' for Active; 'I' for Inactive)
REMARK    1  A    between atoms: C4_8  and  C5_9 
REMARK    2  A    between atoms: C6_17  and  C7_18 
REMARK       I    between atoms: C7_18  and  N8_20 
REMARK    3  A    between atoms: N8_20  and  N9_22 
REMARK    4  A    between atoms: C8_24  and  C9_25 
ROOT
HETATM    1  N1  UNL     1      12.456  47.779 -53.849  1.00  0.00    -0.191 NA
HETATM    2  C1  UNL     1      13.599  47.964 -54.018  1.00  0.00     0.104 C 
HETATM    3  C2  UNL     1      15.003  48.167 -54.258  1.00  0.00     0.103 A 
HETATM    4  C3  UNL     1      15.589  48.133 -55.509  1.00  0.00     0.139 A 
HETATM    5  N2  UNL     1      14.876  47.922 -56.741  1.00  0.00    -0.081 NA
HETATM    6  N3  UNL     1      16.874  48.321 -55.360  1.00  0.00    -0.340 N 
ATOM      7  H3  UNL     1      17.536  48.340 -56.136  1.00  0.00     0.167 HD
HETATM    8  C4  UNL     1      17.233  48.491 -54.054  1.00  0.00     0.098 A 
HETATM    9  C6  UNL     1      16.020  48.389 -53.355  1.00  0.00     0.088 A 
ENDROOT
BRANCH   9  10
HETATM   10  C7  UNL     1      15.833  48.543 -51.934  1.00  0.00     0.274 C 
HETATM   11  O1  UNL     1      16.265  47.681 -51.133  1.00  0.00    -0.266 OA
HETATM   12  N8  UNL     1      15.171  49.642 -51.334  1.00  0.00    -0.266 N 
ATOM     13  H8  UNL     1      14.802  50.385 -51.927  1.00  0.00     0.190 HD
BRANCH  12  14
HETATM   14  N9  UNL     1      15.009  49.736 -49.933  1.00  0.00    -0.305 N 
HETATM   15  C8  UNL     1      13.856  49.829 -49.387  1.00  0.00     0.158 C 
ATOM     16  H9  UNL     1      15.838  49.730 -49.339  1.00  0.00     0.186 HD
BRANCH  15  17
HETATM   17  C9  UNL     1      13.755  49.922 -47.946  1.00  0.00     0.154 A 
HETATM   18  N10 UNL     1      14.484  49.266 -47.028  1.00  0.00    -0.268 N 
HETATM   19  N11 UNL     1      14.071  49.640 -45.844  1.00  0.00    -0.227 N 
ATOM     20  H10 UNL     1      15.229  48.595 -47.221  1.00  0.00     0.190 HD
HETATM   21  N12 UNL     1      13.088  50.525 -45.941  1.00  0.00    -0.227 N 
ATOM     22  H11 UNL     1      14.454  49.297 -44.963  1.00  0.00     0.210 HD
HETATM   23  N13 UNL     1      12.899  50.694 -47.236  1.00  0.00    -0.268 N 
ATOM     24  H12 UNL     1      12.586  50.978 -45.178  1.00  0.00     0.210 HD
ATOM     25  H13 UNL     1      12.204  51.319 -47.645  1.00  0.00     0.190 HD
ENDBRANCH  15  17
ENDBRANCH  12  14
ENDBRANCH   9  10
BRANCH   8  26
HETATM   26  C5  UNL     1      18.570  48.730 -53.586  1.00  0.00     0.162 A 
HETATM   27  N4  UNL     1      19.668  48.077 -54.075  1.00  0.00    -0.270 N 
HETATM   28  N5  UNL     1      20.760  48.506 -53.473  1.00  0.00    -0.225 N 
ATOM     29  H4  UNL     1      19.645  47.362 -54.802  1.00  0.00     0.190 HD
HETATM   30  N6  UNL     1      20.387  49.431 -52.596  1.00  0.00    -0.005 NA
ATOM     31  H5  UNL     1      21.714  48.187 -53.647  1.00  0.00     0.205 HD
HETATM   32  N7  UNL     1      19.065  49.551 -52.682  1.00  0.00    -0.265 N 
ATOM     33  H7  UNL     1      18.506  50.194 -52.121  1.00  0.00     0.186 HD
ENDBRANCH   8  26
TORSDOF 4
ENDMDL
MODEL 5
REMARK VINA RESULT: -7.576779863      3.897      8.375
REMARK  4 active torsions:
REMARK  status: ('A' for Active; 'I' for Inactive)
REMARK    1  A    between atoms: C4_8  and  C5_9 
REMARK    2  A    between atoms: C6_17  and  C7_18 
REMARK       I    between atoms: C7_18  and  N8_20 
REMARK    3  A    between atoms: N8_20  and  N9_22 
REMARK    4  A    between atoms: C8_24  and  C9_25 
ROOT
HETATM    1  N1  UNL     1      13.606  48.504 -50.383  1.00  0.00    -0.191 NA
HETATM    2  C1  UNL     1      14.155  48.473 -51.416  1.00  0.00     0.104 C 
HETATM    3  C2  UNL     1      14.812  48.400 -52.695  1.00  0.00     0.103 A 
HETATM    4  C3  UNL     1      14.253  47.829 -53.822  1.00  0.00     0.139 A 
HETATM    5  N2  UNL     1      12.932  47.261 -53.882  1.00  0.00    -0.081 NA
HETATM    6  N3  UNL     1      15.128  47.903 -54.790  1.00  0.00    -0.340 N 
ATOM      7  H3  UNL     1      14.960  47.550 -55.733  1.00  0.00     0.167 HD
HETATM    8  C4  UNL     1      16.291  48.504 -54.404  1.00  0.00     0.098 A 
HETATM    9  C6  UNL     1      16.075  48.820 -53.053  1.00  0.00     0.088 A 
ENDROOT
BRANCH   9  10
HETATM   10  C7  UNL     1      16.984  49.516 -52.178  1.00  0.00     0.274 C 
HETATM   11  O1  UNL     1      18.013  48.949 -51.740  1.00  0.00    -0.266 OA
HETATM   12  N8  UNL     1      16.809  50.854 -51.751  1.00  0.00    -0.266 N 
ATOM     13  H8  UNL     1      15.997  51.377 -52.077  1.00  0.00     0.190 HD
BRANCH  12  14
HETATM   14  N9  UNL     1      17.730  51.484 -50.884  1.00  0.00    -0.305 N 
HETATM   15  C8  UNL     1      18.179  52.660 -51.108  1.00  0.00     0.158 C 
ATOM     16  H9  UNL     1      18.047  50.984 -50.054  1.00  0.00     0.186 HD
BRANCH  15  17
HETATM   17  C9  UNL     1      19.121  53.252 -50.181  1.00  0.00     0.154 A 
HETATM   18  N10 UNL     1      18.858  54.094 -49.169  1.00  0.00    -0.268 N 
HETATM   19  N11 UNL     1      19.993  54.387 -48.584  1.00  0.00    -0.227 N 
ATOM     20  H10 UNL     1      17.937  54.444 -48.903  1.00  0.00     0.190 HD
HETATM   21  N12 UNL     1      21.005  53.767 -49.174  1.00  0.00    -0.227 N 
ATOM     22  H11 UNL     1      20.085  55.009 -47.781  1.00  0.00     0.210 HD
HETATM   23  N13 UNL     1      20.463  53.072 -50.156  1.00  0.00    -0.268 N 
ATOM     24  H12 UNL     1      21.992  53.818 -48.923  1.00  0.00     0.210 HD
ATOM     25  H13 UNL     1      20.983  52.480 -50.804  1.00  0.00     0.190 HD
ENDBRANCH  15  17
ENDBRANCH  12  14
ENDBRANCH   9  10
BRANCH   8  26
HETATM   26  C5  UNL     1      17.425  48.738 -55.253  1.00  0.00     0.162 A 
HETATM   27  N4  UNL     1      18.698  48.349 -54.935  1.00  0.00    -0.270 N 
HETATM   28  N5  UNL     1      19.532  48.681 -55.902  1.00  0.00    -0.225 N 
ATOM     29  H4  UNL     1      18.963  47.870 -54.075  1.00  0.00     0.190 HD
HETATM   30  N6  UNL     1      18.818  49.282 -56.846  1.00  0.00    -0.005 NA
ATOM     31  H5  UNL     1      20.538  48.508 -55.921  1.00  0.00     0.205 HD
HETATM   32  N7  UNL     1      17.553  49.305 -56.436  1.00  0.00    -0.265 N 
ATOM     33  H7  UNL     1      16.782  49.709 -56.967  1.00  0.00     0.186 HD
ENDBRANCH   8  26
TORSDOF 4
ENDMDL
