MODEL 1
REMARK VINA RESULT: -7.895681626      0.000      0.000
REMARK  8 active torsions:
REMARK  status: ('A' for Active; 'I' for Inactive)
REMARK    1  A    between atoms: C2_5  and  N2_6 
REMARK    2  A    between atoms: N2_6  and  C3_8 
REMARK    3  A    between atoms: C3_8  and  C4_9 
REMARK    4  A    between atoms: N3_14  and  N4_15 
REMARK    5  A    between atoms: C8_19  and  O3_20 
REMARK    6  A    between atoms: C11_30  and  O5_31 
REMARK    7  A    between atoms: N9_33  and  C12_34 
REMARK    8  A    between atoms: C14_37  and  C15_38 
ROOT
HETATM    1  N4  UNL     1      75.792  88.581 113.617  1.00  0.00    -0.192 NA
HETATM    2  C7  UNL     1      75.761  89.664 114.559  1.00  0.00     0.235 C 
HETATM    3  N5  UNL     1      75.119  89.321 115.794  1.00  0.00    -0.365 N 
ATOM      4  H5  UNL     1      75.550  89.568 116.685  1.00  0.00     0.158 HD
HETATM    5  C8  UNL     1      73.897  88.644 115.764  1.00  0.00     0.285 C 
HETATM    6  C9  UNL     1      72.923  89.002 114.741  1.00  0.00     0.287 C 
HETATM    7  O4  UNL     1      73.081  89.799 113.779  1.00  0.00    -0.267 OA
HETATM    8  N6  UNL     1      71.644  88.385 114.837  1.00  0.00    -0.297 N 
ATOM      9  H6  UNL     1      70.802  88.836 114.479  1.00  0.00     0.171 HD
HETATM   10  C10 UNL     1      71.597  87.087 115.466  1.00  0.00     0.194 C 
HETATM   11  N7  UNL     1      70.356  86.400 115.621  1.00  0.00    -0.063 NA
HETATM   12  N8  UNL     1      72.696  86.605 115.878  1.00  0.00    -0.310 N 
ATOM     13  H8  UNL     1      72.620  85.686 116.315  1.00  0.00     0.167 HD
HETATM   14  C11 UNL     1      74.007  87.128 115.832  1.00  0.00     0.282 C 
HETATM   15  N9  UNL     1      74.882  86.669 114.808  1.00  0.00    -0.299 N 
HETATM   16  C16 UNL     1      76.083  87.365 114.365  1.00  0.00     0.246 C 
ENDROOT
BRANCH   1  17
HETATM   17  N3  UNL     1      76.782  88.730 112.637  1.00  0.00    -0.295 N 
HETATM   18  C1  UNL     1      77.190  89.925 111.982  1.00  0.00     0.111 C 
HETATM   19  N1  UNL     1      76.546  90.995 111.853  1.00  0.00    -0.386 N 
HETATM   20  C2  UNL     1      78.551  89.630 111.486  1.00  0.00     0.151 C 
ATOM     21  H12 UNL     1      76.839  91.851 111.384  1.00  0.00     0.157 HD
ATOM     22  H11 UNL     1      75.607  91.198 112.196  1.00  0.00     0.157 HD
HETATM   23  C5  UNL     1      78.285  88.239 110.933  1.00  0.00     0.054 C 
HETATM   24  C6  UNL     1      77.586  87.609 112.120  1.00  0.00     0.147 C 
BRANCH  20  25
HETATM   25  N2  UNL     1      79.161  90.523 110.631  1.00  0.00    -0.382 N 
ATOM     26  H2  UNL     1      78.625  90.864 109.833  1.00  0.00     0.160 HD
BRANCH  25  27
HETATM   27  C3  UNL     1      80.464  90.990 110.789  1.00  0.00     0.169 C 
BRANCH  27  28
HETATM   28  C4  UNL     1      80.439  92.395 111.310  1.00  0.00     0.214 C 
HETATM   29  O1  UNL     1      79.971  92.577 112.457  1.00  0.00    -0.644 OA
HETATM   30  O2  UNL     1      80.912  93.469 110.564  1.00  0.00    -0.644 OA
ENDBRANCH  27  28
ENDBRANCH  25  27
ENDBRANCH  20  25
ENDBRANCH   1  17
BRANCH  15  31
HETATM   31  C12 UNL     1      74.597  85.408 114.120  1.00  0.00     0.115 A 
HETATM   32  C13 UNL     1      74.838  84.199 114.737  1.00  0.00     0.100 A 
HETATM   33  S1  UNL     1      74.374  83.091 113.520  1.00  0.00    -0.075 SA
HETATM   34  C14 UNL     1      73.907  84.207 112.316  1.00  0.00     0.141 A 
HETATM   35  N11 UNL     1      74.130  85.357 112.904  1.00  0.00    -0.332 N 
ATOM     36  H11 UNL     1      73.936  86.224 112.403  1.00  0.00     0.168 HD
BRANCH  34  37
HETATM   37  C15 UNL     1      73.397  83.850 110.983  1.00  0.00     0.288 C 
HETATM   38  N10 UNL     1      73.723  82.641 110.353  1.00  0.00    -0.055 NA
HETATM   39  O6  UNL     1      72.633  84.657 110.375  1.00  0.00    -0.269 OA
ENDBRANCH  34  37
ENDBRANCH  15  31
BRANCH   5  40
HETATM   40  O3  UNL     1      73.253  88.969 117.011  1.00  0.00    -0.358 OA
ATOM     41  H3  UNL     1      72.702  89.719 116.819  1.00  0.00     0.213 HD
ENDBRANCH   5  40
BRANCH  14  42
HETATM   42  O5  UNL     1      74.695  86.853 117.055  1.00  0.00    -0.349 OA
ATOM     43  H5  UNL     1      75.594  86.675 116.802  1.00  0.00     0.214 HD
ENDBRANCH  14  42
TORSDOF 8
ENDMDL
MODEL 2
REMARK VINA RESULT: -7.807961923      2.553      7.619
REMARK  8 active torsions:
REMARK  status: ('A' for Active; 'I' for Inactive)
REMARK    1  A    between atoms: C2_5  and  N2_6 
REMARK    2  A    between atoms: N2_6  and  C3_8 
REMARK    3  A    between atoms: C3_8  and  C4_9 
REMARK    4  A    between atoms: N3_14  and  N4_15 
REMARK    5  A    between atoms: C8_19  and  O3_20 
REMARK    6  A    between atoms: C11_30  and  O5_31 
REMARK    7  A    between atoms: N9_33  and  C12_34 
REMARK    8  A    between atoms: C14_37  and  C15_38 
ROOT
HETATM    1  N4  UNL     1      73.179  85.991 113.250  1.00  0.00    -0.192 NA
HETATM    2  C7  UNL     1      72.012  86.304 114.027  1.00  0.00     0.235 C 
HETATM    3  N5  UNL     1      71.981  87.664 114.477  1.00  0.00    -0.365 N 
ATOM      4  H5  UNL     1      71.130  88.219 114.384  1.00  0.00     0.158 HD
HETATM    5  C8  UNL     1      73.129  88.222 115.047  1.00  0.00     0.285 C 
HETATM    6  C9  UNL     1      73.952  87.391 115.917  1.00  0.00     0.287 C 
HETATM    7  O4  UNL     1      73.820  86.162 116.152  1.00  0.00    -0.267 OA
HETATM    8  N6  UNL     1      75.030  88.042 116.582  1.00  0.00    -0.297 N 
ATOM      9  H6  UNL     1      75.385  87.711 117.479  1.00  0.00     0.171 HD
HETATM   10  C10 UNL     1      75.597  89.194 115.923  1.00  0.00     0.194 C 
HETATM   11  N7  UNL     1      76.669  89.919 116.525  1.00  0.00    -0.063 NA
HETATM   12  N8  UNL     1      75.090  89.529 114.809  1.00  0.00    -0.310 N 
ATOM     13  H8  UNL     1      75.519  90.347 114.376  1.00  0.00     0.167 HD
HETATM   14  C11 UNL     1      74.032  88.959 114.069  1.00  0.00     0.282 C 
HETATM   15  N9  UNL     1      74.354  88.100 112.982  1.00  0.00    -0.299 N 
HETATM   16  C16 UNL     1      73.442  87.133 112.385  1.00  0.00     0.246 C 
ENDROOT
BRANCH   1  17
HETATM   17  N3  UNL     1      73.014  84.863 112.437  1.00  0.00    -0.295 N 
HETATM   18  C1  UNL     1      72.644  83.548 112.831  1.00  0.00     0.111 C 
HETATM   19  N1  UNL     1      72.743  83.024 113.967  1.00  0.00    -0.386 N 
HETATM   20  C2  UNL     1      72.110  82.928 111.599  1.00  0.00     0.151 C 
ATOM     21  H12 UNL     1      72.478  82.081 114.250  1.00  0.00     0.157 HD
ATOM     22  H11 UNL     1      73.113  83.452 114.817  1.00  0.00     0.157 HD
HETATM   23  C5  UNL     1      73.179  83.408 110.632  1.00  0.00     0.054 C 
HETATM   24  C6  UNL     1      73.209  84.882 110.976  1.00  0.00     0.147 C 
BRANCH  20  25
HETATM   25  N2  UNL     1      71.838  81.576 111.593  1.00  0.00    -0.382 N 
ATOM     26  H2  UNL     1      70.863  81.285 111.520  1.00  0.00     0.160 HD
BRANCH  25  27
HETATM   27  C3  UNL     1      72.811  80.584 111.679  1.00  0.00     0.169 C 
BRANCH  27  28
HETATM   28  C4  UNL     1      72.609  79.784 112.931  1.00  0.00     0.214 C 
HETATM   29  O1  UNL     1      73.461  79.909 113.840  1.00  0.00    -0.644 OA
HETATM   30  O2  UNL     1      71.526  78.928 113.095  1.00  0.00    -0.644 OA
ENDBRANCH  27  28
ENDBRANCH  25  27
ENDBRANCH  20  25
ENDBRANCH   1  17
BRANCH  15  31
HETATM   31  C12 UNL     1      75.689  88.157 112.381  1.00  0.00     0.115 A 
HETATM   32  C13 UNL     1      76.391  87.001 112.112  1.00  0.00     0.100 A 
HETATM   33  S1  UNL     1      77.847  87.623 111.467  1.00  0.00    -0.075 SA
HETATM   34  C14 UNL     1      77.488  89.288 111.572  1.00  0.00     0.141 A 
HETATM   35  N11 UNL     1      76.285  89.280 112.092  1.00  0.00    -0.332 N 
ATOM     36  H11 UNL     1      75.809  90.163 112.272  1.00  0.00     0.168 HD
BRANCH  34  37
HETATM   37  C15 UNL     1      78.386  90.376 111.155  1.00  0.00     0.288 C 
HETATM   38  N10 UNL     1      79.205  91.064 112.062  1.00  0.00    -0.055 NA
HETATM   39  O6  UNL     1      78.431  90.710 109.933  1.00  0.00    -0.269 OA
ENDBRANCH  34  37
ENDBRANCH  15  31
BRANCH   5  40
HETATM   40  O3  UNL     1      72.654  89.282 115.898  1.00  0.00    -0.358 OA
ATOM     41  H3  UNL     1      73.108  90.063 115.602  1.00  0.00     0.213 HD
ENDBRANCH   5  40
BRANCH  14  42
HETATM   42  O5  UNL     1      73.214  89.984 113.499  1.00  0.00    -0.349 OA
ATOM     43  H5  UNL     1      73.399  89.963 112.567  1.00  0.00     0.214 HD
ENDBRANCH  14  42
TORSDOF 8
ENDMDL
MODEL 3
REMARK VINA RESULT: -7.633968531      1.251      1.349
REMARK  8 active torsions:
REMARK  status: ('A' for Active; 'I' for Inactive)
REMARK    1  A    between atoms: C2_5  and  N2_6 
REMARK    2  A    between atoms: N2_6  and  C3_8 
REMARK    3  A    between atoms: C3_8  and  C4_9 
REMARK    4  A    between atoms: N3_14  and  N4_15 
REMARK    5  A    between atoms: C8_19  and  O3_20 
REMARK    6  A    between atoms: C11_30  and  O5_31 
REMARK    7  A    between atoms: N9_33  and  C12_34 
REMARK    8  A    between atoms: C14_37  and  C15_38 
ROOT
HETATM    1  N4  UNL     1      75.783  88.400 113.607  1.00  0.00    -0.192 NA
HETATM    2  C7  UNL     1      75.967  89.168 114.806  1.00  0.00     0.235 C 
HETATM    3  N5  UNL     1      75.373  88.562 115.962  1.00  0.00    -0.365 N 
ATOM      4  H5  UNL     1      75.895  88.496 116.835  1.00  0.00     0.158 HD
HETATM    5  C8  UNL     1      74.071  88.062 115.878  1.00  0.00     0.285 C 
HETATM    6  C9  UNL     1      73.085  88.803 115.101  1.00  0.00     0.287 C 
HETATM    7  O4  UNL     1      73.282  89.817 114.382  1.00  0.00    -0.267 OA
HETATM    8  N6  UNL     1      71.743  88.331 115.160  1.00  0.00    -0.297 N 
ATOM      9  H6  UNL     1      70.948  88.957 115.031  1.00  0.00     0.171 HD
HETATM   10  C10 UNL     1      71.563  86.921 115.412  1.00  0.00     0.194 C 
HETATM   11  N7  UNL     1      70.254  86.362 115.506  1.00  0.00    -0.063 NA
HETATM   12  N8  UNL     1      72.613  86.223 115.558  1.00  0.00    -0.310 N 
ATOM     13  H8  UNL     1      72.442  85.232 115.733  1.00  0.00     0.167 HD
HETATM   14  C11 UNL     1      73.976  86.587 115.517  1.00  0.00     0.282 C 
HETATM   15  N9  UNL     1      74.705  86.344 114.320  1.00  0.00    -0.299 N 
HETATM   16  C16 UNL     1      75.956  86.997 113.959  1.00  0.00     0.246 C 
ENDROOT
BRANCH   1  17
HETATM   17  N3  UNL     1      76.711  88.711 112.605  1.00  0.00    -0.295 N 
HETATM   18  C1  UNL     1      77.031  89.991 112.076  1.00  0.00     0.111 C 
HETATM   19  N1  UNL     1      76.335  91.035 112.104  1.00  0.00    -0.386 N 
HETATM   20  C2  UNL     1      78.376  89.823 111.485  1.00  0.00     0.151 C 
ATOM     21  H12 UNL     1      76.565  91.954 111.725  1.00  0.00     0.157 HD
ATOM     22  H11 UNL     1      75.407  91.151 112.512  1.00  0.00     0.157 HD
HETATM   23  C5  UNL     1      78.143  88.494 110.786  1.00  0.00     0.054 C 
HETATM   24  C6  UNL     1      77.536  87.697 111.923  1.00  0.00     0.147 C 
BRANCH  20  25
HETATM   25  N2  UNL     1      78.900  90.839 110.713  1.00  0.00    -0.382 N 
ATOM     26  H2  UNL     1      78.261  91.365 110.118  1.00  0.00     0.160 HD
BRANCH  25  27
HETATM   27  C3  UNL     1      80.248  91.189 110.696  1.00  0.00     0.169 C 
BRANCH  27  28
HETATM   28  C4  UNL     1      80.425  92.553 111.294  1.00  0.00     0.214 C 
HETATM   29  O1  UNL     1      80.034  92.721 112.471  1.00  0.00    -0.644 OA
HETATM   30  O2  UNL     1      80.995  93.603 110.584  1.00  0.00    -0.644 OA
ENDBRANCH  27  28
ENDBRANCH  25  27
ENDBRANCH  20  25
ENDBRANCH   1  17
BRANCH  15  31
HETATM   31  C12 UNL     1      74.203  85.370 113.348  1.00  0.00     0.115 A 
HETATM   32  C13 UNL     1      73.455  85.778 112.263  1.00  0.00     0.100 A 
HETATM   33  S1  UNL     1      73.115  84.287 111.498  1.00  0.00    -0.075 SA
HETATM   34  C14 UNL     1      73.928  83.247 112.580  1.00  0.00     0.141 A 
HETATM   35  N11 UNL     1      74.411  84.088 113.461  1.00  0.00    -0.332 N 
ATOM     36  H11 UNL     1      74.957  83.735 114.247  1.00  0.00     0.168 HD
BRANCH  34  37
HETATM   37  C15 UNL     1      73.999  81.783 112.454  1.00  0.00     0.288 C 
HETATM   38  N10 UNL     1      74.201  81.144 111.223  1.00  0.00    -0.055 NA
HETATM   39  O6  UNL     1      73.877  81.064 113.491  1.00  0.00    -0.269 OA
ENDBRANCH  34  37
ENDBRANCH  15  31
BRANCH   5  40
HETATM   40  O3  UNL     1      73.566  88.089 117.227  1.00  0.00    -0.358 OA
ATOM     41  H3  UNL     1      73.406  87.180 117.453  1.00  0.00     0.213 HD
ENDBRANCH   5  40
BRANCH  14  42
HETATM   42  O5  UNL     1      74.705  85.900 116.538  1.00  0.00    -0.349 OA
ATOM     43  H5  UNL     1      75.080  85.139 116.110  1.00  0.00     0.214 HD
ENDBRANCH  14  42
TORSDOF 8
ENDMDL
MODEL 4
REMARK VINA RESULT: -7.527286688      8.474     11.432
REMARK  8 active torsions:
REMARK  status: ('A' for Active; 'I' for Inactive)
REMARK    1  A    between atoms: C2_5  and  N2_6 
REMARK    2  A    between atoms: N2_6  and  C3_8 
REMARK    3  A    between atoms: C3_8  and  C4_9 
REMARK    4  A    between atoms: N3_14  and  N4_15 
REMARK    5  A    between atoms: C8_19  and  O3_20 
REMARK    6  A    between atoms: C11_30  and  O5_31 
REMARK    7  A    between atoms: N9_33  and  C12_34 
REMARK    8  A    between atoms: C14_37  and  C15_38 
ROOT
HETATM    1  N4  UNL     1      76.448  87.734 122.735  1.00  0.00    -0.192 NA
HETATM    2  C7  UNL     1      75.695  86.702 123.389  1.00  0.00     0.235 C 
HETATM    3  N5  UNL     1      76.221  86.347 124.675  1.00  0.00    -0.365 N 
ATOM      4  H5  UNL     1      75.599  86.250 125.477  1.00  0.00     0.158 HD
HETATM    5  C8  UNL     1      77.595  86.134 124.816  1.00  0.00     0.285 C 
HETATM    6  C9  UNL     1      78.313  85.458 123.743  1.00  0.00     0.287 C 
HETATM    7  O4  UNL     1      77.864  85.118 122.617  1.00  0.00    -0.267 OA
HETATM    8  N6  UNL     1      79.679  85.141 123.993  1.00  0.00    -0.297 N 
ATOM      9  H6  UNL     1      80.136  84.349 123.542  1.00  0.00     0.171 HD
HETATM   10  C10 UNL     1      80.384  85.998 124.915  1.00  0.00     0.194 C 
HETATM   11  N7  UNL     1      81.750  85.747 125.239  1.00  0.00    -0.063 NA
HETATM   12  N8  UNL     1      79.730  86.960 125.424  1.00  0.00    -0.310 N 
ATOM     13  H8  UNL     1      80.265  87.542 126.069  1.00  0.00     0.167 HD
HETATM   14  C11 UNL     1      78.388  87.360 125.245  1.00  0.00     0.282 C 
HETATM   15  N9  UNL     1      78.116  88.436 124.355  1.00  0.00    -0.299 N 
HETATM   16  C16 UNL     1      76.819  88.710 123.751  1.00  0.00     0.246 C 
ENDROOT
BRANCH   1  17
HETATM   17  N3  UNL     1      75.722  88.402 121.741  1.00  0.00    -0.295 N 
HETATM   18  C1  UNL     1      75.302  87.900 120.479  1.00  0.00     0.111 C 
HETATM   19  N1  UNL     1      75.776  86.933 119.835  1.00  0.00    -0.386 N 
HETATM   20  C2  UNL     1      74.171  88.771 120.091  1.00  0.00     0.151 C 
ATOM     21  H12 UNL     1      75.475  86.573 118.929  1.00  0.00     0.157 HD
ATOM     22  H11 UNL     1      76.556  86.333 120.103  1.00  0.00     0.157 HD
HETATM   23  C5  UNL     1      74.786  90.108 120.469  1.00  0.00     0.054 C 
HETATM   24  C6  UNL     1      75.262  89.797 121.873  1.00  0.00     0.147 C 
BRANCH  20  25
HETATM   25  N2  UNL     1      73.656  88.671 118.816  1.00  0.00    -0.382 N 
ATOM     26  H2  UNL     1      72.698  88.337 118.712  1.00  0.00     0.160 HD
BRANCH  25  27
HETATM   27  C3  UNL     1      74.361  88.999 117.660  1.00  0.00     0.169 C 
BRANCH  27  28
HETATM   28  C4  UNL     1      73.539  88.665 116.452  1.00  0.00     0.214 C 
HETATM   29  O1  UNL     1      72.673  87.769 116.574  1.00  0.00    -0.644 OA
HETATM   30  O2  UNL     1      73.718  89.311 115.234  1.00  0.00    -0.644 OA
ENDBRANCH  27  28
ENDBRANCH  25  27
ENDBRANCH  20  25
ENDBRANCH   1  17
BRANCH  15  31
HETATM   31  C12 UNL     1      79.187  89.367 123.993  1.00  0.00     0.115 A 
HETATM   32  C13 UNL     1      79.182  90.664 124.461  1.00  0.00     0.100 A 
HETATM   33  S1  UNL     1      80.593  91.300 123.734  1.00  0.00    -0.075 SA
HETATM   34  C14 UNL     1      81.102  89.906 122.891  1.00  0.00     0.141 A 
HETATM   35  N11 UNL     1      80.173  89.037 123.207  1.00  0.00    -0.332 N 
ATOM     36  H11 UNL     1      80.223  88.090 122.832  1.00  0.00     0.168 HD
BRANCH  34  37
HETATM   37  C15 UNL     1      82.303  89.820 122.045  1.00  0.00     0.288 C 
HETATM   38  N10 UNL     1      83.022  90.954 121.644  1.00  0.00    -0.055 NA
HETATM   39  O6  UNL     1      82.712  88.683 121.662  1.00  0.00    -0.269 OA
ENDBRANCH  34  37
ENDBRANCH  15  31
BRANCH   5  40
HETATM   40  O3  UNL     1      77.729  85.259 125.952  1.00  0.00    -0.358 OA
ATOM     41  H3  UNL     1      77.850  85.834 126.698  1.00  0.00     0.213 HD
ENDBRANCH   5  40
BRANCH  14  42
HETATM   42  O5  UNL     1      77.818  87.761 126.494  1.00  0.00    -0.349 OA
ATOM     43  H5  UNL     1      76.884  87.825 126.334  1.00  0.00     0.214 HD
ENDBRANCH  14  42
TORSDOF 8
ENDMDL
MODEL 5
REMARK VINA RESULT: -7.521805974      3.297      8.043
REMARK  8 active torsions:
REMARK  status: ('A' for Active; 'I' for Inactive)
REMARK    1  A    between atoms: C2_5  and  N2_6 
REMARK    2  A    between atoms: N2_6  and  C3_8 
REMARK    3  A    between atoms: C3_8  and  C4_9 
REMARK    4  A    between atoms: N3_14  and  N4_15 
REMARK    5  A    between atoms: C8_19  and  O3_20 
REMARK    6  A    between atoms: C11_30  and  O5_31 
REMARK    7  A    between atoms: N9_33  and  C12_34 
REMARK    8  A    between atoms: C14_37  and  C15_38 
ROOT
HETATM    1  N4  UNL     1      73.962  85.348 113.147  1.00  0.00    -0.192 NA
HETATM    2  C7  UNL     1      72.587  85.763 113.151  1.00  0.00     0.235 C 
HETATM    3  N5  UNL     1      72.386  87.060 112.575  1.00  0.00    -0.365 N 
ATOM      4  H5  UNL     1      71.635  87.214 111.902  1.00  0.00     0.158 HD
HETATM    5  C8  UNL     1      73.229  88.111 112.946  1.00  0.00     0.285 C 
HETATM    6  C9  UNL     1      73.659  88.207 114.336  1.00  0.00     0.287 C 
HETATM    7  O4  UNL     1      73.447  87.380 115.261  1.00  0.00    -0.267 OA
HETATM    8  N6  UNL     1      74.401  89.368 114.693  1.00  0.00    -0.297 N 
ATOM      9  H6  UNL     1      74.386  89.743 115.641  1.00  0.00     0.171 HD
HETATM   10  C10 UNL     1      75.175  89.989 113.645  1.00  0.00     0.194 C 
HETATM   11  N7  UNL     1      75.936  91.167 113.907  1.00  0.00    -0.063 NA
HETATM   12  N8  UNL     1      75.132  89.449 112.498  1.00  0.00    -0.310 N 
ATOM     13  H8  UNL     1      75.693  89.917 111.786  1.00  0.00     0.167 HD
HETATM   14  C11 UNL     1      74.437  88.308 112.041  1.00  0.00     0.282 C 
HETATM   15  N9  UNL     1      75.150  87.082 111.929  1.00  0.00    -0.299 N 
HETATM   16  C16 UNL     1      74.535  85.763 111.873  1.00  0.00     0.246 C 
ENDROOT
BRANCH   1  17
HETATM   17  N3  UNL     1      74.121  83.962 113.261  1.00  0.00    -0.295 N 
HETATM   18  C1  UNL     1      73.738  83.124 114.344  1.00  0.00     0.111 C 
HETATM   19  N1  UNL     1      73.528  83.450 115.537  1.00  0.00    -0.386 N 
HETATM   20  C2  UNL     1      73.635  81.773 113.750  1.00  0.00     0.151 C 
ATOM     21  H12 UNL     1      73.253  82.849 116.314  1.00  0.00     0.157 HD
ATOM     22  H11 UNL     1      73.599  84.382 115.947  1.00  0.00     0.157 HD
HETATM   23  C5  UNL     1      74.911  81.801 112.924  1.00  0.00     0.054 C 
HETATM   24  C6  UNL     1      74.741  83.129 112.214  1.00  0.00     0.147 C 
BRANCH  20  25
HETATM   25  N2  UNL     1      73.467  80.687 114.582  1.00  0.00    -0.382 N 
ATOM     26  H2  UNL     1      74.295  80.295 115.030  1.00  0.00     0.160 HD
BRANCH  25  27
HETATM   27  C3  UNL     1      72.236  80.091 114.848  1.00  0.00     0.169 C 
BRANCH  27  28
HETATM   28  C4  UNL     1      71.938  79.056 113.805  1.00  0.00     0.214 C 
HETATM   29  O1  UNL     1      71.263  79.414 112.814  1.00  0.00    -0.644 OA
HETATM   30  O2  UNL     1      72.383  77.743 113.917  1.00  0.00    -0.644 OA
ENDBRANCH  27  28
ENDBRANCH  25  27
ENDBRANCH  20  25
ENDBRANCH   1  17
BRANCH  15  31
HETATM   31  C12 UNL     1      76.613  87.097 111.856  1.00  0.00     0.115 A 
HETATM   32  C13 UNL     1      77.266  86.678 110.716  1.00  0.00     0.100 A 
HETATM   33  S1  UNL     1      78.904  86.867 111.168  1.00  0.00    -0.075 SA
HETATM   34  C14 UNL     1      78.671  87.459 112.751  1.00  0.00     0.141 A 
HETATM   35  N11 UNL     1      77.365  87.479 112.850  1.00  0.00    -0.332 N 
ATOM     36  H11 UNL     1      76.931  87.797 113.716  1.00  0.00     0.168 HD
BRANCH  34  37
HETATM   37  C15 UNL     1      79.748  87.822 113.686  1.00  0.00     0.288 C 
HETATM   38  N10 UNL     1      79.822  89.083 114.294  1.00  0.00    -0.055 NA
HETATM   39  O6  UNL     1      80.646  86.971 113.960  1.00  0.00    -0.269 OA
ENDBRANCH  34  37
ENDBRANCH  15  31
BRANCH   5  40
HETATM   40  O3  UNL     1      72.465  89.309 112.717  1.00  0.00    -0.358 OA
ATOM     41  H3  UNL     1      73.034  89.876 112.209  1.00  0.00     0.213 HD
ENDBRANCH   5  40
BRANCH  14  42
HETATM   42  O5  UNL     1      73.898  88.542 110.737  1.00  0.00    -0.349 OA
ATOM     43  H5  UNL     1      73.927  87.699 110.299  1.00  0.00     0.214 HD
ENDBRANCH  14  42
TORSDOF 8
ENDMDL
