MODEL 1
REMARK VINA RESULT: -5.421580508      0.000      0.000
REMARK  2 active torsions:
REMARK  status: ('A' for Active; 'I' for Inactive)
REMARK    1  A    between atoms: N1_1  and  C1_5 
REMARK    2  A    between atoms: C1_5  and  C2_6 
ROOT
HETATM    1  C2  UNL     1      37.572  35.475  19.053  1.00  0.00     0.122 C 
HETATM    2  C3  UNL     1      37.472  36.923  18.793  1.00  0.00     0.029 C 
HETATM    3  C4  UNL     1      36.420  37.379  17.868  1.00  0.00     0.020 C 
HETATM    4  C5  UNL     1      36.843  37.259  16.398  1.00  0.00     0.132 C 
HETATM    5  N2  UNL     1      37.148  35.852  16.137  1.00  0.00    -0.127 NA
HETATM    6  N3  UNL     1      36.398  35.104  17.029  1.00  0.00    -0.036 NA
HETATM    7  N4  UNL     1      37.112  34.586  18.061  1.00  0.00    -0.317 N 
ATOM      8  H4  UNL     1      37.310  33.587  18.116  1.00  0.00     0.177 HD
ENDROOT
BRANCH   1   9
HETATM    9  C1  UNL     1      36.879  35.097  20.372  1.00  0.00     0.255 C 
BRANCH   9  10
HETATM   10  N1  UNL     1      37.815  34.374  21.237  1.00  0.00    -0.077 N 
ATOM     11  H13 UNL     1      37.333  33.767  21.900  1.00  0.00     0.274 HD
ATOM     12  H12 UNL     1      38.331  33.656  20.728  1.00  0.00     0.274 HD
ATOM     13  H11 UNL     1      38.436  35.034  21.704  1.00  0.00     0.274 HD
ENDBRANCH   9  10
ENDBRANCH   1   9
TORSDOF 2
ENDMDL
MODEL 2
REMARK VINA RESULT: -5.360644856      2.392      2.994
REMARK  2 active torsions:
REMARK  status: ('A' for Active; 'I' for Inactive)
REMARK    1  A    between atoms: N1_1  and  C1_5 
REMARK    2  A    between atoms: C1_5  and  C2_6 
ROOT
HETATM    1  C2  UNL     1      38.016  36.012  19.652  1.00  0.00     0.122 C 
HETATM    2  C3  UNL     1      37.445  36.906  20.677  1.00  0.00     0.029 C 
HETATM    3  C4  UNL     1      36.839  38.169  20.220  1.00  0.00     0.020 C 
HETATM    4  C5  UNL     1      37.884  39.272  20.001  1.00  0.00     0.132 C 
HETATM    5  N2  UNL     1      38.832  38.792  18.996  1.00  0.00    -0.127 NA
HETATM    6  N3  UNL     1      38.155  37.882  18.203  1.00  0.00    -0.036 NA
HETATM    7  N4  UNL     1      38.472  36.585  18.448  1.00  0.00    -0.317 N 
ATOM      8  H4  UNL     1      39.023  36.043  17.783  1.00  0.00     0.177 HD
ENDROOT
BRANCH   1   9
HETATM    9  C1  UNL     1      37.036  34.886  19.288  1.00  0.00     0.255 C 
BRANCH   9  10
HETATM   10  N1  UNL     1      36.825  34.860  17.838  1.00  0.00    -0.077 N 
ATOM     11  H13 UNL     1      36.290  34.042  17.544  1.00  0.00     0.274 HD
ATOM     12  H12 UNL     1      36.171  35.581  17.533  1.00  0.00     0.274 HD
ATOM     13  H11 UNL     1      37.721  34.925  17.356  1.00  0.00     0.274 HD
ENDBRANCH   9  10
ENDBRANCH   1   9
TORSDOF 2
ENDMDL
MODEL 3
REMARK VINA RESULT: -5.161673295      2.344      3.063
REMARK  2 active torsions:
REMARK  status: ('A' for Active; 'I' for Inactive)
REMARK    1  A    between atoms: N1_1  and  C1_5 
REMARK    2  A    between atoms: C1_5  and  C2_6 
ROOT
HETATM    1  C2  UNL     1      36.494  37.954  18.691  1.00  0.00     0.122 C 
HETATM    2  C3  UNL     1      36.965  36.603  19.051  1.00  0.00     0.029 C 
HETATM    3  C4  UNL     1      38.019  36.003  18.215  1.00  0.00     0.020 C 
HETATM    4  C5  UNL     1      37.456  35.347  16.947  1.00  0.00     0.132 C 
HETATM    5  N2  UNL     1      36.756  36.381  16.185  1.00  0.00    -0.127 NA
HETATM    6  N3  UNL     1      37.346  37.591  16.510  1.00  0.00    -0.036 NA
HETATM    7  N4  UNL     1      36.607  38.363  17.347  1.00  0.00    -0.317 N 
ATOM      8  H4  UNL     1      36.149  39.211  17.015  1.00  0.00     0.177 HD
ENDROOT
BRANCH   1   9
HETATM    9  C1  UNL     1      37.167  39.027  19.561  1.00  0.00     0.255 C 
BRANCH   9  10
HETATM   10  N1  UNL     1      38.547  39.237  19.115  1.00  0.00    -0.077 N 
ATOM     11  H13 UNL     1      39.225  38.927  19.811  1.00  0.00     0.274 HD
ATOM     12  H12 UNL     1      38.807  38.601  18.361  1.00  0.00     0.274 HD
ATOM     13  H11 UNL     1      38.683  40.215  18.857  1.00  0.00     0.274 HD
ENDBRANCH   9  10
ENDBRANCH   1   9
TORSDOF 2
ENDMDL
MODEL 4
REMARK VINA RESULT: -5.088074883      2.081      2.342
REMARK  2 active torsions:
REMARK  status: ('A' for Active; 'I' for Inactive)
REMARK    1  A    between atoms: N1_1  and  C1_5 
REMARK    2  A    between atoms: C1_5  and  C2_6 
ROOT
HETATM    1  C2  UNL     1      36.825  36.198  18.540  1.00  0.00     0.122 C 
HETATM    2  C3  UNL     1      37.073  35.467  17.283  1.00  0.00     0.029 C 
HETATM    3  C4  UNL     1      37.829  36.161  16.227  1.00  0.00     0.020 C 
HETATM    4  C5  UNL     1      36.941  37.084  15.383  1.00  0.00     0.132 C 
HETATM    5  N2  UNL     1      36.340  38.069  16.283  1.00  0.00    -0.127 NA
HETATM    6  N3  UNL     1      37.204  38.215  17.355  1.00  0.00    -0.036 NA
HETATM    7  N4  UNL     1      36.787  37.607  18.494  1.00  0.00    -0.317 N 
ATOM      8  H4  UNL     1      36.456  38.150  19.291  1.00  0.00     0.177 HD
ENDROOT
BRANCH   1   9
HETATM    9  C1  UNL     1      37.834  35.797  19.626  1.00  0.00     0.255 C 
BRANCH   9  10
HETATM   10  N1  UNL     1      38.632  36.962  20.020  1.00  0.00    -0.077 N 
ATOM     11  H13 UNL     1      38.078  37.818  20.035  1.00  0.00     0.274 HD
ATOM     12  H12 UNL     1      38.889  36.934  21.007  1.00  0.00     0.274 HD
ATOM     13  H11 UNL     1      39.448  37.044  19.413  1.00  0.00     0.274 HD
ENDBRANCH   9  10
ENDBRANCH   1   9
TORSDOF 2
ENDMDL
MODEL 5
REMARK VINA RESULT: -5.059406602      1.908      2.104
REMARK  2 active torsions:
REMARK  status: ('A' for Active; 'I' for Inactive)
REMARK    1  A    between atoms: N1_1  and  C1_5 
REMARK    2  A    between atoms: C1_5  and  C2_6 
ROOT
HETATM    1  C2  UNL     1      37.514  35.805  19.865  1.00  0.00     0.122 C 
HETATM    2  C3  UNL     1      36.815  35.212  18.710  1.00  0.00     0.029 C 
HETATM    3  C4  UNL     1      37.391  35.439  17.374  1.00  0.00     0.020 C 
HETATM    4  C5  UNL     1      36.978  36.794  16.783  1.00  0.00     0.132 C 
HETATM    5  N2  UNL     1      37.441  37.837  17.699  1.00  0.00    -0.127 NA
HETATM    6  N3  UNL     1      38.541  37.329  18.368  1.00  0.00    -0.036 NA
HETATM    7  N4  UNL     1      38.292  36.961  19.651  1.00  0.00    -0.317 N 
ATOM      8  H4  UNL     1      38.656  37.504  20.435  1.00  0.00     0.177 HD
ENDROOT
BRANCH   1   9
HETATM    9  C1  UNL     1      38.406  34.770  20.569  1.00  0.00     0.255 C 
BRANCH   9  10
HETATM   10  N1  UNL     1      37.916  34.534  21.930  1.00  0.00    -0.077 N 
ATOM     11  H13 UNL     1      37.410  35.338  22.300  1.00  0.00     0.274 HD
ATOM     12  H12 UNL     1      37.154  33.856  21.951  1.00  0.00     0.274 HD
ATOM     13  H11 UNL     1      38.691  34.258  22.534  1.00  0.00     0.274 HD
ENDBRANCH   9  10
ENDBRANCH   1   9
TORSDOF 2
ENDMDL
