MODEL 1
REMARK VINA RESULT: -7.684323501      0.000      0.000
REMARK  13 active torsions:
REMARK  status: ('A' for Active; 'I' for Inactive)
REMARK    1  A    between atoms: C2_2  and  C4_4 
REMARK    2  A    between atoms: C4_4  and  C5_5 
REMARK    3  A    between atoms: C4_4  and  N2_20 
REMARK    4  A    between atoms: C5_5  and  C6_6 
REMARK    5  A    between atoms: C6_6  and  C8_8 
REMARK       I    between atoms: N2_20  and  C19_22 
REMARK    6  A    between atoms: C19_22  and  C20_24 
REMARK    7  A    between atoms: C20_24  and  C21_25 
REMARK    8  A    between atoms: C20_24  and  N6_33 
REMARK    9  A    between atoms: C21_25  and  C22_26 
REMARK   10  A    between atoms: C22_26  and  C23_27 
REMARK   11  A    between atoms: C23_27  and  N3_28 
REMARK       I    between atoms: N6_33  and  C25_35 
REMARK   12  A    between atoms: C25_35  and  O3_37 
REMARK   13  A    between atoms: O3_37  and  C26_38 
ROOT
HETATM    1  C8  UNL     1      33.330  29.548  19.809  1.00  0.00     0.037 C 
HETATM    2  C9  UNL     1      33.122  31.034  19.451  1.00  0.00     0.016 C 
HETATM    3  C10 UNL     1      33.296  31.064  17.946  1.00  0.00    -0.001 C 
HETATM    4  C11 UNL     1      32.068  30.393  17.384  1.00  0.00    -0.012 C 
HETATM    5  C12 UNL     1      31.679  30.804  16.018  1.00  0.00     0.010 C 
HETATM    6  C13 UNL     1      32.330  28.916  17.576  1.00  0.00     0.030 C 
HETATM    7  C14 UNL     1      33.522  28.889  18.465  1.00  0.00     0.064 C 
HETATM    8  C15 UNL     1      34.306  27.680  18.456  1.00  0.00     0.070 C 
HETATM    9  N1  UNL     1      34.945  26.733  18.432  1.00  0.00    -0.196 NA
HETATM   10  C16 UNL     1      34.354  30.024  17.786  1.00  0.00    -0.022 C 
HETATM   11  C17 UNL     1      35.599  30.245  18.590  1.00  0.00     0.017 C 
HETATM   12  C18 UNL     1      34.746  29.664  16.412  1.00  0.00     0.017 C 
ENDROOT
BRANCH   1  13
HETATM   13  C6  UNL     1      32.231  29.048  20.650  1.00  0.00    -0.080 C 
HETATM   14  C7  UNL     1      31.196  30.049  21.093  1.00  0.00     0.043 C 
BRANCH  13  15
HETATM   15  C5  UNL     1      32.504  27.969  21.578  1.00  0.00     0.001 C 
BRANCH  15  16
HETATM   16  C4  UNL     1      33.687  27.765  22.396  1.00  0.00     0.111 C 
BRANCH  16  17
HETATM   17  C2  UNL     1      34.674  28.835  22.708  1.00  0.00     0.004 C 
HETATM   18  C1  UNL     1      35.917  28.490  21.836  1.00  0.00     0.012 C 
HETATM   19  C3  UNL     1      35.262  28.731  24.126  1.00  0.00     0.012 C 
ENDBRANCH  16  17
BRANCH  16  20
HETATM   20  N2  UNL     1      34.433  26.626  21.818  1.00  0.00    -0.348 N 
HETATM   21  C19 UNL     1      34.806  25.445  22.422  1.00  0.00     0.264 C 
HETATM   22  O1  UNL     1      34.575  25.159  23.651  1.00  0.00    -0.266 OA
ATOM     23  H2  UNL     1      34.708  26.728  20.842  1.00  0.00     0.163 HD
BRANCH  21  24
HETATM   24  C20 UNL     1      35.530  24.363  21.715  1.00  0.00     0.082 C 
BRANCH  24  25
HETATM   25  C21 UNL     1      34.753  23.190  21.313  1.00  0.00     0.064 C 
BRANCH  25  26
HETATM   26  C22 UNL     1      35.473  22.009  20.765  1.00  0.00     0.026 C 
BRANCH  26  27
HETATM   27  C23 UNL     1      36.248  21.297  21.897  1.00  0.00     0.122 C 
BRANCH  27  28
HETATM   28  N3  UNL     1      37.658  21.498  21.530  1.00  0.00    -0.367 N 
HETATM   29  C24 UNL     1      38.425  22.104  22.369  1.00  0.00     0.196 C 
HETATM   30  N4  UNL     1      37.975  22.581  23.619  1.00  0.00    -0.067 NA
HETATM   31  N5  UNL     1      39.804  22.319  22.047  1.00  0.00    -0.067 NA
ATOM     32  H3  UNL     1      38.019  21.166  20.635  1.00  0.00     0.161 HD
ENDBRANCH  27  28
ENDBRANCH  26  27
ENDBRANCH  25  26
ENDBRANCH  24  25
BRANCH  24  33
HETATM   33  N6  UNL     1      36.451  24.820  20.723  1.00  0.00    -0.301 N 
HETATM   34  C25 UNL     1      37.749  25.335  20.964  1.00  0.00     0.365 C 
HETATM   35  O2  UNL     1      38.157  25.405  22.172  1.00  0.00    -0.238 OA
ATOM     36  H6  UNL     1      36.146  24.772  19.750  1.00  0.00     0.171 HD
BRANCH  34  37
HETATM   37  O3  UNL     1      38.603  25.764  19.990  1.00  0.00    -0.294 OA
BRANCH  37  38
HETATM   38  C26 UNL     1      39.134  27.054  19.853  1.00  0.00     0.061 C 
HETATM   39  C27 UNL     1      40.474  26.890  19.137  1.00  0.00     0.046 C 
HETATM   40  C28 UNL     1      38.243  27.926  18.962  1.00  0.00     0.046 C 
HETATM   41  C29 UNL     1      39.385  27.741  21.168  1.00  0.00     0.046 C 
ENDBRANCH  37  38
ENDBRANCH  34  37
ENDBRANCH  24  33
ENDBRANCH  21  24
ENDBRANCH  16  20
ENDBRANCH  15  16
ENDBRANCH  13  15
ENDBRANCH   1  13
TORSDOF 13
ENDMDL
MODEL 2
REMARK VINA RESULT: -7.453103918      2.036      3.432
REMARK  13 active torsions:
REMARK  status: ('A' for Active; 'I' for Inactive)
REMARK    1  A    between atoms: C2_2  and  C4_4 
REMARK    2  A    between atoms: C4_4  and  C5_5 
REMARK    3  A    between atoms: C4_4  and  N2_20 
REMARK    4  A    between atoms: C5_5  and  C6_6 
REMARK    5  A    between atoms: C6_6  and  C8_8 
REMARK       I    between atoms: N2_20  and  C19_22 
REMARK    6  A    between atoms: C19_22  and  C20_24 
REMARK    7  A    between atoms: C20_24  and  C21_25 
REMARK    8  A    between atoms: C20_24  and  N6_33 
REMARK    9  A    between atoms: C21_25  and  C22_26 
REMARK   10  A    between atoms: C22_26  and  C23_27 
REMARK   11  A    between atoms: C23_27  and  N3_28 
REMARK       I    between atoms: N6_33  and  C25_35 
REMARK   12  A    between atoms: C25_35  and  O3_37 
REMARK   13  A    between atoms: O3_37  and  C26_38 
ROOT
HETATM    1  C8  UNL     1      34.908  28.323  19.910  1.00  0.00     0.037 C 
HETATM    2  C9  UNL     1      34.418  28.467  18.455  1.00  0.00     0.016 C 
HETATM    3  C10 UNL     1      33.082  29.169  18.598  1.00  0.00    -0.001 C 
HETATM    4  C11 UNL     1      33.412  30.586  18.997  1.00  0.00    -0.012 C 
HETATM    5  C12 UNL     1      32.412  31.608  18.624  1.00  0.00     0.010 C 
HETATM    6  C13 UNL     1      33.736  30.490  20.471  1.00  0.00     0.030 C 
HETATM    7  C14 UNL     1      33.839  29.026  20.709  1.00  0.00     0.064 C 
HETATM    8  C15 UNL     1      33.664  28.579  22.068  1.00  0.00     0.070 C 
HETATM    9  N1  UNL     1      33.501  28.219  23.140  1.00  0.00    -0.196 NA
HETATM   10  C16 UNL     1      32.604  28.560  19.872  1.00  0.00    -0.022 C 
HETATM   11  C17 UNL     1      32.558  27.062  19.891  1.00  0.00     0.017 C 
HETATM   12  C18 UNL     1      31.341  29.070  20.434  1.00  0.00     0.017 C 
ENDROOT
BRANCH   1  13
HETATM   13  C6  UNL     1      36.287  28.818  20.054  1.00  0.00    -0.080 C 
HETATM   14  C7  UNL     1      36.902  29.494  18.856  1.00  0.00     0.043 C 
BRANCH  13  15
HETATM   15  C5  UNL     1      37.202  28.084  20.904  1.00  0.00     0.001 C 
BRANCH  15  16
HETATM   16  C4  UNL     1      36.888  27.084  21.910  1.00  0.00     0.111 C 
BRANCH  16  17
HETATM   17  C2  UNL     1      37.685  26.876  23.150  1.00  0.00     0.004 C 
HETATM   18  C1  UNL     1      36.648  26.987  24.306  1.00  0.00     0.012 C 
HETATM   19  C3  UNL     1      38.628  28.048  23.475  1.00  0.00     0.012 C 
ENDBRANCH  16  17
BRANCH  16  20
HETATM   20  N2  UNL     1      36.788  25.779  21.220  1.00  0.00    -0.348 N 
HETATM   21  C19 UNL     1      35.738  24.887  21.214  1.00  0.00     0.264 C 
HETATM   22  O1  UNL     1      34.646  25.051  21.867  1.00  0.00    -0.266 OA
ATOM     23  H2  UNL     1      37.605  25.504  20.677  1.00  0.00     0.163 HD
BRANCH  21  24
HETATM   24  C20 UNL     1      35.755  23.617  20.450  1.00  0.00     0.082 C 
BRANCH  24  25
HETATM   25  C21 UNL     1      34.921  22.524  20.950  1.00  0.00     0.064 C 
BRANCH  25  26
HETATM   26  C22 UNL     1      35.564  21.222  21.273  1.00  0.00     0.026 C 
BRANCH  26  27
HETATM   27  C23 UNL     1      36.468  21.381  22.517  1.00  0.00     0.122 C 
BRANCH  27  28
HETATM   28  N3  UNL     1      37.829  21.390  21.957  1.00  0.00    -0.367 N 
HETATM   29  C24 UNL     1      38.617  22.353  22.290  1.00  0.00     0.196 C 
HETATM   30  N4  UNL     1      38.237  23.393  23.164  1.00  0.00    -0.067 NA
HETATM   31  N5  UNL     1      39.949  22.397  21.765  1.00  0.00    -0.067 NA
ATOM     32  H3  UNL     1      38.139  20.654  21.321  1.00  0.00     0.161 HD
ENDBRANCH  27  28
ENDBRANCH  26  27
ENDBRANCH  25  26
ENDBRANCH  24  25
BRANCH  24  33
HETATM   33  N6  UNL     1      35.710  23.783  19.031  1.00  0.00    -0.301 N 
HETATM   34  C25 UNL     1      36.826  23.980  18.179  1.00  0.00     0.365 C 
HETATM   35  O2  UNL     1      37.989  24.014  18.703  1.00  0.00    -0.238 OA
ATOM     36  H6  UNL     1      34.790  23.757  18.590  1.00  0.00     0.171 HD
BRANCH  34  37
HETATM   37  O3  UNL     1      36.745  24.135  16.826  1.00  0.00    -0.294 OA
BRANCH  37  38
HETATM   38  C26 UNL     1      36.344  25.289  16.140  1.00  0.00     0.061 C 
HETATM   39  C27 UNL     1      36.749  25.081  14.680  1.00  0.00     0.046 C 
HETATM   40  C28 UNL     1      34.821  25.451  16.174  1.00  0.00     0.046 C 
HETATM   41  C29 UNL     1      37.011  26.543  16.637  1.00  0.00     0.046 C 
ENDBRANCH  37  38
ENDBRANCH  34  37
ENDBRANCH  24  33
ENDBRANCH  21  24
ENDBRANCH  16  20
ENDBRANCH  15  16
ENDBRANCH  13  15
ENDBRANCH   1  13
TORSDOF 13
ENDMDL
MODEL 3
REMARK VINA RESULT: -7.284152392      2.785      5.481
REMARK  13 active torsions:
REMARK  status: ('A' for Active; 'I' for Inactive)
REMARK    1  A    between atoms: C2_2  and  C4_4 
REMARK    2  A    between atoms: C4_4  and  C5_5 
REMARK    3  A    between atoms: C4_4  and  N2_20 
REMARK    4  A    between atoms: C5_5  and  C6_6 
REMARK    5  A    between atoms: C6_6  and  C8_8 
REMARK       I    between atoms: N2_20  and  C19_22 
REMARK    6  A    between atoms: C19_22  and  C20_24 
REMARK    7  A    between atoms: C20_24  and  C21_25 
REMARK    8  A    between atoms: C20_24  and  N6_33 
REMARK    9  A    between atoms: C21_25  and  C22_26 
REMARK   10  A    between atoms: C22_26  and  C23_27 
REMARK   11  A    between atoms: C23_27  and  N3_28 
REMARK       I    between atoms: N6_33  and  C25_35 
REMARK   12  A    between atoms: C25_35  and  O3_37 
REMARK   13  A    between atoms: O3_37  and  C26_38 
ROOT
HETATM    1  C8  UNL     1      34.210  27.727  21.856  1.00  0.00     0.037 C 
HETATM    2  C9  UNL     1      34.404  29.209  21.476  1.00  0.00     0.016 C 
HETATM    3  C10 UNL     1      35.896  29.424  21.637  1.00  0.00    -0.001 C 
HETATM    4  C11 UNL     1      36.536  28.683  20.490  1.00  0.00    -0.012 C 
HETATM    5  C12 UNL     1      37.851  29.194  20.048  1.00  0.00     0.010 C 
HETATM    6  C13 UNL     1      36.506  27.234  20.921  1.00  0.00     0.030 C 
HETATM    7  C14 UNL     1      35.617  27.246  22.113  1.00  0.00     0.064 C 
HETATM    8  C15 UNL     1      35.753  26.143  23.031  1.00  0.00     0.070 C 
HETATM    9  N1  UNL     1      35.877  25.284  23.774  1.00  0.00    -0.196 NA
HETATM   10  C16 UNL     1      36.162  28.537  22.806  1.00  0.00    -0.022 C 
HETATM   11  C17 UNL     1      35.330  28.808  24.022  1.00  0.00     0.017 C 
HETATM   12  C18 UNL     1      37.565  28.377  23.229  1.00  0.00     0.017 C 
ENDROOT
BRANCH   1  13
HETATM   13  C6  UNL     1      33.437  27.014  20.826  1.00  0.00    -0.080 C 
HETATM   14  C7  UNL     1      32.227  27.719  20.267  1.00  0.00     0.043 C 
BRANCH  13  15
HETATM   15  C5  UNL     1      33.347  25.571  20.901  1.00  0.00     0.001 C 
BRANCH  15  16
HETATM   16  C4  UNL     1      33.523  24.603  19.832  1.00  0.00     0.111 C 
BRANCH  16  17
HETATM   17  C2  UNL     1      32.518  23.562  19.482  1.00  0.00     0.004 C 
HETATM   18  C1  UNL     1      32.591  23.450  17.931  1.00  0.00     0.012 C 
HETATM   19  C3  UNL     1      31.064  24.022  19.685  1.00  0.00     0.012 C 
ENDBRANCH  16  17
BRANCH  16  20
HETATM   20  N2  UNL     1      34.813  23.917  20.063  1.00  0.00    -0.348 N 
HETATM   21  C19 UNL     1      36.013  24.098  19.412  1.00  0.00     0.264 C 
HETATM   22  O1  UNL     1      36.190  24.910  18.435  1.00  0.00    -0.266 OA
ATOM     23  H2  UNL     1      34.814  23.217  20.804  1.00  0.00     0.163 HD
BRANCH  21  24
HETATM   24  C20 UNL     1      37.250  23.362  19.766  1.00  0.00     0.082 C 
BRANCH  24  25
HETATM   25  C21 UNL     1      37.945  23.768  20.987  1.00  0.00     0.064 C 
BRANCH  25  26
HETATM   26  C22 UNL     1      38.525  22.717  21.865  1.00  0.00     0.026 C 
BRANCH  26  27
HETATM   27  C23 UNL     1      37.678  22.585  23.151  1.00  0.00     0.122 C 
BRANCH  27  28
HETATM   28  N3  UNL     1      37.190  21.197  23.104  1.00  0.00    -0.367 N 
HETATM   29  C24 UNL     1      35.968  20.994  22.751  1.00  0.00     0.196 C 
HETATM   30  N4  UNL     1      35.081  22.037  22.410  1.00  0.00    -0.067 NA
HETATM   31  N5  UNL     1      35.457  19.657  22.695  1.00  0.00    -0.067 NA
ATOM     32  H3  UNL     1      37.803  20.418  23.344  1.00  0.00     0.161 HD
ENDBRANCH  27  28
ENDBRANCH  26  27
ENDBRANCH  25  26
ENDBRANCH  24  25
BRANCH  24  33
HETATM   33  N6  UNL     1      37.164  21.946  19.588  1.00  0.00    -0.301 N 
HETATM   34  C25 UNL     1      37.735  21.203  18.524  1.00  0.00     0.365 C 
HETATM   35  O2  UNL     1      38.393  21.835  17.630  1.00  0.00    -0.238 OA
ATOM     36  H6  UNL     1      36.644  21.422  20.291  1.00  0.00     0.171 HD
BRANCH  34  37
HETATM   37  O3  UNL     1      37.632  19.850  18.386  1.00  0.00    -0.294 OA
BRANCH  37  38
HETATM   38  C26 UNL     1      36.518  19.141  17.917  1.00  0.00     0.061 C 
HETATM   39  C27 UNL     1      37.067  17.901  17.211  1.00  0.00     0.046 C 
HETATM   40  C28 UNL     1      35.643  18.657  19.078  1.00  0.00     0.046 C 
HETATM   41  C29 UNL     1      35.687  19.914  16.928  1.00  0.00     0.046 C 
ENDBRANCH  37  38
ENDBRANCH  34  37
ENDBRANCH  24  33
ENDBRANCH  21  24
ENDBRANCH  16  20
ENDBRANCH  15  16
ENDBRANCH  13  15
ENDBRANCH   1  13
TORSDOF 13
ENDMDL
MODEL 4
REMARK VINA RESULT: -7.269187472      2.013      3.075
REMARK  13 active torsions:
REMARK  status: ('A' for Active; 'I' for Inactive)
REMARK    1  A    between atoms: C2_2  and  C4_4 
REMARK    2  A    between atoms: C4_4  and  C5_5 
REMARK    3  A    between atoms: C4_4  and  N2_20 
REMARK    4  A    between atoms: C5_5  and  C6_6 
REMARK    5  A    between atoms: C6_6  and  C8_8 
REMARK       I    between atoms: N2_20  and  C19_22 
REMARK    6  A    between atoms: C19_22  and  C20_24 
REMARK    7  A    between atoms: C20_24  and  C21_25 
REMARK    8  A    between atoms: C20_24  and  N6_33 
REMARK    9  A    between atoms: C21_25  and  C22_26 
REMARK   10  A    between atoms: C22_26  and  C23_27 
REMARK   11  A    between atoms: C23_27  and  N3_28 
REMARK       I    between atoms: N6_33  and  C25_35 
REMARK   12  A    between atoms: C25_35  and  O3_37 
REMARK   13  A    between atoms: O3_37  and  C26_38 
ROOT
HETATM    1  C8  UNL     1      33.633  28.753  19.960  1.00  0.00     0.037 C 
HETATM    2  C9  UNL     1      33.287  30.243  20.160  1.00  0.00     0.016 C 
HETATM    3  C10 UNL     1      33.922  30.919  18.961  1.00  0.00    -0.001 C 
HETATM    4  C11 UNL     1      33.075  30.519  17.778  1.00  0.00    -0.012 C 
HETATM    5  C12 UNL     1      33.073  31.464  16.641  1.00  0.00     0.010 C 
HETATM    6  C13 UNL     1      33.523  29.110  17.461  1.00  0.00     0.030 C 
HETATM    7  C14 UNL     1      34.355  28.738  18.636  1.00  0.00     0.064 C 
HETATM    8  C15 UNL     1      35.305  27.671  18.442  1.00  0.00     0.070 C 
HETATM    9  N1  UNL     1      36.076  26.843  18.285  1.00  0.00    -0.196 NA
HETATM   10  C16 UNL     1      35.142  30.077  18.805  1.00  0.00    -0.022 C 
HETATM   11  C17 UNL     1      36.008  29.966  20.024  1.00  0.00     0.017 C 
HETATM   12  C18 UNL     1      36.009  30.350  17.644  1.00  0.00     0.017 C 
ENDROOT
BRANCH   1  13
HETATM   13  C6  UNL     1      32.431  27.911  20.078  1.00  0.00    -0.080 C 
HETATM   14  C7  UNL     1      31.122  28.615  20.322  1.00  0.00     0.043 C 
BRANCH  13  15
HETATM   15  C5  UNL     1      32.562  26.597  20.673  1.00  0.00     0.001 C 
BRANCH  15  16
HETATM   16  C4  UNL     1      33.127  25.396  20.083  1.00  0.00     0.111 C 
BRANCH  16  17
HETATM   17  C2  UNL     1      32.312  24.266  19.558  1.00  0.00     0.004 C 
HETATM   18  C1  UNL     1      32.259  24.501  18.020  1.00  0.00     0.012 C 
HETATM   19  C3  UNL     1      30.822  24.362  19.930  1.00  0.00     0.012 C 
ENDBRANCH  16  17
BRANCH  16  20
HETATM   20  N2  UNL     1      34.089  24.836  21.057  1.00  0.00    -0.348 N 
HETATM   21  C19 UNL     1      35.005  23.823  20.877  1.00  0.00     0.264 C 
HETATM   22  O1  UNL     1      35.144  23.159  19.788  1.00  0.00    -0.266 OA
ATOM     23  H2  UNL     1      34.072  25.256  21.985  1.00  0.00     0.163 HD
BRANCH  21  24
HETATM   24  C20 UNL     1      35.941  23.374  21.936  1.00  0.00     0.082 C 
BRANCH  24  25
HETATM   25  C21 UNL     1      36.464  22.011  21.833  1.00  0.00     0.064 C 
BRANCH  25  26
HETATM   26  C22 UNL     1      37.937  21.810  21.813  1.00  0.00     0.026 C 
BRANCH  26  27
HETATM   27  C23 UNL     1      38.441  21.785  20.352  1.00  0.00     0.122 C 
BRANCH  27  28
HETATM   28  N3  UNL     1      39.588  22.706  20.365  1.00  0.00    -0.367 N 
HETATM   29  C24 UNL     1      39.442  23.866  19.825  1.00  0.00     0.196 C 
HETATM   30  N4  UNL     1      38.238  24.291  19.224  1.00  0.00    -0.067 NA
HETATM   31  N5  UNL     1      40.536  24.791  19.817  1.00  0.00    -0.067 NA
ATOM     32  H3  UNL     1      40.474  22.434  20.791  1.00  0.00     0.161 HD
ENDBRANCH  27  28
ENDBRANCH  26  27
ENDBRANCH  25  26
ENDBRANCH  24  25
BRANCH  24  33
HETATM   33  N6  UNL     1      36.918  24.347  22.309  1.00  0.00    -0.301 N 
HETATM   34  C25 UNL     1      36.736  25.397  23.244  1.00  0.00     0.365 C 
HETATM   35  O2  UNL     1      35.602  25.502  23.821  1.00  0.00    -0.238 OA
ATOM     36  H6  UNL     1      37.833  24.281  21.861  1.00  0.00     0.171 HD
BRANCH  34  37
HETATM   37  O3  UNL     1      37.694  26.309  23.576  1.00  0.00    -0.294 OA
BRANCH  37  38
HETATM   38  C26 UNL     1      37.894  27.563  22.984  1.00  0.00     0.061 C 
HETATM   39  C27 UNL     1      39.180  28.123  23.592  1.00  0.00     0.046 C 
HETATM   40  C28 UNL     1      38.121  27.430  21.474  1.00  0.00     0.046 C 
HETATM   41  C29 UNL     1      36.782  28.540  23.258  1.00  0.00     0.046 C 
ENDBRANCH  37  38
ENDBRANCH  34  37
ENDBRANCH  24  33
ENDBRANCH  21  24
ENDBRANCH  16  20
ENDBRANCH  15  16
ENDBRANCH  13  15
ENDBRANCH   1  13
TORSDOF 13
ENDMDL
MODEL 5
REMARK VINA RESULT: -7.064654548      1.978      2.513
REMARK  13 active torsions:
REMARK  status: ('A' for Active; 'I' for Inactive)
REMARK    1  A    between atoms: C2_2  and  C4_4 
REMARK    2  A    between atoms: C4_4  and  C5_5 
REMARK    3  A    between atoms: C4_4  and  N2_20 
REMARK    4  A    between atoms: C5_5  and  C6_6 
REMARK    5  A    between atoms: C6_6  and  C8_8 
REMARK       I    between atoms: N2_20  and  C19_22 
REMARK    6  A    between atoms: C19_22  and  C20_24 
REMARK    7  A    between atoms: C20_24  and  C21_25 
REMARK    8  A    between atoms: C20_24  and  N6_33 
REMARK    9  A    between atoms: C21_25  and  C22_26 
REMARK   10  A    between atoms: C22_26  and  C23_27 
REMARK   11  A    between atoms: C23_27  and  N3_28 
REMARK       I    between atoms: N6_33  and  C25_35 
REMARK   12  A    between atoms: C25_35  and  O3_37 
REMARK   13  A    between atoms: O3_37  and  C26_38 
ROOT
HETATM    1  C8  UNL     1      33.873  29.305  19.892  1.00  0.00     0.037 C 
HETATM    2  C9  UNL     1      33.659  30.826  19.747  1.00  0.00     0.016 C 
HETATM    3  C10 UNL     1      33.569  31.029  18.248  1.00  0.00    -0.001 C 
HETATM    4  C11 UNL     1      32.237  30.449  17.841  1.00  0.00    -0.012 C 
HETATM    5  C12 UNL     1      31.631  31.023  16.622  1.00  0.00     0.010 C 
HETATM    6  C13 UNL     1      32.476  28.956  17.816  1.00  0.00     0.030 C 
HETATM    7  C14 UNL     1      33.803  28.806  18.470  1.00  0.00     0.064 C 
HETATM    8  C15 UNL     1      34.529  27.594  18.186  1.00  0.00     0.070 C 
HETATM    9  N1  UNL     1      35.119  26.647  17.942  1.00  0.00    -0.196 NA
HETATM   10  C16 UNL     1      34.544  29.999  17.786  1.00  0.00    -0.022 C 
HETATM   11  C17 UNL     1      35.918  30.104  18.376  1.00  0.00     0.017 C 
HETATM   12  C18 UNL     1      34.676  29.797  16.332  1.00  0.00     0.017 C 
ENDROOT
BRANCH   1  13
HETATM   13  C6  UNL     1      32.921  28.728  20.854  1.00  0.00    -0.080 C 
HETATM   14  C7  UNL     1      31.882  29.654  21.432  1.00  0.00     0.043 C 
BRANCH  13  15
HETATM   15  C5  UNL     1      33.376  27.666  21.728  1.00  0.00     0.001 C 
BRANCH  15  16
HETATM   16  C4  UNL     1      34.740  27.336  22.105  1.00  0.00     0.111 C 
BRANCH  16  17
HETATM   17  C2  UNL     1      35.876  28.294  22.031  1.00  0.00     0.004 C 
HETATM   18  C1  UNL     1      36.910  27.606  21.092  1.00  0.00     0.012 C 
HETATM   19  C3  UNL     1      36.678  28.396  23.341  1.00  0.00     0.012 C 
ENDBRANCH  16  17
BRANCH  16  20
HETATM   20  N2  UNL     1      35.127  26.126  21.347  1.00  0.00    -0.348 N 
HETATM   21  C19 UNL     1      35.073  24.808  21.744  1.00  0.00     0.264 C 
HETATM   22  O1  UNL     1      34.687  24.417  22.903  1.00  0.00    -0.266 OA
ATOM     23  H2  UNL     1      35.482  26.290  20.406  1.00  0.00     0.163 HD
BRANCH  21  24
HETATM   24  C20 UNL     1      35.466  23.678  20.868  1.00  0.00     0.082 C 
BRANCH  24  25
HETATM   25  C21 UNL     1      34.733  22.422  21.026  1.00  0.00     0.064 C 
BRANCH  25  26
HETATM   26  C22 UNL     1      35.502  21.157  21.166  1.00  0.00     0.026 C 
BRANCH  26  27
HETATM   27  C23 UNL     1      36.332  21.193  22.470  1.00  0.00     0.122 C 
BRANCH  27  28
HETATM   28  N3  UNL     1      37.696  21.491  22.004  1.00  0.00    -0.367 N 
HETATM   29  C24 UNL     1      38.351  22.425  22.602  1.00  0.00     0.196 C 
HETATM   30  N4  UNL     1      37.824  23.170  23.678  1.00  0.00    -0.067 NA
HETATM   31  N5  UNL     1      39.681  22.746  22.176  1.00  0.00    -0.067 NA
ATOM     32  H3  UNL     1      38.110  20.974  21.229  1.00  0.00     0.161 HD
ENDBRANCH  27  28
ENDBRANCH  26  27
ENDBRANCH  25  26
ENDBRANCH  24  25
BRANCH  24  33
HETATM   33  N6  UNL     1      35.710  24.044  19.508  1.00  0.00    -0.301 N 
HETATM   34  C25 UNL     1      36.791  23.601  18.706  1.00  0.00     0.365 C 
HETATM   35  O2  UNL     1      37.639  22.799  19.223  1.00  0.00    -0.238 OA
ATOM     36  H6  UNL     1      35.044  24.684  19.074  1.00  0.00     0.171 HD
BRANCH  34  37
HETATM   37  O3  UNL     1      36.992  23.972  17.409  1.00  0.00    -0.294 OA
BRANCH  37  38
HETATM   38  C26 UNL     1      36.456  23.355  16.270  1.00  0.00     0.061 C 
HETATM   39  C27 UNL     1      36.605  24.360  15.129  1.00  0.00     0.046 C 
HETATM   40  C28 UNL     1      37.260  22.107  15.889  1.00  0.00     0.046 C 
HETATM   41  C29 UNL     1      34.997  23.011  16.406  1.00  0.00     0.046 C 
ENDBRANCH  37  38
ENDBRANCH  34  37
ENDBRANCH  24  33
ENDBRANCH  21  24
ENDBRANCH  16  20
ENDBRANCH  15  16
ENDBRANCH  13  15
ENDBRANCH   1  13
TORSDOF 13
ENDMDL
