MODEL 1
REMARK VINA RESULT: -4.976724644      0.000      0.000
REMARK  4 active torsions:
REMARK  status: ('A' for Active; 'I' for Inactive)
REMARK    1  A    between atoms: N1_1  and  N2_4 
REMARK    2  A    between atoms: N3_6  and  C1_8 
REMARK    3  A    between atoms: C1_8  and  O1_9 
REMARK    4  A    between atoms: C3_12  and  O2_13 
ROOT
HETATM    1  C1  UNL     1       5.781  29.841   1.203  1.00  0.00     0.267 C 
HETATM    2  C2  UNL     1       4.420  29.780   0.561  1.00  0.00     0.156 C 
HETATM    3  C3  UNL     1       4.809  31.219   0.259  1.00  0.00     0.269 C 
HETATM    4  O3  UNL     1       5.520  31.200   1.473  1.00  0.00    -0.306 OA
ENDROOT
BRANCH   1   5
HETATM    5  N3  UNL     1       5.927  29.093   2.428  1.00  0.00    -0.264 N 
HETATM    6  N2  UNL     1       5.125  28.177   2.692  1.00  0.00    -0.249 N 
ATOM      7  H2  UNL     1       4.316  28.665   3.077  1.00  0.00     0.207 HD
ATOM      8  H3  UNL     1       6.683  29.314   3.075  1.00  0.00     0.187 HD
BRANCH   6   9
HETATM    9  N1  UNL     1       4.795  26.976   2.731  1.00  0.00    -0.331 N 
ATOM     10  H12 UNL     1       5.337  26.591   1.957  1.00  0.00     0.178 HD
ATOM     11  H11 UNL     1       4.274  26.195   3.129  1.00  0.00     0.178 HD
ENDBRANCH   6   9
ENDBRANCH   1   5
BRANCH   1  12
HETATM   12  O1  UNL     1       6.859  29.738   0.346  1.00  0.00    -0.347 OA
ATOM     13  H1  UNL     1       7.327  28.914   0.406  1.00  0.00     0.215 HD
ENDBRANCH   1  12
BRANCH   3  14
HETATM   14  O2  UNL     1       3.730  32.063   0.220  1.00  0.00    -0.371 OA
ATOM     15  H2  UNL     1       3.537  32.373  -0.657  1.00  0.00     0.212 HD
ENDBRANCH   3  14
TORSDOF 4
ENDMDL
MODEL 2
REMARK VINA RESULT: -4.861107377      2.311      2.885
REMARK  4 active torsions:
REMARK  status: ('A' for Active; 'I' for Inactive)
REMARK    1  A    between atoms: N1_1  and  N2_4 
REMARK    2  A    between atoms: N3_6  and  C1_8 
REMARK    3  A    between atoms: C1_8  and  O1_9 
REMARK    4  A    between atoms: C3_12  and  O2_13 
ROOT
HETATM    1  C1  UNL     1       5.167  32.186   0.094  1.00  0.00     0.267 C 
HETATM    2  C2  UNL     1       4.170  33.141  -0.508  1.00  0.00     0.156 C 
HETATM    3  C3  UNL     1       5.226  34.115  -0.012  1.00  0.00     0.269 C 
HETATM    4  O3  UNL     1       5.473  33.198   1.027  1.00  0.00    -0.306 OA
ENDROOT
BRANCH   1   5
HETATM    5  N3  UNL     1       4.607  31.033   0.755  1.00  0.00    -0.264 N 
HETATM    6  N2  UNL     1       5.307  30.374   1.548  1.00  0.00    -0.249 N 
ATOM      7  H2  UNL     1       5.858  29.768   0.940  1.00  0.00     0.207 HD
ATOM      8  H3  UNL     1       3.642  30.757   0.574  1.00  0.00     0.187 HD
BRANCH   6   9
HETATM    9  N1  UNL     1       5.686  30.070   2.695  1.00  0.00    -0.331 N 
ATOM     10  H12 UNL     1       5.133  30.708   3.268  1.00  0.00     0.178 HD
ATOM     11  H11 UNL     1       6.253  29.524   3.344  1.00  0.00     0.178 HD
ENDBRANCH   6   9
ENDBRANCH   1   5
BRANCH   1  12
HETATM   12  O1  UNL     1       6.281  31.912  -0.674  1.00  0.00    -0.347 OA
ATOM     13  H1  UNL     1       6.123  31.930  -1.610  1.00  0.00     0.215 HD
ENDBRANCH   1  12
BRANCH   3  14
HETATM   14  O2  UNL     1       4.698  35.318   0.376  1.00  0.00    -0.371 OA
ATOM     15  H2  UNL     1       4.358  35.302   1.263  1.00  0.00     0.212 HD
ENDBRANCH   3  14
TORSDOF 4
ENDMDL
MODEL 3
REMARK VINA RESULT: -4.755185454      3.342      3.863
REMARK  4 active torsions:
REMARK  status: ('A' for Active; 'I' for Inactive)
REMARK    1  A    between atoms: N1_1  and  N2_4 
REMARK    2  A    between atoms: N3_6  and  C1_8 
REMARK    3  A    between atoms: C1_8  and  O1_9 
REMARK    4  A    between atoms: C3_12  and  O2_13 
ROOT
HETATM    1  C1  UNL     1       4.933  28.163   3.054  1.00  0.00     0.267 C 
HETATM    2  C2  UNL     1       4.786  28.762   4.428  1.00  0.00     0.156 C 
HETATM    3  C3  UNL     1       3.365  28.283   4.177  1.00  0.00     0.269 C 
HETATM    4  O3  UNL     1       3.598  28.550   2.816  1.00  0.00    -0.306 OA
ENDROOT
BRANCH   1   5
HETATM    5  N3  UNL     1       5.833  28.854   2.164  1.00  0.00    -0.264 N 
HETATM    6  N2  UNL     1       5.375  29.626   1.300  1.00  0.00    -0.249 N 
ATOM      7  H2  UNL     1       5.093  29.004   0.542  1.00  0.00     0.207 HD
ATOM      8  H3  UNL     1       6.840  28.712   2.241  1.00  0.00     0.187 HD
BRANCH   6   9
HETATM    9  N1  UNL     1       5.083  30.761   0.878  1.00  0.00    -0.331 N 
ATOM     10  H12 UNL     1       5.934  31.283   1.086  1.00  0.00     0.178 HD
ATOM     11  H11 UNL     1       4.444  31.426   0.440  1.00  0.00     0.178 HD
ENDBRANCH   6   9
ENDBRANCH   1   5
BRANCH   1  12
HETATM   12  O1  UNL     1       5.032  26.787   3.001  1.00  0.00    -0.347 OA
ATOM     13  H1  UNL     1       5.885  26.468   2.731  1.00  0.00     0.215 HD
ENDBRANCH   1  12
BRANCH   3  14
HETATM   14  O2  UNL     1       2.424  29.076   4.781  1.00  0.00    -0.371 OA
ATOM     15  H2  UNL     1       1.650  29.202   4.245  1.00  0.00     0.212 HD
ENDBRANCH   3  14
TORSDOF 4
ENDMDL
MODEL 4
REMARK VINA RESULT: -4.682153849      3.277      4.215
REMARK  4 active torsions:
REMARK  status: ('A' for Active; 'I' for Inactive)
REMARK    1  A    between atoms: N1_1  and  N2_4 
REMARK    2  A    between atoms: N3_6  and  C1_8 
REMARK    3  A    between atoms: C1_8  and  O1_9 
REMARK    4  A    between atoms: C3_12  and  O2_13 
ROOT
HETATM    1  C1  UNL     1       4.867  31.223   0.441  1.00  0.00     0.267 C 
HETATM    2  C2  UNL     1       5.956  30.378  -0.167  1.00  0.00     0.156 C 
HETATM    3  C3  UNL     1       5.937  29.834   1.252  1.00  0.00     0.269 C 
HETATM    4  O3  UNL     1       5.567  31.128   1.662  1.00  0.00    -0.306 OA
ENDROOT
BRANCH   1   5
HETATM    5  N3  UNL     1       4.813  32.592  -0.012  1.00  0.00    -0.264 N 
HETATM    6  N2  UNL     1       3.989  32.920  -0.887  1.00  0.00    -0.249 N 
ATOM      7  H2  UNL     1       4.436  32.641  -1.760  1.00  0.00     0.207 HD
ATOM      8  H3  UNL     1       5.446  33.287   0.381  1.00  0.00     0.187 HD
BRANCH   6   9
HETATM    9  N1  UNL     1       2.904  33.412  -1.252  1.00  0.00    -0.331 N 
ATOM     10  H12 UNL     1       2.476  32.624  -1.738  1.00  0.00     0.178 HD
ATOM     11  H11 UNL     1       2.235  34.180  -1.314  1.00  0.00     0.178 HD
ENDBRANCH   6   9
ENDBRANCH   1   5
BRANCH   1  12
HETATM   12  O1  UNL     1       3.632  30.620   0.567  1.00  0.00    -0.347 OA
ATOM     13  H1  UNL     1       3.224  30.742   1.415  1.00  0.00     0.215 HD
ENDBRANCH   1  12
BRANCH   3  14
HETATM   14  O2  UNL     1       7.171  29.411   1.675  1.00  0.00    -0.371 OA
ATOM     15  H2  UNL     1       7.878  29.953   1.344  1.00  0.00     0.212 HD
ENDBRANCH   3  14
TORSDOF 4
ENDMDL
MODEL 5
REMARK VINA RESULT: -4.663081753      2.370      2.710
REMARK  4 active torsions:
REMARK  status: ('A' for Active; 'I' for Inactive)
REMARK    1  A    between atoms: N1_1  and  N2_4 
REMARK    2  A    between atoms: N3_6  and  C1_8 
REMARK    3  A    between atoms: C1_8  and  O1_9 
REMARK    4  A    between atoms: C3_12  and  O2_13 
ROOT
HETATM    1  C1  UNL     1       5.249  32.077   0.220  1.00  0.00     0.267 C 
HETATM    2  C2  UNL     1       4.011  32.703  -0.365  1.00  0.00     0.156 C 
HETATM    3  C3  UNL     1       4.903  33.926  -0.219  1.00  0.00     0.269 C 
HETATM    4  O3  UNL     1       5.460  33.291   0.905  1.00  0.00    -0.306 OA
ENDROOT
BRANCH   1   5
HETATM    5  N3  UNL     1       5.023  30.996   1.149  1.00  0.00    -0.264 N 
HETATM    6  N2  UNL     1       4.358  30.005   0.794  1.00  0.00    -0.249 N 
ATOM      7  H2  UNL     1       3.391  30.310   0.901  1.00  0.00     0.207 HD
ATOM      8  H3  UNL     1       5.406  31.044   2.093  1.00  0.00     0.187 HD
BRANCH   6   9
HETATM    9  N1  UNL     1       4.258  28.836   0.376  1.00  0.00    -0.331 N 
ATOM     10  H12 UNL     1       5.041  28.383   0.846  1.00  0.00     0.178 HD
ATOM     11  H11 UNL     1       3.806  28.111  -0.183  1.00  0.00     0.178 HD
ENDBRANCH   6   9
ENDBRANCH   1   5
BRANCH   1  12
HETATM   12  O1  UNL     1       6.289  31.856  -0.661  1.00  0.00    -0.347 OA
ATOM     13  H1  UNL     1       6.869  32.600  -0.774  1.00  0.00     0.215 HD
ENDBRANCH   1  12
BRANCH   3  14
HETATM   14  O2  UNL     1       4.196  35.071   0.039  1.00  0.00    -0.371 OA
ATOM     15  H2  UNL     1       4.425  35.464   0.873  1.00  0.00     0.212 HD
ENDBRANCH   3  14
TORSDOF 4
ENDMDL
