MODEL 1
REMARK VINA RESULT: -8.838952562      0.000      0.000
REMARK  16 active torsions:
REMARK  status: ('A' for Active; 'I' for Inactive)
REMARK    1  A    between atoms: O1_2  and  C2_3 
REMARK    2  A    between atoms: C2_3  and  C3_5 
REMARK    3  A    between atoms: C3_5  and  N1_6 
REMARK    4  A    between atoms: C3_5  and  C6_16 
REMARK       I    between atoms: N1_6  and  C4_8 
REMARK    5  A    between atoms: C4_8  and  C5_10 
REMARK    6  A    between atoms: C5_10  and  N2_11 
REMARK    7  A    between atoms: N2_11  and  N3_13 
REMARK    8  A    between atoms: C6_16  and  N4_17 
REMARK    9  A    between atoms: C6_16  and  O4_21 
REMARK   10  A    between atoms: O4_21  and  C7_22 
REMARK   11  A    between atoms: C10_27  and  N6_28 
REMARK   12  A    between atoms: N10_46  and  O7_47 
REMARK   13  A    between atoms: O7_47  and  S3_48 
REMARK   14  A    between atoms: S3_48  and  O10_51 
REMARK   15  A    between atoms: O10_51  and  C16_52 
REMARK   16  A    between atoms: C16_52  and  C17_53 
ROOT
HETATM    1  C7  UNL     1      -5.602   4.735  24.652  1.00  0.00     0.199 C 
HETATM    2  C8  UNL     1      -4.257   5.359  24.748  1.00  0.00     0.076 A 
HETATM    3  C9  UNL     1      -3.734   5.966  25.870  1.00  0.00     0.111 A 
HETATM    4  N5  UNL     1      -2.477   6.501  25.851  1.00  0.00    -0.184 N 
ATOM      5  H5  UNL     1      -2.120   6.943  26.698  1.00  0.00     0.185 HD
HETATM    6  C10 UNL     1      -1.705   6.469  24.774  1.00  0.00     0.679 A 
HETATM    7  N7  UNL     1      -2.194   5.883  23.671  1.00  0.00    -0.156 N 
ATOM      8  H7  UNL     1      -1.610   5.852  22.836  1.00  0.00     0.187 HD
HETATM    9  C11 UNL     1      -3.411   5.341  23.621  1.00  0.00     0.271 A 
HETATM   10  O5  UNL     1      -3.823   4.804  22.565  1.00  0.00    -0.267 OA
HETATM   11  S1  UNL     1      -4.605   6.131  27.421  1.00  0.00    -0.038 SA
HETATM   12  S2  UNL     1      -3.589   4.964  28.886  1.00  0.00    -0.083 SA
HETATM   13  C12 UNL     1      -4.474   3.340  29.078  1.00  0.00     0.166 C 
HETATM   14  C13 UNL     1      -5.111   3.038  27.766  1.00  0.00     0.139 C 
HETATM   15  N8  UNL     1      -4.102   3.164  26.909  1.00  0.00    -0.290 N 
ATOM     16  H8  UNL     1      -3.195   3.413  27.302  1.00  0.00     0.188 HD
HETATM   17  N9  UNL     1      -4.159   2.997  25.583  1.00  0.00    -0.318 N 
ATOM     18  H9  UNL     1      -3.347   2.688  25.049  1.00  0.00     0.181 HD
HETATM   19  C14 UNL     1      -5.458   3.280  24.924  1.00  0.00     0.227 C 
HETATM   20  C15 UNL     1      -6.431   2.626  25.807  1.00  0.00     0.277 C 
HETATM   21  O6  UNL     1      -7.343   1.940  25.325  1.00  0.00    -0.268 OA
HETATM   22  N10 UNL     1      -6.365   2.749  27.285  1.00  0.00    -0.153 N 
ENDROOT
BRANCH   1  23
HETATM   23  O4  UNL     1      -6.634   5.411  25.237  1.00  0.00    -0.344 OA
BRANCH  23  24
HETATM   24  C6  UNL     1      -7.072   6.530  24.546  1.00  0.00     0.352 C 
BRANCH  24  25
HETATM   25  C3  UNL     1      -8.193   7.320  25.102  1.00  0.00     0.241 C 
BRANCH  25  26
HETATM   26  C2  UNL     1      -8.536   8.588  24.440  1.00  0.00     0.285 C 
HETATM   27  O2  UNL     1      -9.356   8.557  23.450  1.00  0.00    -0.263 OA
BRANCH  26  28
HETATM   28  O1  UNL     1      -8.068   9.835  24.773  1.00  0.00    -0.325 OA
HETATM   29  C1  UNL     1      -7.664  10.143  26.089  1.00  0.00     0.213 C 
ENDBRANCH  26  28
ENDBRANCH  25  26
BRANCH  25  30
HETATM   30  N1  UNL     1      -9.431   6.543  25.131  1.00  0.00    -0.339 N 
HETATM   31  C4  UNL     1      -9.942   5.954  26.302  1.00  0.00     0.259 C 
HETATM   32  O3  UNL     1      -9.362   6.057  27.405  1.00  0.00    -0.267 OA
ATOM     33  H1  UNL     1      -9.949   6.422  24.261  1.00  0.00     0.163 HD
BRANCH  31  34
HETATM   34  C5  UNL     1     -11.198   5.178  26.290  1.00  0.00     0.180 C 
BRANCH  34  35
HETATM   35  N2  UNL     1     -11.218   3.910  26.109  1.00  0.00    -0.313 N 
ATOM     36  H2  UNL     1     -12.109   3.461  25.895  1.00  0.00     0.185 HD
BRANCH  35  37
HETATM   37  N3  UNL     1     -10.075   3.116  26.190  1.00  0.00    -0.345 N 
ATOM     38  H32 UNL     1      -9.597   3.070  27.090  1.00  0.00     0.176 HD
ATOM     39  H31 UNL     1      -9.708   2.590  25.397  1.00  0.00     0.176 HD
ENDBRANCH  35  37
ENDBRANCH  34  35
ENDBRANCH  31  34
ENDBRANCH  25  30
ENDBRANCH  24  25
BRANCH  24  40
HETATM   40  N4  UNL     1      -7.557   6.115  23.191  1.00  0.00    -0.050 N 
ATOM     41  H43 UNL     1      -8.462   6.507  22.931  1.00  0.00     0.277 HD
ATOM     42  H42 UNL     1      -7.035   6.522  22.415  1.00  0.00     0.277 HD
ATOM     43  H41 UNL     1      -7.535   5.096  23.222  1.00  0.00     0.277 HD
ENDBRANCH  24  40
ENDBRANCH  23  24
ENDBRANCH   1  23
BRANCH  22  44
HETATM   44  O7  UNL     1      -7.582   2.484  27.816  1.00  0.00    -0.117 OA
BRANCH  44  45
HETATM   45  S3  UNL     1      -7.735   1.413  29.020  1.00  0.00     0.423 S 
HETATM   46  O8  UNL     1      -7.869   1.936  30.395  1.00  0.00    -0.167 OA
HETATM   47  O9  UNL     1      -8.905   0.482  28.762  1.00  0.00    -0.167 OA
BRANCH  45  48
HETATM   48  O10 UNL     1      -6.371   0.388  29.029  1.00  0.00    -0.248 OA
BRANCH  48  49
HETATM   49  C16 UNL     1      -6.714  -0.817  29.646  1.00  0.00     0.231 C 
BRANCH  49  50
HETATM   50  C17 UNL     1      -5.837  -1.002  30.822  1.00  0.00    -0.033 A 
HETATM   51  C18 UNL     1      -4.624  -0.371  30.884  1.00  0.00     0.009 A 
HETATM   52  C19 UNL     1      -3.814  -0.559  31.992  1.00  0.00     0.001 A 
HETATM   53  C20 UNL     1      -4.211  -1.365  33.014  1.00  0.00     0.000 A 
HETATM   54  C21 UNL     1      -5.425  -2.005  32.964  1.00  0.00     0.001 A 
HETATM   55  C22 UNL     1      -6.232  -1.816  31.861  1.00  0.00     0.009 A 
ENDBRANCH  49  50
ENDBRANCH  48  49
ENDBRANCH  45  48
ENDBRANCH  44  45
ENDBRANCH  22  44
BRANCH   6  56
HETATM   56  N6  UNL     1      -0.527   6.997  24.826  1.00  0.00    -0.234 N 
ATOM     57  H62 UNL     1      -0.241   7.645  25.560  1.00  0.00     0.174 HD
ATOM     58  H61 UNL     1       0.157   6.761  24.106  1.00  0.00     0.174 HD
ENDBRANCH   6  56
TORSDOF 16
ENDMDL
MODEL 2
REMARK VINA RESULT: -8.154886736      3.373      9.531
REMARK  16 active torsions:
REMARK  status: ('A' for Active; 'I' for Inactive)
REMARK    1  A    between atoms: O1_2  and  C2_3 
REMARK    2  A    between atoms: C2_3  and  C3_5 
REMARK    3  A    between atoms: C3_5  and  N1_6 
REMARK    4  A    between atoms: C3_5  and  C6_16 
REMARK       I    between atoms: N1_6  and  C4_8 
REMARK    5  A    between atoms: C4_8  and  C5_10 
REMARK    6  A    between atoms: C5_10  and  N2_11 
REMARK    7  A    between atoms: N2_11  and  N3_13 
REMARK    8  A    between atoms: C6_16  and  N4_17 
REMARK    9  A    between atoms: C6_16  and  O4_21 
REMARK   10  A    between atoms: O4_21  and  C7_22 
REMARK   11  A    between atoms: C10_27  and  N6_28 
REMARK   12  A    between atoms: N10_46  and  O7_47 
REMARK   13  A    between atoms: O7_47  and  S3_48 
REMARK   14  A    between atoms: S3_48  and  O10_51 
REMARK   15  A    between atoms: O10_51  and  C16_52 
REMARK   16  A    between atoms: C16_52  and  C17_53 
ROOT
HETATM    1  C7  UNL     1      -8.630   5.270  25.918  1.00  0.00     0.199 C 
HETATM    2  C8  UNL     1      -9.819   6.134  26.136  1.00  0.00     0.076 A 
HETATM    3  C9  UNL     1      -9.807   7.511  26.205  1.00  0.00     0.111 A 
HETATM    4  N5  UNL     1     -10.965   8.209  26.400  1.00  0.00    -0.184 N 
ATOM      5  H5  UNL     1     -10.922   9.227  26.446  1.00  0.00     0.185 HD
HETATM    6  C10 UNL     1     -12.142   7.614  26.534  1.00  0.00     0.679 A 
HETATM    7  N7  UNL     1     -12.177   6.275  26.470  1.00  0.00    -0.156 N 
ATOM      8  H7  UNL     1     -13.076   5.805  26.571  1.00  0.00     0.187 HD
HETATM    9  C11 UNL     1     -11.086   5.533  26.281  1.00  0.00     0.271 A 
HETATM   10  O5  UNL     1     -11.171   4.283  26.229  1.00  0.00    -0.267 OA
HETATM   11  S1  UNL     1      -8.334   8.511  26.064  1.00  0.00    -0.038 SA
HETATM   12  S2  UNL     1      -8.478   9.666  24.280  1.00  0.00    -0.083 SA
HETATM   13  C12 UNL     1      -7.494   8.829  22.942  1.00  0.00     0.166 C 
HETATM   14  C13 UNL     1      -7.514   7.370  23.242  1.00  0.00     0.139 C 
HETATM   15  N8  UNL     1      -8.809   7.114  23.392  1.00  0.00    -0.290 N 
ATOM     16  H8  UNL     1      -9.448   7.900  23.276  1.00  0.00     0.188 HD
HETATM   17  N9  UNL     1      -9.358   5.928  23.680  1.00  0.00    -0.318 N 
ATOM     18  H9  UNL     1     -10.301   5.690  23.376  1.00  0.00     0.181 HD
HETATM   19  C14 UNL     1      -8.532   4.977  24.463  1.00  0.00     0.227 C 
HETATM   20  C15 UNL     1      -7.218   5.060  23.812  1.00  0.00     0.277 C 
HETATM   21  O6  UNL     1      -6.585   4.026  23.558  1.00  0.00    -0.268 OA
HETATM   22  N10 UNL     1      -6.605   6.358  23.432  1.00  0.00    -0.153 N 
ENDROOT
BRANCH   1  23
HETATM   23  O4  UNL     1      -7.495   5.610  26.595  1.00  0.00    -0.344 OA
BRANCH  23  24
HETATM   24  C6  UNL     1      -7.178   4.785  27.664  1.00  0.00     0.352 C 
BRANCH  24  25
HETATM   25  C3  UNL     1      -6.267   3.641  27.439  1.00  0.00     0.241 C 
BRANCH  25  26
HETATM   26  C2  UNL     1      -6.866   2.308  27.271  1.00  0.00     0.285 C 
HETATM   27  O2  UNL     1      -7.254   1.957  26.096  1.00  0.00    -0.263 OA
BRANCH  26  28
HETATM   28  O1  UNL     1      -7.060   1.370  28.255  1.00  0.00    -0.325 OA
HETATM   29  C1  UNL     1      -6.313   1.393  29.451  1.00  0.00     0.213 C 
ENDBRANCH  26  28
ENDBRANCH  25  26
BRANCH  25  30
HETATM   30  N1  UNL     1      -5.430   3.848  26.259  1.00  0.00    -0.339 N 
HETATM   31  C4  UNL     1      -4.025   3.811  26.296  1.00  0.00     0.259 C 
HETATM   32  O3  UNL     1      -3.393   3.597  27.355  1.00  0.00    -0.267 OA
ATOM     33  H1  UNL     1      -5.887   4.029  25.365  1.00  0.00     0.163 HD
BRANCH  31  34
HETATM   34  C5  UNL     1      -3.214   4.023  25.079  1.00  0.00     0.180 C 
BRANCH  34  35
HETATM   35  N2  UNL     1      -2.735   5.170  24.769  1.00  0.00    -0.313 N 
ATOM     36  H2  UNL     1      -3.217   6.006  25.099  1.00  0.00     0.185 HD
BRANCH  35  37
HETATM   37  N3  UNL     1      -1.583   5.326  23.999  1.00  0.00    -0.345 N 
ATOM     38  H32 UNL     1      -1.577   4.903  23.070  1.00  0.00     0.176 HD
ATOM     39  H31 UNL     1      -0.763   5.837  24.326  1.00  0.00     0.176 HD
ENDBRANCH  35  37
ENDBRANCH  34  35
ENDBRANCH  31  34
ENDBRANCH  25  30
ENDBRANCH  24  25
BRANCH  24  40
HETATM   40  N4  UNL     1      -8.431   4.154  28.188  1.00  0.00    -0.050 N 
ATOM     41  H43 UNL     1      -8.298   3.596  29.031  1.00  0.00     0.277 HD
ATOM     42  H42 UNL     1      -9.093   4.814  28.597  1.00  0.00     0.277 HD
ATOM     43  H41 UNL     1      -8.796   3.631  27.393  1.00  0.00     0.277 HD
ENDBRANCH  24  40
ENDBRANCH  23  24
ENDBRANCH   1  23
BRANCH  22  44
HETATM   44  O7  UNL     1      -5.265   6.205  23.310  1.00  0.00    -0.117 OA
BRANCH  44  45
HETATM   45  S3  UNL     1      -4.590   6.043  21.848  1.00  0.00     0.423 S 
HETATM   46  O8  UNL     1      -3.495   5.064  21.698  1.00  0.00    -0.167 OA
HETATM   47  O9  UNL     1      -5.645   5.722  20.805  1.00  0.00    -0.167 OA
BRANCH  45  48
HETATM   48  O10 UNL     1      -3.955   7.550  21.359  1.00  0.00    -0.248 OA
BRANCH  48  49
HETATM   49  C16 UNL     1      -2.661   7.359  20.870  1.00  0.00     0.231 C 
BRANCH  49  50
HETATM   50  C17 UNL     1      -2.385   8.407  19.865  1.00  0.00    -0.033 A 
HETATM   51  C18 UNL     1      -3.194   9.507  19.775  1.00  0.00     0.009 A 
HETATM   52  C19 UNL     1      -2.922  10.477  18.825  1.00  0.00     0.001 A 
HETATM   53  C20 UNL     1      -1.862  10.347  17.982  1.00  0.00     0.000 A 
HETATM   54  C21 UNL     1      -1.042   9.248  18.060  1.00  0.00     0.001 A 
HETATM   55  C22 UNL     1      -1.313   8.281  19.008  1.00  0.00     0.009 A 
ENDBRANCH  49  50
ENDBRANCH  48  49
ENDBRANCH  45  48
ENDBRANCH  44  45
ENDBRANCH  22  44
BRANCH   6  56
HETATM   56  N6  UNL     1     -13.198   8.336  26.718  1.00  0.00    -0.234 N 
ATOM     57  H62 UNL     1     -13.572   8.963  26.005  1.00  0.00     0.174 HD
ATOM     58  H61 UNL     1     -13.688   8.285  27.611  1.00  0.00     0.174 HD
ENDBRANCH   6  56
TORSDOF 16
ENDMDL
MODEL 3
REMARK VINA RESULT: -8.081622499      1.375      1.590
REMARK  16 active torsions:
REMARK  status: ('A' for Active; 'I' for Inactive)
REMARK    1  A    between atoms: O1_2  and  C2_3 
REMARK    2  A    between atoms: C2_3  and  C3_5 
REMARK    3  A    between atoms: C3_5  and  N1_6 
REMARK    4  A    between atoms: C3_5  and  C6_16 
REMARK       I    between atoms: N1_6  and  C4_8 
REMARK    5  A    between atoms: C4_8  and  C5_10 
REMARK    6  A    between atoms: C5_10  and  N2_11 
REMARK    7  A    between atoms: N2_11  and  N3_13 
REMARK    8  A    between atoms: C6_16  and  N4_17 
REMARK    9  A    between atoms: C6_16  and  O4_21 
REMARK   10  A    between atoms: O4_21  and  C7_22 
REMARK   11  A    between atoms: C10_27  and  N6_28 
REMARK   12  A    between atoms: N10_46  and  O7_47 
REMARK   13  A    between atoms: O7_47  and  S3_48 
REMARK   14  A    between atoms: S3_48  and  O10_51 
REMARK   15  A    between atoms: O10_51  and  C16_52 
REMARK   16  A    between atoms: C16_52  and  C17_53 
ROOT
HETATM    1  C7  UNL     1      -5.493   4.690  24.672  1.00  0.00     0.199 C 
HETATM    2  C8  UNL     1      -4.166   5.353  24.755  1.00  0.00     0.076 A 
HETATM    3  C9  UNL     1      -3.668   6.010  25.861  1.00  0.00     0.111 A 
HETATM    4  N5  UNL     1      -2.426   6.580  25.831  1.00  0.00    -0.184 N 
ATOM      5  H5  UNL     1      -2.086   7.058  26.665  1.00  0.00     0.185 HD
HETATM    6  C10 UNL     1      -1.646   6.534  24.760  1.00  0.00     0.679 A 
HETATM    7  N7  UNL     1      -2.111   5.900  23.674  1.00  0.00    -0.156 N 
ATOM      8  H7  UNL     1      -1.521   5.858  22.843  1.00  0.00     0.187 HD
HETATM    9  C11 UNL     1      -3.312   5.322  23.635  1.00  0.00     0.271 A 
HETATM   10  O5  UNL     1      -3.702   4.741  22.594  1.00  0.00    -0.267 OA
HETATM   11  S1  UNL     1      -4.553   6.201  27.400  1.00  0.00    -0.038 SA
HETATM   12  S2  UNL     1      -3.515   5.111  28.907  1.00  0.00    -0.083 SA
HETATM   13  C12 UNL     1      -4.356   3.470  29.147  1.00  0.00     0.166 C 
HETATM   14  C13 UNL     1      -4.976   3.108  27.842  1.00  0.00     0.139 C 
HETATM   15  N8  UNL     1      -3.965   3.235  26.988  1.00  0.00    -0.290 N 
ATOM     16  H8  UNL     1      -3.068   3.521  27.378  1.00  0.00     0.188 HD
HETATM   17  N9  UNL     1      -4.009   3.023  25.667  1.00  0.00    -0.318 N 
ATOM     18  H9  UNL     1      -3.185   2.720  25.148  1.00  0.00     0.181 HD
HETATM   19  C14 UNL     1      -5.311   3.248  24.992  1.00  0.00     0.227 C 
HETATM   20  C15 UNL     1      -6.271   2.596  25.891  1.00  0.00     0.277 C 
HETATM   21  O6  UNL     1      -7.161   1.871  25.426  1.00  0.00    -0.268 OA
HETATM   22  N10 UNL     1      -6.218   2.769  27.364  1.00  0.00    -0.153 N 
ENDROOT
BRANCH   1  23
HETATM   23  O4  UNL     1      -6.546   5.355  25.229  1.00  0.00    -0.344 OA
BRANCH  23  24
HETATM   24  C6  UNL     1      -6.995   6.453  24.511  1.00  0.00     0.352 C 
BRANCH  24  25
HETATM   25  C3  UNL     1      -8.172   7.200  25.009  1.00  0.00     0.241 C 
BRANCH  25  26
HETATM   26  C2  UNL     1      -8.559   8.428  24.298  1.00  0.00     0.285 C 
HETATM   27  O2  UNL     1      -9.151   8.314  23.162  1.00  0.00    -0.263 OA
BRANCH  26  28
HETATM   28  O1  UNL     1      -8.356   9.717  24.725  1.00  0.00    -0.325 OA
HETATM   29  C1  UNL     1      -7.867   9.995  26.019  1.00  0.00     0.213 C 
ENDBRANCH  26  28
ENDBRANCH  25  26
BRANCH  25  30
HETATM   30  N1  UNL     1      -9.369   6.361  25.028  1.00  0.00    -0.339 N 
HETATM   31  C4  UNL     1      -9.964   5.895  26.214  1.00  0.00     0.259 C 
HETATM   32  O3  UNL     1      -9.499   6.169  27.343  1.00  0.00    -0.267 OA
ATOM     33  H1  UNL     1      -9.793   6.101  24.137  1.00  0.00     0.163 HD
BRANCH  31  34
HETATM   34  C5  UNL     1     -11.175   5.050  26.189  1.00  0.00     0.180 C 
BRANCH  34  35
HETATM   35  N2  UNL     1     -11.118   3.776  26.070  1.00  0.00    -0.313 N 
ATOM     36  H2  UNL     1     -11.979   3.266  25.868  1.00  0.00     0.185 HD
BRANCH  35  37
HETATM   37  N3  UNL     1      -9.933   3.054  26.205  1.00  0.00    -0.345 N 
ATOM     38  H32 UNL     1      -9.276   3.079  25.425  1.00  0.00     0.176 HD
ATOM     39  H31 UNL     1      -9.706   2.513  27.039  1.00  0.00     0.176 HD
ENDBRANCH  35  37
ENDBRANCH  34  35
ENDBRANCH  31  34
ENDBRANCH  25  30
ENDBRANCH  24  25
BRANCH  24  40
HETATM   40  N4  UNL     1      -7.400   6.013  23.138  1.00  0.00    -0.050 N 
ATOM     41  H43 UNL     1      -8.244   5.442  23.112  1.00  0.00     0.277 HD
ATOM     42  H42 UNL     1      -7.756   6.763  22.546  1.00  0.00     0.277 HD
ATOM     43  H41 UNL     1      -6.568   5.550  22.772  1.00  0.00     0.277 HD
ENDBRANCH  24  40
ENDBRANCH  23  24
ENDBRANCH   1  23
BRANCH  22  44
HETATM   44  O7  UNL     1      -7.431   2.487  27.896  1.00  0.00    -0.117 OA
BRANCH  44  45
HETATM   45  S3  UNL     1      -7.598   1.277  28.957  1.00  0.00     0.423 S 
HETATM   46  O8  UNL     1      -8.932   0.658  29.093  1.00  0.00    -0.167 OA
HETATM   47  O9  UNL     1      -6.601   0.170  28.667  1.00  0.00    -0.167 OA
BRANCH  45  48
HETATM   48  O10 UNL     1      -7.169   1.837  30.511  1.00  0.00    -0.248 OA
BRANCH  48  49
HETATM   49  C16 UNL     1      -6.190   0.994  31.042  1.00  0.00     0.231 C 
BRANCH  49  50
HETATM   50  C17 UNL     1      -5.876   1.452  32.411  1.00  0.00    -0.033 A 
HETATM   51  C18 UNL     1      -6.692   2.351  33.043  1.00  0.00     0.009 A 
HETATM   52  C19 UNL     1      -6.380   2.771  34.325  1.00  0.00     0.001 A 
HETATM   53  C20 UNL     1      -5.272   2.302  34.960  1.00  0.00     0.000 A 
HETATM   54  C21 UNL     1      -4.443   1.401  34.338  1.00  0.00     0.001 A 
HETATM   55  C22 UNL     1      -4.755   0.981  33.061  1.00  0.00     0.009 A 
ENDBRANCH  49  50
ENDBRANCH  48  49
ENDBRANCH  45  48
ENDBRANCH  44  45
ENDBRANCH  22  44
BRANCH   6  56
HETATM   56  N6  UNL     1      -0.483   7.096  24.801  1.00  0.00    -0.234 N 
ATOM     57  H62 UNL     1      -0.317   7.995  25.253  1.00  0.00     0.174 HD
ATOM     58  H61 UNL     1       0.312   6.628  24.366  1.00  0.00     0.174 HD
ENDBRANCH   6  56
TORSDOF 16
ENDMDL
MODEL 4
REMARK VINA RESULT: -8.066710227      3.349      9.087
REMARK  16 active torsions:
REMARK  status: ('A' for Active; 'I' for Inactive)
REMARK    1  A    between atoms: O1_2  and  C2_3 
REMARK    2  A    between atoms: C2_3  and  C3_5 
REMARK    3  A    between atoms: C3_5  and  N1_6 
REMARK    4  A    between atoms: C3_5  and  C6_16 
REMARK       I    between atoms: N1_6  and  C4_8 
REMARK    5  A    between atoms: C4_8  and  C5_10 
REMARK    6  A    between atoms: C5_10  and  N2_11 
REMARK    7  A    between atoms: N2_11  and  N3_13 
REMARK    8  A    between atoms: C6_16  and  N4_17 
REMARK    9  A    between atoms: C6_16  and  O4_21 
REMARK   10  A    between atoms: O4_21  and  C7_22 
REMARK   11  A    between atoms: C10_27  and  N6_28 
REMARK   12  A    between atoms: N10_46  and  O7_47 
REMARK   13  A    between atoms: O7_47  and  S3_48 
REMARK   14  A    between atoms: S3_48  and  O10_51 
REMARK   15  A    between atoms: O10_51  and  C16_52 
REMARK   16  A    between atoms: C16_52  and  C17_53 
ROOT
HETATM    1  C7  UNL     1      -8.633   5.254  25.802  1.00  0.00     0.199 C 
HETATM    2  C8  UNL     1      -9.824   6.094  26.088  1.00  0.00     0.076 A 
HETATM    3  C9  UNL     1      -9.819   7.465  26.238  1.00  0.00     0.111 A 
HETATM    4  N5  UNL     1     -10.979   8.142  26.493  1.00  0.00    -0.184 N 
ATOM      5  H5  UNL     1     -10.942   9.155  26.598  1.00  0.00     0.185 HD
HETATM    6  C10 UNL     1     -12.150   7.532  26.608  1.00  0.00     0.679 A 
HETATM    7  N7  UNL     1     -12.178   6.199  26.466  1.00  0.00    -0.156 N 
ATOM      8  H7  UNL     1     -13.072   5.716  26.553  1.00  0.00     0.187 HD
HETATM    9  C11 UNL     1     -11.084   5.477  26.216  1.00  0.00     0.271 A 
HETATM   10  O5  UNL     1     -11.162   4.231  26.092  1.00  0.00    -0.267 OA
HETATM   11  S1  UNL     1      -8.355   8.482  26.135  1.00  0.00    -0.038 SA
HETATM   12  S2  UNL     1      -8.534   9.740  24.424  1.00  0.00    -0.083 SA
HETATM   13  C12 UNL     1      -7.566   8.990  23.025  1.00  0.00     0.166 C 
HETATM   14  C13 UNL     1      -7.572   7.516  23.237  1.00  0.00     0.139 C 
HETATM   15  N8  UNL     1      -8.863   7.243  23.392  1.00  0.00    -0.290 N 
ATOM     16  H8  UNL     1      -9.509   8.030  23.333  1.00  0.00     0.188 HD
HETATM   17  N9  UNL     1      -9.400   6.038  23.618  1.00  0.00    -0.318 N 
ATOM     18  H9  UNL     1     -10.346   5.811  23.314  1.00  0.00     0.181 HD
HETATM   19  C14 UNL     1      -8.556   5.048  24.330  1.00  0.00     0.227 C 
HETATM   20  C15 UNL     1      -7.253   5.179  23.665  1.00  0.00     0.277 C 
HETATM   21  O6  UNL     1      -6.618   4.166  23.341  1.00  0.00    -0.268 OA
HETATM   22  N10 UNL     1      -6.654   6.501  23.354  1.00  0.00    -0.153 N 
ENDROOT
BRANCH   1  23
HETATM   23  O4  UNL     1      -7.489   5.561  26.480  1.00  0.00    -0.344 OA
BRANCH  23  24
HETATM   24  C6  UNL     1      -7.168   4.695  27.515  1.00  0.00     0.352 C 
BRANCH  24  25
HETATM   25  C3  UNL     1      -6.324   3.515  27.223  1.00  0.00     0.241 C 
BRANCH  25  26
HETATM   26  C2  UNL     1      -6.999   2.232  26.971  1.00  0.00     0.285 C 
HETATM   27  O2  UNL     1      -7.315   1.938  25.760  1.00  0.00    -0.263 OA
BRANCH  26  28
HETATM   28  O1  UNL     1      -7.335   1.288  27.909  1.00  0.00    -0.325 OA
HETATM   29  C1  UNL     1      -6.683   1.227  29.159  1.00  0.00     0.213 C 
ENDBRANCH  26  28
ENDBRANCH  25  26
BRANCH  25  30
HETATM   30  N1  UNL     1      -5.466   3.745  26.063  1.00  0.00    -0.339 N 
HETATM   31  C4  UNL     1      -4.061   3.738  26.131  1.00  0.00     0.259 C 
HETATM   32  O3  UNL     1      -3.449   3.534  27.202  1.00  0.00    -0.267 OA
ATOM     33  H1  UNL     1      -5.907   3.918  25.159  1.00  0.00     0.163 HD
BRANCH  31  34
HETATM   34  C5  UNL     1      -3.229   3.972  24.933  1.00  0.00     0.180 C 
BRANCH  34  35
HETATM   35  N2  UNL     1      -2.837   5.143  24.591  1.00  0.00    -0.313 N 
ATOM     36  H2  UNL     1      -3.455   5.935  24.767  1.00  0.00     0.185 HD
BRANCH  35  37
HETATM   37  N3  UNL     1      -1.604   5.382  23.987  1.00  0.00    -0.345 N 
ATOM     38  H32 UNL     1      -1.065   6.182  24.319  1.00  0.00     0.176 HD
ATOM     39  H31 UNL     1      -1.229   4.797  23.241  1.00  0.00     0.176 HD
ENDBRANCH  35  37
ENDBRANCH  34  35
ENDBRANCH  31  34
ENDBRANCH  25  30
ENDBRANCH  24  25
BRANCH  24  40
HETATM   40  N4  UNL     1      -8.427   4.111  28.078  1.00  0.00    -0.050 N 
ATOM     41  H43 UNL     1      -9.256   4.687  27.937  1.00  0.00     0.277 HD
ATOM     42  H42 UNL     1      -8.773   3.295  27.572  1.00  0.00     0.277 HD
ATOM     43  H41 UNL     1      -8.201   3.934  29.056  1.00  0.00     0.277 HD
ENDBRANCH  24  40
ENDBRANCH  23  24
ENDBRANCH   1  23
BRANCH  22  44
HETATM   44  O7  UNL     1      -5.316   6.366  23.202  1.00  0.00    -0.117 OA
BRANCH  44  45
HETATM   45  S3  UNL     1      -4.615   6.701  21.782  1.00  0.00     0.423 S 
HETATM   46  O8  UNL     1      -5.076   7.898  21.050  1.00  0.00    -0.167 OA
HETATM   47  O9  UNL     1      -3.109   6.807  21.941  1.00  0.00    -0.167 OA
BRANCH  45  48
HETATM   48  O10 UNL     1      -4.837   5.379  20.726  1.00  0.00    -0.248 OA
BRANCH  48  49
HETATM   49  C16 UNL     1      -5.095   5.863  19.442  1.00  0.00     0.231 C 
BRANCH  49  50
HETATM   50  C17 UNL     1      -6.448   5.420  19.043  1.00  0.00    -0.033 A 
HETATM   51  C18 UNL     1      -7.024   4.334  19.643  1.00  0.00     0.009 A 
HETATM   52  C19 UNL     1      -8.291   3.931  19.253  1.00  0.00     0.001 A 
HETATM   53  C20 UNL     1      -8.965   4.603  18.281  1.00  0.00     0.000 A 
HETATM   54  C21 UNL     1      -8.399   5.695  17.669  1.00  0.00     0.001 A 
HETATM   55  C22 UNL     1      -7.136   6.096  18.059  1.00  0.00     0.009 A 
ENDBRANCH  49  50
ENDBRANCH  48  49
ENDBRANCH  45  48
ENDBRANCH  44  45
ENDBRANCH  22  44
BRANCH   6  56
HETATM   56  N6  UNL     1     -13.207   8.234  26.851  1.00  0.00    -0.234 N 
ATOM     57  H62 UNL     1     -13.301   9.211  26.571  1.00  0.00     0.174 HD
ATOM     58  H61 UNL     1     -13.990   7.803  27.343  1.00  0.00     0.174 HD
ENDBRANCH   6  56
TORSDOF 16
ENDMDL
MODEL 5
REMARK VINA RESULT: -8.056015253      1.904      2.435
REMARK  16 active torsions:
REMARK  status: ('A' for Active; 'I' for Inactive)
REMARK    1  A    between atoms: O1_2  and  C2_3 
REMARK    2  A    between atoms: C2_3  and  C3_5 
REMARK    3  A    between atoms: C3_5  and  N1_6 
REMARK    4  A    between atoms: C3_5  and  C6_16 
REMARK       I    between atoms: N1_6  and  C4_8 
REMARK    5  A    between atoms: C4_8  and  C5_10 
REMARK    6  A    between atoms: C5_10  and  N2_11 
REMARK    7  A    between atoms: N2_11  and  N3_13 
REMARK    8  A    between atoms: C6_16  and  N4_17 
REMARK    9  A    between atoms: C6_16  and  O4_21 
REMARK   10  A    between atoms: O4_21  and  C7_22 
REMARK   11  A    between atoms: C10_27  and  N6_28 
REMARK   12  A    between atoms: N10_46  and  O7_47 
REMARK   13  A    between atoms: O7_47  and  S3_48 
REMARK   14  A    between atoms: S3_48  and  O10_51 
REMARK   15  A    between atoms: O10_51  and  C16_52 
REMARK   16  A    between atoms: C16_52  and  C17_53 
ROOT
HETATM    1  C7  UNL     1      -7.224   4.559  25.339  1.00  0.00     0.199 C 
HETATM    2  C8  UNL     1      -5.865   4.903  24.847  1.00  0.00     0.076 A 
HETATM    3  C9  UNL     1      -4.814   5.331  25.632  1.00  0.00     0.111 A 
HETATM    4  N5  UNL     1      -3.599   5.613  25.075  1.00  0.00    -0.184 N 
ATOM      5  H5  UNL     1      -2.842   5.926  25.683  1.00  0.00     0.185 HD
HETATM    6  C10 UNL     1      -3.365   5.495  23.775  1.00  0.00     0.679 A 
HETATM    7  N7  UNL     1      -4.373   5.081  22.994  1.00  0.00    -0.156 N 
ATOM      8  H7  UNL     1      -4.207   4.986  21.992  1.00  0.00     0.187 HD
HETATM    9  C11 UNL     1      -5.584   4.788  23.471  1.00  0.00     0.271 A 
HETATM   10  O5  UNL     1      -6.494   4.404  22.699  1.00  0.00    -0.267 OA
HETATM   11  S1  UNL     1      -4.912   5.570  27.399  1.00  0.00    -0.038 SA
HETATM   12  S2  UNL     1      -3.638   4.144  28.338  1.00  0.00    -0.083 SA
HETATM   13  C12 UNL     1      -4.669   2.714  28.928  1.00  0.00     0.166 C 
HETATM   14  C13 UNL     1      -5.838   2.619  28.010  1.00  0.00     0.139 C 
HETATM   15  N8  UNL     1      -5.272   2.597  26.808  1.00  0.00    -0.290 N 
ATOM     16  H8  UNL     1      -4.254   2.642  26.779  1.00  0.00     0.188 HD
HETATM   17  N9  UNL     1      -5.905   2.522  25.631  1.00  0.00    -0.318 N 
ATOM     18  H9  UNL     1      -5.467   2.094  24.816  1.00  0.00     0.181 HD
HETATM   19  C14 UNL     1      -7.275   3.089  25.567  1.00  0.00     0.227 C 
HETATM   20  C15 UNL     1      -7.904   2.585  26.794  1.00  0.00     0.277 C 
HETATM   21  O6  UNL     1      -9.051   2.119  26.756  1.00  0.00    -0.268 OA
HETATM   22  N10 UNL     1      -7.208   2.607  28.105  1.00  0.00    -0.153 N 
ENDROOT
BRANCH   1  23
HETATM   23  O4  UNL     1      -7.762   5.385  26.282  1.00  0.00    -0.344 OA
BRANCH  23  24
HETATM   24  C6  UNL     1      -9.039   5.848  26.000  1.00  0.00     0.352 C 
BRANCH  24  25
HETATM   25  C3  UNL     1      -9.337   7.284  26.194  1.00  0.00     0.241 C 
BRANCH  25  26
HETATM   26  C2  UNL     1      -8.363   8.264  25.688  1.00  0.00     0.285 C 
HETATM   27  O2  UNL     1      -8.369   9.446  26.195  1.00  0.00    -0.263 OA
BRANCH  26  28
HETATM   28  O1  UNL     1      -7.423   8.051  24.711  1.00  0.00    -0.325 OA
HETATM   29  C1  UNL     1      -7.773   8.029  23.344  1.00  0.00     0.213 C 
ENDBRANCH  26  28
ENDBRANCH  25  26
BRANCH  25  30
HETATM   30  N1  UNL     1     -10.616   7.651  25.589  1.00  0.00    -0.339 N 
HETATM   31  C4  UNL     1     -11.818   7.726  26.316  1.00  0.00     0.259 C 
HETATM   32  O3  UNL     1     -11.870   7.478  27.542  1.00  0.00    -0.267 OA
ATOM     33  H1  UNL     1     -10.639   7.863  24.592  1.00  0.00     0.163 HD
BRANCH  31  34
HETATM   34  C5  UNL     1     -13.091   8.103  25.668  1.00  0.00     0.180 C 
BRANCH  34  35
HETATM   35  N2  UNL     1     -14.119   7.339  25.686  1.00  0.00    -0.313 N 
ATOM     36  H2  UNL     1     -14.008   6.364  25.407  1.00  0.00     0.185 HD
BRANCH  35  37
HETATM   37  N3  UNL     1     -15.385   7.782  26.068  1.00  0.00    -0.345 N 
ATOM     38  H32 UNL     1     -15.542   8.790  26.094  1.00  0.00     0.176 HD
ATOM     39  H31 UNL     1     -16.142   7.147  26.317  1.00  0.00     0.176 HD
ENDBRANCH  35  37
ENDBRANCH  34  35
ENDBRANCH  31  34
ENDBRANCH  25  30
ENDBRANCH  24  25
BRANCH  24  40
HETATM   40  N4  UNL     1     -10.023   5.150  26.886  1.00  0.00    -0.050 N 
ATOM     41  H43 UNL     1      -9.694   4.261  27.261  1.00  0.00     0.277 HD
ATOM     42  H42 UNL     1     -10.169   5.603  27.789  1.00  0.00     0.277 HD
ATOM     43  H41 UNL     1     -10.864   5.077  26.313  1.00  0.00     0.277 HD
ENDBRANCH  24  40
ENDBRANCH  23  24
ENDBRANCH   1  23
BRANCH  22  44
HETATM   44  O7  UNL     1      -8.123   2.551  29.102  1.00  0.00    -0.117 OA
BRANCH  44  45
HETATM   45  S3  UNL     1      -8.132   1.306  30.137  1.00  0.00     0.423 S 
HETATM   46  O8  UNL     1      -9.151   1.305  31.205  1.00  0.00    -0.167 OA
HETATM   47  O9  UNL     1      -8.243  -0.009  29.388  1.00  0.00    -0.167 OA
BRANCH  45  48
HETATM   48  O10 UNL     1      -6.618   1.222  30.919  1.00  0.00    -0.248 OA
BRANCH  48  49
HETATM   49  C16 UNL     1      -6.142  -0.088  30.846  1.00  0.00     0.231 C 
BRANCH  49  50
HETATM   50  C17 UNL     1      -5.574  -0.450  32.162  1.00  0.00    -0.033 A 
HETATM   51  C18 UNL     1      -5.589  -1.752  32.585  1.00  0.00     0.009 A 
HETATM   52  C19 UNL     1      -5.055  -2.072  33.822  1.00  0.00     0.001 A 
HETATM   53  C20 UNL     1      -4.519  -1.108  34.619  1.00  0.00     0.000 A 
HETATM   54  C21 UNL     1      -4.498   0.202  34.207  1.00  0.00     0.001 A 
HETATM   55  C22 UNL     1      -5.030   0.521  32.974  1.00  0.00     0.009 A 
ENDBRANCH  49  50
ENDBRANCH  48  49
ENDBRANCH  45  48
ENDBRANCH  44  45
ENDBRANCH  22  44
BRANCH   6  56
HETATM   56  N6  UNL     1      -2.192   5.781  23.316  1.00  0.00    -0.234 N 
ATOM     57  H62 UNL     1      -1.423   6.089  23.911  1.00  0.00     0.174 HD
ATOM     58  H61 UNL     1      -2.015   5.697  22.315  1.00  0.00     0.174 HD
ENDBRANCH   6  56
TORSDOF 16
ENDMDL
