MODEL 1
REMARK VINA RESULT: -7.643732568      0.000      0.000
REMARK  7 active torsions:
REMARK  status: ('A' for Active; 'I' for Inactive)
REMARK    1  A    between atoms: C2_2  and  C3_4 
REMARK    2  A    between atoms: C3_4  and  O1_5 
REMARK    3  A    between atoms: C3_4  and  N1_7 
REMARK    4  A    between atoms: C5_10  and  C6_11 
REMARK    5  A    between atoms: C9_16  and  O3_17 
REMARK    6  A    between atoms: C12_23  and  O4_24 
REMARK    7  A    between atoms: C20_39  and  C21_40 
ROOT
HETATM    1  N1  UNL     1      19.884 -16.178  23.508  1.00  0.00    -0.281 N 
HETATM    2  C4  UNL     1      19.264 -15.013  23.008  1.00  0.00     0.249 C 
HETATM    3  O2  UNL     1      19.497 -13.982  23.731  1.00  0.00    -0.271 OA
HETATM    4  C5  UNL     1      18.414 -14.757  21.832  1.00  0.00     0.179 C 
HETATM    5  N2  UNL     1      17.037 -14.472  22.189  1.00  0.00    -0.359 N 
ATOM      6  H2  UNL     1      16.939 -14.030  23.104  1.00  0.00     0.162 HD
HETATM    7  C9  UNL     1      15.841 -14.674  21.550  1.00  0.00     0.135 C 
HETATM    8  C10 UNL     1      15.490 -15.622  20.448  1.00  0.00     0.153 C 
HETATM    9  C11 UNL     1      14.765 -14.849  19.329  1.00  0.00     0.041 C 
HETATM   10  N3  UNL     1      14.574 -16.643  20.874  1.00  0.00    -0.361 N 
ATOM     11  H3  UNL     1      13.913 -16.339  21.588  1.00  0.00     0.162 HD
HETATM   12  C12 UNL     1      14.424 -17.982  20.485  1.00  0.00     0.135 C 
HETATM   13  C13 UNL     1      15.321 -19.129  20.691  1.00  0.00     0.155 C 
HETATM   14  C14 UNL     1      14.437 -20.400  20.510  1.00  0.00     0.041 C 
HETATM   15  N4  UNL     1      16.406 -19.267  19.764  1.00  0.00    -0.347 N 
ATOM     16  H4  UNL     1      16.270 -18.901  18.821  1.00  0.00     0.163 HD
HETATM   17  C15 UNL     1      17.656 -19.873  20.055  1.00  0.00     0.245 C 
HETATM   18  O5  UNL     1      18.135 -20.670  19.210  1.00  0.00    -0.271 OA
HETATM   19  C16 UNL     1      18.429 -19.599  21.332  1.00  0.00     0.106 C 
HETATM   20  C17 UNL     1      18.315 -20.786  22.216  1.00  0.00     0.048 C 
HETATM   21  C18 UNL     1      19.900 -19.470  20.921  1.00  0.00     0.048 C 
HETATM   22  N5  UNL     1      18.026 -18.346  21.863  1.00  0.00    -0.342 N 
ATOM     23  H5  UNL     1      17.648 -17.719  21.152  1.00  0.00     0.163 HD
HETATM   24  C19 UNL     1      18.029 -17.780  23.129  1.00  0.00     0.242 C 
HETATM   25  O6  UNL     1      16.867 -17.559  23.668  1.00  0.00    -0.271 OA
HETATM   26  C20 UNL     1      19.158 -17.380  23.981  1.00  0.00     0.190 C 
ENDROOT
BRANCH   1  27
HETATM   27  C3  UNL     1      21.301 -16.333  23.635  1.00  0.00     0.167 C 
BRANCH  27  28
HETATM   28  C2  UNL     1      22.120 -17.339  24.174  1.00  0.00     0.075 C 
HETATM   29  C1  UNL     1      22.609 -18.288  23.344  1.00  0.00     0.041 C 
HETATM   30 CL1  UNL     1      22.581 -17.520  25.825  1.00  0.00    -0.081 Cl
ENDBRANCH  27  28
BRANCH  27  31
HETATM   31  O1  UNL     1      22.012 -15.333  23.152  1.00  0.00    -0.345 OA
ATOM     32  H1  UNL     1      22.807 -15.193  23.653  1.00  0.00     0.219 HD
ENDBRANCH  27  31
ENDBRANCH   1  27
BRANCH  26  33
HETATM   33  C21 UNL     1      18.691 -17.287  25.395  1.00  0.00     0.010 C 
HETATM   34  C22 UNL     1      19.144 -16.088  26.175  1.00  0.00     0.012 C 
HETATM   35  C23 UNL     1      19.122 -18.511  26.177  1.00  0.00     0.012 C 
ENDBRANCH  26  33
BRANCH   4  36
HETATM   36  C6  UNL     1      18.907 -13.469  21.140  1.00  0.00     0.009 C 
HETATM   37  C7  UNL     1      20.218 -13.692  20.413  1.00  0.00     0.012 C 
HETATM   38  C8  UNL     1      17.927 -12.915  20.155  1.00  0.00     0.012 C 
ENDBRANCH   4  36
BRANCH   7  39
HETATM   39  O3  UNL     1      14.828 -13.948  21.931  1.00  0.00    -0.348 OA
ATOM     40  H3  UNL     1      14.138 -14.383  22.418  1.00  0.00     0.219 HD
ENDBRANCH   7  39
BRANCH  12  41
HETATM   41  O4  UNL     1      13.328 -18.275  19.842  1.00  0.00    -0.348 OA
ATOM     42  H4  UNL     1      12.523 -18.234  20.345  1.00  0.00     0.219 HD
ENDBRANCH  12  41
TORSDOF 7
ENDMDL
MODEL 2
REMARK VINA RESULT: -7.062713164      1.220      1.347
REMARK  7 active torsions:
REMARK  status: ('A' for Active; 'I' for Inactive)
REMARK    1  A    between atoms: C2_2  and  C3_4 
REMARK    2  A    between atoms: C3_4  and  O1_5 
REMARK    3  A    between atoms: C3_4  and  N1_7 
REMARK    4  A    between atoms: C5_10  and  C6_11 
REMARK    5  A    between atoms: C9_16  and  O3_17 
REMARK    6  A    between atoms: C12_23  and  O4_24 
REMARK    7  A    between atoms: C20_39  and  C21_40 
ROOT
HETATM    1  N1  UNL     1      19.711 -15.987  23.529  1.00  0.00    -0.281 N 
HETATM    2  C4  UNL     1      18.868 -14.999  22.977  1.00  0.00     0.249 C 
HETATM    3  O2  UNL     1      18.787 -13.954  23.712  1.00  0.00    -0.271 OA
HETATM    4  C5  UNL     1      18.076 -14.939  21.737  1.00  0.00     0.179 C 
HETATM    5  N2  UNL     1      16.648 -15.001  21.982  1.00  0.00    -0.359 N 
ATOM      6  H2  UNL     1      16.374 -14.610  22.884  1.00  0.00     0.162 HD
HETATM    7  C9  UNL     1      15.590 -15.477  21.251  1.00  0.00     0.135 C 
HETATM    8  C10 UNL     1      15.566 -16.465  20.128  1.00  0.00     0.153 C 
HETATM    9  C11 UNL     1      14.764 -15.873  18.952  1.00  0.00     0.041 C 
HETATM   10  N3  UNL     1      14.895 -17.683  20.484  1.00  0.00    -0.361 N 
ATOM     11  H3  UNL     1      14.127 -17.560  21.142  1.00  0.00     0.162 HD
HETATM   12  C12 UNL     1      15.106 -19.013  20.089  1.00  0.00     0.135 C 
HETATM   13  C13 UNL     1      16.235 -19.912  20.370  1.00  0.00     0.155 C 
HETATM   14  C14 UNL     1      15.703 -21.355  20.124  1.00  0.00     0.041 C 
HETATM   15  N4  UNL     1      17.390 -19.768  19.532  1.00  0.00    -0.347 N 
ATOM     16  H4  UNL     1      17.242 -19.431  18.581  1.00  0.00     0.163 HD
HETATM   17  C15 UNL     1      18.723 -20.057  19.924  1.00  0.00     0.245 C 
HETATM   18  O5  UNL     1      19.445 -20.701  19.123  1.00  0.00    -0.271 OA
HETATM   19  C16 UNL     1      19.305 -19.624  21.257  1.00  0.00     0.106 C 
HETATM   20  C17 UNL     1      19.413 -20.817  22.133  1.00  0.00     0.048 C 
HETATM   21  C18 UNL     1      20.728 -19.137  20.964  1.00  0.00     0.048 C 
HETATM   22  N5  UNL     1      18.569 -18.515  21.749  1.00  0.00    -0.342 N 
ATOM     23  H5  UNL     1      18.107 -17.988  21.008  1.00  0.00     0.163 HD
HETATM   24  C19 UNL     1      18.336 -17.985  23.010  1.00  0.00     0.242 C 
HETATM   25  O6  UNL     1      17.117 -18.060  23.454  1.00  0.00    -0.271 OA
HETATM   26  C20 UNL     1      19.264 -17.337  23.947  1.00  0.00     0.190 C 
ENDROOT
BRANCH   1  27
HETATM   27  C3  UNL     1      21.110 -15.797  23.769  1.00  0.00     0.167 C 
BRANCH  27  28
HETATM   28  C2  UNL     1      21.854 -14.788  24.401  1.00  0.00     0.075 C 
HETATM   29  C1  UNL     1      23.057 -14.452  23.885  1.00  0.00     0.041 C 
HETATM   30 CL1  UNL     1      21.406 -13.906  25.814  1.00  0.00    -0.081 Cl
ENDBRANCH  27  28
BRANCH  27  31
HETATM   31  O1  UNL     1      21.885 -16.758  23.308  1.00  0.00    -0.345 OA
ATOM     32  H1  UNL     1      22.204 -17.317  24.006  1.00  0.00     0.219 HD
ENDBRANCH  27  31
ENDBRANCH   1  27
BRANCH  26  33
HETATM   33  C21 UNL     1      18.680 -17.382  25.320  1.00  0.00     0.010 C 
HETATM   34  C22 UNL     1      18.794 -16.130  26.139  1.00  0.00     0.012 C 
HETATM   35  C23 UNL     1      19.311 -18.498  26.127  1.00  0.00     0.012 C 
ENDBRANCH  26  33
BRANCH   4  36
HETATM   36  C6  UNL     1      18.293 -13.559  21.081  1.00  0.00     0.009 C 
HETATM   37  C7  UNL     1      19.647 -13.469  20.405  1.00  0.00     0.012 C 
HETATM   38  C8  UNL     1      17.251 -13.216  20.064  1.00  0.00     0.012 C 
ENDBRANCH   4  36
BRANCH   7  39
HETATM   39  O3  UNL     1      14.404 -15.024  21.548  1.00  0.00    -0.348 OA
ATOM     40  H3  UNL     1      13.779 -15.642  21.907  1.00  0.00     0.219 HD
ENDBRANCH   7  39
BRANCH  12  41
HETATM   41  O4  UNL     1      14.167 -19.552  19.362  1.00  0.00    -0.348 OA
ATOM     42  H4  UNL     1      13.366 -19.049  19.270  1.00  0.00     0.219 HD
ENDBRANCH  12  41
TORSDOF 7
ENDMDL
MODEL 3
REMARK VINA RESULT: -7.060249133      2.262      2.928
REMARK  7 active torsions:
REMARK  status: ('A' for Active; 'I' for Inactive)
REMARK    1  A    between atoms: C2_2  and  C3_4 
REMARK    2  A    between atoms: C3_4  and  O1_5 
REMARK    3  A    between atoms: C3_4  and  N1_7 
REMARK    4  A    between atoms: C5_10  and  C6_11 
REMARK    5  A    between atoms: C9_16  and  O3_17 
REMARK    6  A    between atoms: C12_23  and  O4_24 
REMARK    7  A    between atoms: C20_39  and  C21_40 
ROOT
HETATM    1  N1  UNL     1      18.238 -16.179  22.156  1.00  0.00    -0.281 N 
HETATM    2  C4  UNL     1      17.132 -15.415  21.728  1.00  0.00     0.249 C 
HETATM    3  O2  UNL     1      17.198 -14.195  22.109  1.00  0.00    -0.271 OA
HETATM    4  C5  UNL     1      15.933 -15.746  20.938  1.00  0.00     0.179 C 
HETATM    5  N2  UNL     1      14.720 -15.738  21.733  1.00  0.00    -0.359 N 
ATOM      6  H2  UNL     1      14.756 -15.090  22.521  1.00  0.00     0.162 HD
HETATM    7  C9  UNL     1      13.535 -16.423  21.644  1.00  0.00     0.135 C 
HETATM    8  C10 UNL     1      13.220 -17.710  20.950  1.00  0.00     0.153 C 
HETATM    9  C11 UNL     1      11.969 -17.515  20.071  1.00  0.00     0.041 C 
HETATM   10  N3  UNL     1      12.892 -18.763  21.868  1.00  0.00    -0.361 N 
ATOM     11  H3  UNL     1      12.415 -18.447  22.713  1.00  0.00     0.162 HD
HETATM   12  C12 UNL     1      13.107 -20.148  21.815  1.00  0.00     0.135 C 
HETATM   13  C13 UNL     1      14.364 -20.909  21.868  1.00  0.00     0.155 C 
HETATM   14  C14 UNL     1      13.967 -22.362  22.269  1.00  0.00     0.041 C 
HETATM   15  N4  UNL     1      15.095 -21.024  20.639  1.00  0.00    -0.347 N 
ATOM     16  H4  UNL     1      14.561 -20.998  19.770  1.00  0.00     0.163 HD
HETATM   17  C15 UNL     1      16.503 -21.170  20.538  1.00  0.00     0.245 C 
HETATM   18  O5  UNL     1      16.949 -22.025  19.733  1.00  0.00    -0.271 OA
HETATM   19  C16 UNL     1      17.480 -20.343  21.352  1.00  0.00     0.106 C 
HETATM   20  C17 UNL     1      18.058 -21.206  22.412  1.00  0.00     0.048 C 
HETATM   21  C18 UNL     1      18.616 -19.960  20.398  1.00  0.00     0.048 C 
HETATM   22  N5  UNL     1      16.846 -19.140  21.761  1.00  0.00    -0.342 N 
ATOM     23  H5  UNL     1      16.077 -18.870  21.147  1.00  0.00     0.163 HD
HETATM   24  C19 UNL     1      17.035 -18.248  22.807  1.00  0.00     0.242 C 
HETATM   25  O6  UNL     1      16.090 -18.190  23.697  1.00  0.00    -0.271 OA
HETATM   26  C20 UNL     1      18.155 -17.336  23.078  1.00  0.00     0.190 C 
ENDROOT
BRANCH   1  27
HETATM   27  C3  UNL     1      19.588 -15.915  21.761  1.00  0.00     0.167 C 
BRANCH  27  28
HETATM   28  C2  UNL     1      20.346 -14.740  21.632  1.00  0.00     0.075 C 
HETATM   29  C1  UNL     1      21.172 -14.389  22.643  1.00  0.00     0.041 C 
HETATM   30 CL1  UNL     1      20.339 -13.648  20.297  1.00  0.00    -0.081 Cl
ENDBRANCH  27  28
BRANCH  27  31
HETATM   31  O1  UNL     1      20.291 -16.985  21.446  1.00  0.00    -0.345 OA
ATOM     32  H1  UNL     1      20.162 -17.687  22.073  1.00  0.00     0.219 HD
ENDBRANCH  27  31
ENDBRANCH   1  27
BRANCH  26  33
HETATM   33  C21 UNL     1      18.137 -16.959  24.522  1.00  0.00     0.010 C 
HETATM   34  C22 UNL     1      18.422 -15.522  24.844  1.00  0.00     0.012 C 
HETATM   35  C23 UNL     1      19.133 -17.793  25.300  1.00  0.00     0.012 C 
ENDBRANCH  26  33
BRANCH   4  36
HETATM   36  C6  UNL     1      15.712 -14.635  19.890  1.00  0.00     0.009 C 
HETATM   37  C7  UNL     1      15.127 -15.186  18.606  1.00  0.00     0.012 C 
HETATM   38  C8  UNL     1      14.812 -13.540  20.370  1.00  0.00     0.012 C 
ENDBRANCH   4  36
BRANCH   7  39
HETATM   39  O3  UNL     1      12.499 -15.908  22.245  1.00  0.00    -0.348 OA
ATOM     40  H3  UNL     1      11.661 -16.333  22.109  1.00  0.00     0.219 HD
ENDBRANCH   7  39
BRANCH  12  41
HETATM   41  O4  UNL     1      12.041 -20.892  21.701  1.00  0.00    -0.348 OA
ATOM     42  H4  UNL     1      11.278 -20.474  21.321  1.00  0.00     0.219 HD
ENDBRANCH  12  41
TORSDOF 7
ENDMDL
MODEL 4
REMARK VINA RESULT: -6.844154020      3.390      7.403
REMARK  7 active torsions:
REMARK  status: ('A' for Active; 'I' for Inactive)
REMARK    1  A    between atoms: C2_2  and  C3_4 
REMARK    2  A    between atoms: C3_4  and  O1_5 
REMARK    3  A    between atoms: C3_4  and  N1_7 
REMARK    4  A    between atoms: C5_10  and  C6_11 
REMARK    5  A    between atoms: C9_16  and  O3_17 
REMARK    6  A    between atoms: C12_23  and  O4_24 
REMARK    7  A    between atoms: C20_39  and  C21_40 
ROOT
HETATM    1  N1  UNL     1      14.375 -13.427  19.257  1.00  0.00    -0.281 N 
HETATM    2  C4  UNL     1      13.926 -14.762  19.347  1.00  0.00     0.249 C 
HETATM    3  O2  UNL     1      12.671 -14.876  19.124  1.00  0.00    -0.271 OA
HETATM    4  C5  UNL     1      14.614 -16.031  19.643  1.00  0.00     0.179 C 
HETATM    5  N2  UNL     1      14.248 -16.576  20.936  1.00  0.00    -0.359 N 
ATOM      6  H2  UNL     1      13.303 -16.327  21.228  1.00  0.00     0.162 HD
HETATM    7  C9  UNL     1      14.913 -17.357  21.847  1.00  0.00     0.135 C 
HETATM    8  C10 UNL     1      16.380 -17.586  22.024  1.00  0.00     0.153 C 
HETATM    9  C11 UNL     1      16.649 -19.102  22.095  1.00  0.00     0.041 C 
HETATM   10  N3  UNL     1      16.874 -17.044  23.259  1.00  0.00    -0.361 N 
ATOM     11  H3  UNL     1      16.203 -17.072  24.025  1.00  0.00     0.162 HD
HETATM   12  C12 UNL     1      18.114 -16.484  23.601  1.00  0.00     0.135 C 
HETATM   13  C13 UNL     1      18.737 -15.229  23.156  1.00  0.00     0.155 C 
HETATM   14  C14 UNL     1      19.829 -14.894  24.215  1.00  0.00     0.041 C 
HETATM   15  N4  UNL     1      19.410 -15.263  21.890  1.00  0.00    -0.347 N 
ATOM     16  H4  UNL     1      19.810 -16.154  21.594  1.00  0.00     0.163 HD
HETATM   17  C15 UNL     1      19.563 -14.155  21.016  1.00  0.00     0.245 C 
HETATM   18  O5  UNL     1      20.691 -13.968  20.495  1.00  0.00    -0.271 OA
HETATM   19  C16 UNL     1      18.431 -13.199  20.690  1.00  0.00     0.106 C 
HETATM   20  C17 UNL     1      18.676 -11.920  21.402  1.00  0.00     0.048 C 
HETATM   21  C18 UNL     1      18.531 -12.917  19.187  1.00  0.00     0.048 C 
HETATM   22  N5  UNL     1      17.190 -13.848  20.918  1.00  0.00    -0.342 N 
ATOM     23  H5  UNL     1      17.258 -14.864  20.854  1.00  0.00     0.163 HD
HETATM   24  C19 UNL     1      15.905 -13.415  21.209  1.00  0.00     0.242 C 
HETATM   25  O6  UNL     1      15.446 -13.712  22.388  1.00  0.00    -0.271 OA
HETATM   26  C20 UNL     1      14.955 -12.657  20.382  1.00  0.00     0.190 C 
ENDROOT
BRANCH   1  27
HETATM   27  C3  UNL     1      14.308 -12.644  18.061  1.00  0.00     0.167 C 
BRANCH  27  28
HETATM   28  C2  UNL     1      14.986 -12.694  16.833  1.00  0.00     0.075 C 
HETATM   29  C1  UNL     1      15.585 -13.851  16.471  1.00  0.00     0.041 C 
HETATM   30 CL1  UNL     1      15.164 -11.407  15.698  1.00  0.00    -0.081 Cl
ENDBRANCH  27  28
BRANCH  27  31
HETATM   31  O1  UNL     1      13.431 -11.659  18.093  1.00  0.00    -0.345 OA
ATOM     32  H1  UNL     1      13.806 -10.867  18.460  1.00  0.00     0.219 HD
ENDBRANCH  27  31
ENDBRANCH   1  27
BRANCH  26  33
HETATM   33  C21 UNL     1      13.936 -12.023  21.270  1.00  0.00     0.010 C 
HETATM   34  C22 UNL     1      12.513 -12.459  21.077  1.00  0.00     0.012 C 
HETATM   35  C23 UNL     1      13.962 -10.516  21.114  1.00  0.00     0.012 C 
ENDBRANCH  26  33
BRANCH   4  36
HETATM   36  C6  UNL     1      14.139 -17.094  18.630  1.00  0.00     0.009 C 
HETATM   37  C7  UNL     1      15.303 -17.871  18.048  1.00  0.00     0.012 C 
HETATM   38  C8  UNL     1      13.179 -18.081  19.215  1.00  0.00     0.012 C 
ENDBRANCH   4  36
BRANCH   7  39
HETATM   39  O3  UNL     1      14.192 -18.018  22.708  1.00  0.00    -0.348 OA
ATOM     40  H3  UNL     1      14.500 -18.043  23.606  1.00  0.00     0.219 HD
ENDBRANCH   7  39
BRANCH  12  41
HETATM   41  O4  UNL     1      18.840 -17.166  24.443  1.00  0.00    -0.348 OA
ATOM     42  H4  UNL     1      19.774 -16.992  24.429  1.00  0.00     0.219 HD
ENDBRANCH  12  41
TORSDOF 7
ENDMDL
MODEL 5
REMARK VINA RESULT: -6.766760535      2.037      2.716
REMARK  7 active torsions:
REMARK  status: ('A' for Active; 'I' for Inactive)
REMARK    1  A    between atoms: C2_2  and  C3_4 
REMARK    2  A    between atoms: C3_4  and  O1_5 
REMARK    3  A    between atoms: C3_4  and  N1_7 
REMARK    4  A    between atoms: C5_10  and  C6_11 
REMARK    5  A    between atoms: C9_16  and  O3_17 
REMARK    6  A    between atoms: C12_23  and  O4_24 
REMARK    7  A    between atoms: C20_39  and  C21_40 
ROOT
HETATM    1  N1  UNL     1      18.203 -17.287  22.513  1.00  0.00    -0.281 N 
HETATM    2  C4  UNL     1      18.036 -15.887  22.444  1.00  0.00     0.249 C 
HETATM    3  O2  UNL     1      18.583 -15.276  23.427  1.00  0.00    -0.271 OA
HETATM    4  C5  UNL     1      17.362 -15.006  21.473  1.00  0.00     0.179 C 
HETATM    5  N2  UNL     1      16.156 -14.405  22.008  1.00  0.00    -0.359 N 
ATOM      6  H2  UNL     1      16.185 -14.267  23.019  1.00  0.00     0.162 HD
HETATM    7  C9  UNL     1      14.984 -13.984  21.434  1.00  0.00     0.135 C 
HETATM    8  C10 UNL     1      14.365 -14.362  20.126  1.00  0.00     0.153 C 
HETATM    9  C11 UNL     1      13.984 -13.081  19.359  1.00  0.00     0.041 C 
HETATM   10  N3  UNL     1      13.142 -15.097  20.291  1.00  0.00    -0.361 N 
ATOM     11  H3  UNL     1      12.602 -14.831  21.113  1.00  0.00     0.162 HD
HETATM   12  C12 UNL     1      12.556 -16.115  19.523  1.00  0.00     0.135 C 
HETATM   13  C13 UNL     1      12.999 -17.498  19.297  1.00  0.00     0.155 C 
HETATM   14  C14 UNL     1      11.740 -18.274  18.806  1.00  0.00     0.041 C 
HETATM   15  N4  UNL     1      14.001 -17.692  18.290  1.00  0.00    -0.347 N 
ATOM     16  H4  UNL     1      14.029 -17.024  17.518  1.00  0.00     0.163 HD
HETATM   17  C15 UNL     1      14.959 -18.739  18.282  1.00  0.00     0.245 C 
HETATM   18  O5  UNL     1      15.163 -19.342  17.198  1.00  0.00    -0.271 OA
HETATM   19  C16 UNL     1      15.737 -19.156  19.515  1.00  0.00     0.106 C 
HETATM   20  C17 UNL     1      15.195 -20.450  20.000  1.00  0.00     0.048 C 
HETATM   21  C18 UNL     1      17.176 -19.404  19.049  1.00  0.00     0.048 C 
HETATM   22  N5  UNL     1      15.770 -18.074  20.434  1.00  0.00    -0.342 N 
ATOM     23  H5  UNL     1      15.652 -17.168  19.982  1.00  0.00     0.163 HD
HETATM   24  C19 UNL     1      15.926 -17.971  21.809  1.00  0.00     0.242 C 
HETATM   25  O6  UNL     1      14.893 -17.556  22.479  1.00  0.00    -0.271 OA
HETATM   26  C20 UNL     1      17.095 -18.261  22.650  1.00  0.00     0.190 C 
ENDROOT
BRANCH   1  27
HETATM   27  C3  UNL     1      19.477 -17.938  22.474  1.00  0.00     0.167 C 
BRANCH  27  28
HETATM   28  C2  UNL     1      19.879 -19.264  22.244  1.00  0.00     0.075 C 
HETATM   29  C1  UNL     1      20.334 -19.598  21.015  1.00  0.00     0.041 C 
HETATM   30 CL1  UNL     1      19.848 -20.563  23.377  1.00  0.00    -0.081 Cl
ENDBRANCH  27  28
BRANCH  27  31
HETATM   31  O1  UNL     1      20.509 -17.148  22.698  1.00  0.00    -0.345 OA
ATOM     32  H1  UNL     1      20.350 -16.266  22.386  1.00  0.00     0.219 HD
ENDBRANCH  27  31
ENDBRANCH   1  27
BRANCH  26  33
HETATM   33  C21 UNL     1      16.643 -18.467  24.058  1.00  0.00     0.010 C 
HETATM   34  C22 UNL     1      17.615 -18.093  25.137  1.00  0.00     0.012 C 
HETATM   35  C23 UNL     1      16.265 -19.917  24.286  1.00  0.00     0.012 C 
ENDBRANCH  26  33
BRANCH   4  36
HETATM   36  C6  UNL     1      18.288 -13.809  21.173  1.00  0.00     0.009 C 
HETATM   37  C7  UNL     1      19.691 -14.262  20.822  1.00  0.00     0.012 C 
HETATM   38  C8  UNL     1      17.794 -12.946  20.055  1.00  0.00     0.012 C 
ENDBRANCH   4  36
BRANCH   7  39
HETATM   39  O3  UNL     1      14.268 -13.120  22.099  1.00  0.00    -0.348 OA
ATOM     40  H3  UNL     1      13.754 -12.500  21.595  1.00  0.00     0.219 HD
ENDBRANCH   7  39
BRANCH  12  41
HETATM   41  O4  UNL     1      11.447 -15.806  18.910  1.00  0.00    -0.348 OA
ATOM     42  H4  UNL     1      10.726 -15.530  19.463  1.00  0.00     0.219 HD
ENDBRANCH  12  41
TORSDOF 7
ENDMDL
