MODEL 1
REMARK VINA RESULT: -6.402763311      0.000      0.000
REMARK  2 active torsions:
REMARK  status: ('A' for Active; 'I' for Inactive)
REMARK    1  A    between atoms: C4_7  and  N3_8 
REMARK    2  A    between atoms: C5_13  and  N5_14 
ROOT
HETATM    1  N1  UNL     1       6.724  22.482  38.499  1.00  0.00    -0.191 NA
HETATM    2  C1  UNL     1       6.362  22.793  37.435  1.00  0.00     0.104 C 
HETATM    3  C2  UNL     1       5.902  23.201  36.125  1.00  0.00     0.104 A 
HETATM    4  C3  UNL     1       5.577  24.531  35.896  1.00  0.00     0.132 A 
HETATM    5  N2  UNL     1       5.148  24.906  34.677  1.00  0.00    -0.201 N 
ATOM      6  H2  UNL     1       4.909  25.884  34.513  1.00  0.00     0.183 HD
HETATM    7  C4  UNL     1       5.027  24.028  33.672  1.00  0.00     0.677 A 
HETATM    8  N4  UNL     1       5.342  22.741  33.893  1.00  0.00    -0.175 N 
ATOM      9  H4  UNL     1       5.250  22.072  33.128  1.00  0.00     0.186 HD
HETATM   10  C5  UNL     1       5.775  22.304  35.087  1.00  0.00     0.141 A 
ENDROOT
BRANCH  10  11
HETATM   11  N5  UNL     1       6.110  20.954  35.322  1.00  0.00    -0.364 N 
HETATM   12  C6  UNL     1       5.091  20.035  35.778  1.00  0.00     0.126 C 
HETATM   13  C7  UNL     1       5.382  19.534  37.172  1.00  0.00     0.047 C 
HETATM   14  C8  UNL     1       6.339  18.404  37.215  1.00  0.00     0.234 C 
HETATM   15  N6  UNL     1       7.521  18.590  36.422  1.00  0.00    -0.074 N 
HETATM   16  C9  UNL     1       7.980  19.954  36.391  1.00  0.00     0.252 C 
ATOM     17  H62 UNL     1       8.266  17.965  36.730  1.00  0.00     0.277 HD
ATOM     18  H61 UNL     1       7.382  18.234  35.476  1.00  0.00     0.277 HD
HETATM   19  C10 UNL     1       7.508  20.558  35.082  1.00  0.00     0.152 C 
ENDBRANCH  10  11
BRANCH   7  20
HETATM   20  N3  UNL     1       4.612  24.423  32.517  1.00  0.00    -0.234 N 
ATOM     21  H32 UNL     1       4.016  23.830  31.940  1.00  0.00     0.174 HD
ATOM     22  H31 UNL     1       4.877  25.344  32.168  1.00  0.00     0.174 HD
ENDBRANCH   7  20
TORSDOF 2
ENDMDL
MODEL 2
REMARK VINA RESULT: -6.198596184      0.948      1.721
REMARK  2 active torsions:
REMARK  status: ('A' for Active; 'I' for Inactive)
REMARK    1  A    between atoms: C4_7  and  N3_8 
REMARK    2  A    between atoms: C5_13  and  N5_14 
ROOT
HETATM    1  N1  UNL     1       6.656  22.670  38.771  1.00  0.00    -0.191 NA
HETATM    2  C1  UNL     1       6.304  22.931  37.691  1.00  0.00     0.104 C 
HETATM    3  C2  UNL     1       5.860  23.280  36.358  1.00  0.00     0.104 A 
HETATM    4  C3  UNL     1       5.628  24.611  36.040  1.00  0.00     0.132 A 
HETATM    5  N2  UNL     1       5.213  24.931  34.800  1.00  0.00    -0.201 N 
ATOM      6  H2  UNL     1       5.043  25.911  34.570  1.00  0.00     0.183 HD
HETATM    7  C4  UNL     1       5.018  23.997  33.860  1.00  0.00     0.677 A 
HETATM    8  N4  UNL     1       5.243  22.709  34.168  1.00  0.00    -0.175 N 
ATOM      9  H4  UNL     1       5.094  21.997  33.452  1.00  0.00     0.186 HD
HETATM   10  C5  UNL     1       5.657  22.325  35.387  1.00  0.00     0.141 A 
ENDROOT
BRANCH  10  11
HETATM   11  N5  UNL     1       5.897  20.974  35.713  1.00  0.00    -0.364 N 
HETATM   12  C6  UNL     1       7.257  20.485  35.768  1.00  0.00     0.126 C 
HETATM   13  C7  UNL     1       7.519  19.458  34.694  1.00  0.00     0.047 C 
HETATM   14  C8  UNL     1       7.074  18.090  35.050  1.00  0.00     0.234 C 
HETATM   15  N6  UNL     1       5.747  18.016  35.593  1.00  0.00    -0.074 N 
HETATM   16  C9  UNL     1       4.837  18.968  35.012  1.00  0.00     0.252 C 
ATOM     17  H62 UNL     1       5.378  17.068  35.516  1.00  0.00     0.277 HD
ATOM     18  H61 UNL     1       5.767  18.107  36.609  1.00  0.00     0.277 HD
HETATM   19  C10 UNL     1       4.722  20.129  35.981  1.00  0.00     0.152 C 
ENDBRANCH  10  11
BRANCH   7  20
HETATM   20  N3  UNL     1       4.619  24.341  32.683  1.00  0.00    -0.234 N 
ATOM     21  H32 UNL     1       5.261  24.759  32.010  1.00  0.00     0.174 HD
ATOM     22  H31 UNL     1       3.647  24.193  32.411  1.00  0.00     0.174 HD
ENDBRANCH   7  20
TORSDOF 2
ENDMDL
MODEL 3
REMARK VINA RESULT: -5.897278918      2.078      3.048
REMARK  2 active torsions:
REMARK  status: ('A' for Active; 'I' for Inactive)
REMARK    1  A    between atoms: C4_7  and  N3_8 
REMARK    2  A    between atoms: C5_13  and  N5_14 
ROOT
HETATM    1  N1  UNL     1       8.638  19.616  36.557  1.00  0.00    -0.191 NA
HETATM    2  C1  UNL     1       7.818  20.398  36.288  1.00  0.00     0.104 C 
HETATM    3  C2  UNL     1       6.813  21.389  35.965  1.00  0.00     0.104 A 
HETATM    4  C3  UNL     1       7.153  22.735  35.964  1.00  0.00     0.132 A 
HETATM    5  N2  UNL     1       6.216  23.653  35.665  1.00  0.00    -0.201 N 
ATOM      6  H2  UNL     1       6.471  24.641  35.667  1.00  0.00     0.183 HD
HETATM    7  C4  UNL     1       4.958  23.304  35.367  1.00  0.00     0.677 A 
HETATM    8  N4  UNL     1       4.628  22.001  35.367  1.00  0.00    -0.175 N 
ATOM      9  H4  UNL     1       3.670  21.735  35.140  1.00  0.00     0.186 HD
HETATM   10  C5  UNL     1       5.518  21.037  35.658  1.00  0.00     0.141 A 
ENDROOT
BRANCH  10  11
HETATM   11  N5  UNL     1       5.176  19.669  35.656  1.00  0.00    -0.364 N 
HETATM   12  C6  UNL     1       5.615  18.825  34.566  1.00  0.00     0.126 C 
HETATM   13  C7  UNL     1       4.448  18.314  33.759  1.00  0.00     0.047 C 
HETATM   14  C8  UNL     1       3.792  17.119  34.342  1.00  0.00     0.234 C 
HETATM   15  N6  UNL     1       3.509  17.219  35.746  1.00  0.00    -0.074 N 
HETATM   16  C9  UNL     1       3.145  18.547  36.163  1.00  0.00     0.252 C 
ATOM     17  H62 UNL     1       2.793  16.545  36.019  1.00  0.00     0.277 HD
ATOM     18  H61 UNL     1       4.292  16.868  36.298  1.00  0.00     0.277 HD
HETATM   19  C10 UNL     1       4.375  19.175  36.789  1.00  0.00     0.152 C 
ENDBRANCH  10  11
BRANCH   7  20
HETATM   20  N3  UNL     1       4.086  24.211  35.087  1.00  0.00    -0.234 N 
ATOM     21  H32 UNL     1       3.947  25.015  35.699  1.00  0.00     0.174 HD
ATOM     22  H31 UNL     1       3.523  24.133  34.240  1.00  0.00     0.174 HD
ENDBRANCH   7  20
TORSDOF 2
ENDMDL
MODEL 4
REMARK VINA RESULT: -5.827804871      1.746      4.956
REMARK  2 active torsions:
REMARK  status: ('A' for Active; 'I' for Inactive)
REMARK    1  A    between atoms: C4_7  and  N3_8 
REMARK    2  A    between atoms: C5_13  and  N5_14 
ROOT
HETATM    1  N1  UNL     1       4.511  21.027  39.835  1.00  0.00    -0.191 NA
HETATM    2  C1  UNL     1       5.140  20.515  38.998  1.00  0.00     0.104 C 
HETATM    3  C2  UNL     1       5.930  19.862  37.976  1.00  0.00     0.104 A 
HETATM    4  C3  UNL     1       6.400  18.574  38.192  1.00  0.00     0.132 A 
HETATM    5  N2  UNL     1       7.136  17.970  37.240  1.00  0.00    -0.201 N 
ATOM      6  H2  UNL     1       7.481  17.024  37.403  1.00  0.00     0.183 HD
HETATM    7  C4  UNL     1       7.429  18.581  36.084  1.00  0.00     0.677 A 
HETATM    8  N4  UNL     1       6.974  19.828  35.874  1.00  0.00    -0.175 N 
ATOM      9  H4  UNL     1       7.196  20.292  34.994  1.00  0.00     0.186 HD
HETATM   10  C5  UNL     1       6.235  20.483  36.785  1.00  0.00     0.141 A 
ENDROOT
BRANCH  10  11
HETATM   11  N5  UNL     1       5.753  21.790  36.567  1.00  0.00    -0.364 N 
HETATM   12  C6  UNL     1       4.708  22.012  35.592  1.00  0.00     0.126 C 
HETATM   13  C7  UNL     1       5.201  22.842  34.433  1.00  0.00     0.047 C 
HETATM   14  C8  UNL     1       5.189  24.301  34.692  1.00  0.00     0.234 C 
HETATM   15  N6  UNL     1       5.760  24.690  35.950  1.00  0.00    -0.074 N 
HETATM   16  C9  UNL     1       6.875  23.872  36.349  1.00  0.00     0.252 C 
ATOM     17  H62 UNL     1       6.020  25.677  35.939  1.00  0.00     0.277 HD
ATOM     18  H61 UNL     1       5.047  24.711  36.680  1.00  0.00     0.277 HD
HETATM   19  C10 UNL     1       6.358  22.871  37.364  1.00  0.00     0.152 C 
ENDBRANCH  10  11
BRANCH   7  20
HETATM   20  N3  UNL     1       8.138  17.972  35.195  1.00  0.00    -0.234 N 
ATOM     21  H32 UNL     1       9.129  17.788  35.347  1.00  0.00     0.174 HD
ATOM     22  H31 UNL     1       7.708  17.665  34.323  1.00  0.00     0.174 HD
ENDBRANCH   7  20
TORSDOF 2
ENDMDL
MODEL 5
REMARK VINA RESULT: -5.754356489      1.697      2.413
REMARK  2 active torsions:
REMARK  status: ('A' for Active; 'I' for Inactive)
REMARK    1  A    between atoms: C4_7  and  N3_8 
REMARK    2  A    between atoms: C5_13  and  N5_14 
ROOT
HETATM    1  N1  UNL     1       8.783  19.783  36.327  1.00  0.00    -0.191 NA
HETATM    2  C1  UNL     1       7.908  20.529  36.138  1.00  0.00     0.104 C 
HETATM    3  C2  UNL     1       6.836  21.476  35.913  1.00  0.00     0.104 A 
HETATM    4  C3  UNL     1       7.115  22.835  35.890  1.00  0.00     0.132 A 
HETATM    5  N2  UNL     1       6.116  23.712  35.683  1.00  0.00    -0.201 N 
ATOM      6  H2  UNL     1       6.325  24.710  35.668  1.00  0.00     0.183 HD
HETATM    7  C4  UNL     1       4.852  23.307  35.495  1.00  0.00     0.677 A 
HETATM    8  N4  UNL     1       4.581  21.991  35.516  1.00  0.00    -0.175 N 
ATOM      9  H4  UNL     1       3.620  21.683  35.373  1.00  0.00     0.186 HD
HETATM   10  C5  UNL     1       5.535  21.067  35.720  1.00  0.00     0.141 A 
ENDROOT
BRANCH  10  11
HETATM   11  N5  UNL     1       5.255  19.685  35.739  1.00  0.00    -0.364 N 
HETATM   12  C6  UNL     1       4.937  19.039  36.994  1.00  0.00     0.126 C 
HETATM   13  C7  UNL     1       5.995  18.035  37.382  1.00  0.00     0.047 C 
HETATM   14  C8  UNL     1       5.836  16.714  36.729  1.00  0.00     0.234 C 
HETATM   15  N6  UNL     1       5.602  16.771  35.314  1.00  0.00    -0.074 N 
HETATM   16  C9  UNL     1       6.302  17.846  34.661  1.00  0.00     0.252 C 
ATOM     17  H62 UNL     1       5.821  15.877  34.875  1.00  0.00     0.277 HD
ATOM     18  H61 UNL     1       4.602  16.817  35.115  1.00  0.00     0.277 HD
HETATM   19  C10 UNL     1       5.306  18.971  34.453  1.00  0.00     0.152 C 
ENDBRANCH  10  11
BRANCH   7  20
HETATM   20  N3  UNL     1       3.919  24.176  35.300  1.00  0.00    -0.234 N 
ATOM     21  H32 UNL     1       3.928  25.075  35.780  1.00  0.00     0.174 HD
ATOM     22  H31 UNL     1       3.157  23.969  34.654  1.00  0.00     0.174 HD
ENDBRANCH   7  20
TORSDOF 2
ENDMDL
