MODEL 1
REMARK VINA RESULT: -9.874911238      0.000      0.000
REMARK  5 active torsions:
REMARK  status: ('A' for Active; 'I' for Inactive)
REMARK    1  A    between atoms: C2_2  and  C3_3 
REMARK    2  A    between atoms: C2_2  and  C6_10 
REMARK    3  A    between atoms: C3_3  and  C4_4 
REMARK    4  A    between atoms: C4_4  and  C5_5 
REMARK    5  A    between atoms: C5_5  and  N1_6 
ROOT
HETATM    1  C6  UNL     1      26.347  31.752   6.588  1.00  0.00    -0.002 C 
HETATM    2  C7  UNL     1      27.099  32.103   7.891  1.00  0.00     0.006 C 
HETATM    3  C8  UNL     1      28.069  30.969   7.995  1.00  0.00     0.006 C 
HETATM    4  C9  UNL     1      27.668  29.937   6.960  1.00  0.00    -0.002 C 
HETATM    5  C10 UNL     1      27.942  28.552   7.396  1.00  0.00    -0.005 C 
HETATM    6  C11 UNL     1      29.430  28.474   7.701  1.00  0.00     0.006 C 
HETATM    7  C12 UNL     1      29.817  27.147   8.288  1.00  0.00     0.010 C 
HETATM    8  C13 UNL     1      28.944  26.715   9.432  1.00  0.00    -0.040 C 
HETATM    9  C14 UNL     1      29.108  27.687  10.558  1.00  0.00     0.015 C 
HETATM   10  C15 UNL     1      29.369  25.357   9.897  1.00  0.00     0.009 C 
HETATM   11  C16 UNL     1      28.365  24.300   9.490  1.00  0.00     0.001 C 
HETATM   12  C17 UNL     1      27.011  24.615  10.058  1.00  0.00     0.000 C 
HETATM   13  C18 UNL     1      26.633  26.058   9.927  1.00  0.00     0.006 C 
HETATM   14  C19 UNL     1      27.506  26.699   8.902  1.00  0.00    -0.002 C 
HETATM   15  C20 UNL     1      27.165  28.144   8.628  1.00  0.00    -0.005 C 
HETATM   16  C21 UNL     1      25.725  28.382   8.358  1.00  0.00     0.006 C 
HETATM   17  C22 UNL     1      25.566  29.898   8.135  1.00  0.00     0.010 C 
HETATM   18  C23 UNL     1      26.164  30.279   6.829  1.00  0.00    -0.036 C 
HETATM   19  C24 UNL     1      25.684  29.470   5.677  1.00  0.00     0.016 C 
ENDROOT
BRANCH   1  20
HETATM   20  C2  UNL     1      25.189  32.619   6.383  1.00  0.00    -0.014 C 
HETATM   21  C1  UNL     1      25.024  33.177   4.995  1.00  0.00     0.010 C 
BRANCH  20  22
HETATM   22  C3  UNL     1      25.005  33.715   7.365  1.00  0.00     0.006 C 
BRANCH  22  23
HETATM   23  C4  UNL     1      23.959  34.731   7.133  1.00  0.00     0.027 C 
BRANCH  23  24
HETATM   24  C5  UNL     1      22.577  34.450   7.596  1.00  0.00     0.229 C 
BRANCH  24  25
HETATM   25  N1  UNL     1      21.572  34.396   6.585  1.00  0.00    -0.079 N 
ATOM     26  H13 UNL     1      21.631  35.226   5.996  1.00  0.00     0.274 HD
ATOM     27  H12 UNL     1      21.805  33.671   5.907  1.00  0.00     0.274 HD
ATOM     28  H11 UNL     1      20.613  34.271   6.908  1.00  0.00     0.274 HD
ENDBRANCH  24  25
ENDBRANCH  23  24
ENDBRANCH  22  23
ENDBRANCH  20  22
ENDBRANCH   1  20
TORSDOF 5
ENDMDL
MODEL 2
REMARK VINA RESULT: -9.637763444      2.992      7.618
REMARK  5 active torsions:
REMARK  status: ('A' for Active; 'I' for Inactive)
REMARK    1  A    between atoms: C2_2  and  C3_3 
REMARK    2  A    between atoms: C2_2  and  C6_10 
REMARK    3  A    between atoms: C3_3  and  C4_4 
REMARK    4  A    between atoms: C4_4  and  C5_5 
REMARK    5  A    between atoms: C5_5  and  N1_6 
ROOT
HETATM    1  C6  UNL     1      27.769  27.939   6.940  1.00  0.00    -0.002 C 
HETATM    2  C7  UNL     1      26.317  27.531   6.607  1.00  0.00     0.006 C 
HETATM    3  C8  UNL     1      25.850  28.701   5.801  1.00  0.00     0.006 C 
HETATM    4  C9  UNL     1      26.901  29.786   5.931  1.00  0.00    -0.002 C 
HETATM    5  C10 UNL     1      26.327  31.147   5.906  1.00  0.00    -0.005 C 
HETATM    6  C11 UNL     1      25.564  31.276   4.596  1.00  0.00     0.006 C 
HETATM    7  C12 UNL     1      24.814  32.574   4.505  1.00  0.00     0.010 C 
HETATM    8  C13 UNL     1      23.983  32.877   5.720  1.00  0.00    -0.040 C 
HETATM    9  C14 UNL     1      22.916  31.833   5.847  1.00  0.00     0.015 C 
HETATM   10  C15 UNL     1      23.334  34.216   5.558  1.00  0.00     0.009 C 
HETATM   11  C16 UNL     1      23.979  35.249   6.457  1.00  0.00     0.001 C 
HETATM   12  C17 UNL     1      23.885  34.825   7.895  1.00  0.00     0.000 C 
HETATM   13  C18 UNL     1      24.207  33.378   8.111  1.00  0.00     0.006 C 
HETATM   14  C19 UNL     1      24.937  32.860   6.918  1.00  0.00    -0.002 C 
HETATM   15  C20 UNL     1      25.382  31.424   7.054  1.00  0.00    -0.005 C 
HETATM   16  C21 UNL     1      26.105  31.134   8.318  1.00  0.00     0.006 C 
HETATM   17  C22 UNL     1      26.450  29.633   8.292  1.00  0.00     0.010 C 
HETATM   18  C23 UNL     1      27.518  29.379   7.292  1.00  0.00    -0.036 C 
HETATM   19  C24 UNL     1      28.717  30.245   7.444  1.00  0.00     0.016 C 
ENDROOT
BRANCH   1  20
HETATM   20  C2  UNL     1      28.376  27.033   7.912  1.00  0.00    -0.014 C 
HETATM   21  C1  UNL     1      27.667  26.918   9.234  1.00  0.00     0.010 C 
BRANCH  20  22
HETATM   22  C3  UNL     1      29.827  27.209   8.160  1.00  0.00     0.006 C 
BRANCH  22  23
HETATM   23  C4  UNL     1      30.723  27.538   7.033  1.00  0.00     0.027 C 
BRANCH  23  24
HETATM   24  C5  UNL     1      31.986  28.264   7.315  1.00  0.00     0.229 C 
BRANCH  24  25
HETATM   25  N1  UNL     1      33.132  27.847   6.576  1.00  0.00    -0.079 N 
ATOM     26  H13 UNL     1      32.922  27.859   5.578  1.00  0.00     0.274 HD
ATOM     27  H12 UNL     1      33.852  28.568   6.621  1.00  0.00     0.274 HD
ATOM     28  H11 UNL     1      33.531  26.945   6.832  1.00  0.00     0.274 HD
ENDBRANCH  24  25
ENDBRANCH  23  24
ENDBRANCH  22  23
ENDBRANCH  20  22
ENDBRANCH   1  20
TORSDOF 5
ENDMDL
MODEL 3
REMARK VINA RESULT: -9.622824054      2.620      7.614
REMARK  5 active torsions:
REMARK  status: ('A' for Active; 'I' for Inactive)
REMARK    1  A    between atoms: C2_2  and  C3_3 
REMARK    2  A    between atoms: C2_2  and  C6_10 
REMARK    3  A    between atoms: C3_3  and  C4_4 
REMARK    4  A    between atoms: C4_4  and  C5_5 
REMARK    5  A    between atoms: C5_5  and  N1_6 
ROOT
HETATM    1  C6  UNL     1      27.553  28.038   8.158  1.00  0.00    -0.002 C 
HETATM    2  C7  UNL     1      26.247  27.863   8.965  1.00  0.00     0.006 C 
HETATM    3  C8  UNL     1      25.253  28.554   8.086  1.00  0.00     0.006 C 
HETATM    4  C9  UNL     1      26.034  29.289   7.014  1.00  0.00    -0.002 C 
HETATM    5  C10 UNL     1      25.388  30.550   6.596  1.00  0.00    -0.005 C 
HETATM    6  C11 UNL     1      23.994  30.186   6.108  1.00  0.00     0.006 C 
HETATM    7  C12 UNL     1      23.176  31.403   5.778  1.00  0.00     0.010 C 
HETATM    8  C13 UNL     1      23.183  32.446   6.860  1.00  0.00    -0.040 C 
HETATM    9  C14 UNL     1      22.536  31.876   8.084  1.00  0.00     0.015 C 
HETATM   10  C15 UNL     1      22.400  33.638   6.407  1.00  0.00     0.009 C 
HETATM   11  C16 UNL     1      23.313  34.801   6.082  1.00  0.00     0.001 C 
HETATM   12  C17 UNL     1      24.133  35.176   7.283  1.00  0.00     0.000 C 
HETATM   13  C18 UNL     1      24.700  33.995   8.008  1.00  0.00     0.006 C 
HETATM   14  C19 UNL     1      24.651  32.804   7.111  1.00  0.00    -0.002 C 
HETATM   15  C20 UNL     1      25.269  31.564   7.711  1.00  0.00    -0.005 C 
HETATM   16  C21 UNL     1      26.624  31.779   8.277  1.00  0.00     0.006 C 
HETATM   17  C22 UNL     1      27.074  30.428   8.864  1.00  0.00     0.010 C 
HETATM   18  C23 UNL     1      27.376  29.477   7.763  1.00  0.00    -0.036 C 
HETATM   19  C24 UNL     1      28.316  30.006   6.739  1.00  0.00     0.016 C 
ENDROOT
BRANCH   1  20
HETATM   20  C2  UNL     1      28.722  27.618   8.927  1.00  0.00    -0.014 C 
HETATM   21  C1  UNL     1      29.867  27.058   8.127  1.00  0.00     0.010 C 
BRANCH  20  22
HETATM   22  C3  UNL     1      28.464  26.726  10.083  1.00  0.00     0.006 C 
BRANCH  22  23
HETATM   23  C4  UNL     1      28.892  25.314  10.023  1.00  0.00     0.027 C 
BRANCH  23  24
HETATM   24  C5  UNL     1      27.861  24.264   9.834  1.00  0.00     0.229 C 
BRANCH  24  25
HETATM   25  N1  UNL     1      26.530  24.613  10.208  1.00  0.00    -0.079 N 
ATOM     26  H13 UNL     1      26.399  24.451  11.206  1.00  0.00     0.274 HD
ATOM     27  H12 UNL     1      26.416  25.625  10.169  1.00  0.00     0.274 HD
ATOM     28  H11 UNL     1      25.781  24.160   9.685  1.00  0.00     0.274 HD
ENDBRANCH  24  25
ENDBRANCH  23  24
ENDBRANCH  22  23
ENDBRANCH  20  22
ENDBRANCH   1  20
TORSDOF 5
ENDMDL
MODEL 4
REMARK VINA RESULT: -9.592115798      2.794      7.651
REMARK  5 active torsions:
REMARK  status: ('A' for Active; 'I' for Inactive)
REMARK    1  A    between atoms: C2_2  and  C3_3 
REMARK    2  A    between atoms: C2_2  and  C6_10 
REMARK    3  A    between atoms: C3_3  and  C4_4 
REMARK    4  A    between atoms: C4_4  and  C5_5 
REMARK    5  A    between atoms: C5_5  and  N1_6 
ROOT
HETATM    1  C6  UNL     1      27.771  28.050   7.320  1.00  0.00    -0.002 C 
HETATM    2  C7  UNL     1      26.313  27.612   7.056  1.00  0.00     0.006 C 
HETATM    3  C8  UNL     1      25.831  28.697   6.147  1.00  0.00     0.006 C 
HETATM    4  C9  UNL     1      26.883  29.789   6.150  1.00  0.00    -0.002 C 
HETATM    5  C10 UNL     1      26.307  31.141   6.001  1.00  0.00    -0.005 C 
HETATM    6  C11 UNL     1      25.521  31.141   4.699  1.00  0.00     0.006 C 
HETATM    7  C12 UNL     1      24.768  32.425   4.494  1.00  0.00     0.010 C 
HETATM    8  C13 UNL     1      23.958  32.846   5.688  1.00  0.00    -0.040 C 
HETATM    9  C14 UNL     1      22.895  31.821   5.936  1.00  0.00     0.015 C 
HETATM   10  C15 UNL     1      23.305  34.163   5.406  1.00  0.00     0.009 C 
HETATM   11  C16 UNL     1      23.965  35.279   6.187  1.00  0.00     0.001 C 
HETATM   12  C17 UNL     1      23.897  35.000   7.662  1.00  0.00     0.000 C 
HETATM   13  C18 UNL     1      24.225  33.581   8.013  1.00  0.00     0.006 C 
HETATM   14  C19 UNL     1      24.934  32.947   6.864  1.00  0.00    -0.002 C 
HETATM   15  C20 UNL     1      25.383  31.531   7.133  1.00  0.00    -0.005 C 
HETATM   16  C21 UNL     1      26.128  31.366   8.406  1.00  0.00     0.006 C 
HETATM   17  C22 UNL     1      26.474  29.870   8.522  1.00  0.00     0.010 C 
HETATM   18  C23 UNL     1      27.525  29.518   7.533  1.00  0.00    -0.036 C 
HETATM   19  C24 UNL     1      28.725  30.394   7.578  1.00  0.00     0.016 C 
ENDROOT
BRANCH   1  20
HETATM   20  C2  UNL     1      28.396  27.244   8.365  1.00  0.00    -0.014 C 
HETATM   21  C1  UNL     1      29.870  26.989   8.205  1.00  0.00     0.010 C 
BRANCH  20  22
HETATM   22  C3  UNL     1      27.723  25.965   8.702  1.00  0.00     0.006 C 
BRANCH  22  23
HETATM   23  C4  UNL     1      27.259  25.729  10.084  1.00  0.00     0.027 C 
BRANCH  23  24
HETATM   24  C5  UNL     1      28.069  24.855  10.968  1.00  0.00     0.229 C 
BRANCH  24  25
HETATM   25  N1  UNL     1      28.664  25.482  12.102  1.00  0.00    -0.079 N 
ATOM     26  H13 UNL     1      29.591  25.829  11.857  1.00  0.00     0.274 HD
ATOM     27  H12 UNL     1      28.184  26.360  12.301  1.00  0.00     0.274 HD
ATOM     28  H11 UNL     1      28.720  24.919  12.951  1.00  0.00     0.274 HD
ENDBRANCH  24  25
ENDBRANCH  23  24
ENDBRANCH  22  23
ENDBRANCH  20  22
ENDBRANCH   1  20
TORSDOF 5
ENDMDL
MODEL 5
REMARK VINA RESULT: -9.546308451      1.466      2.523
REMARK  5 active torsions:
REMARK  status: ('A' for Active; 'I' for Inactive)
REMARK    1  A    between atoms: C2_2  and  C3_3 
REMARK    2  A    between atoms: C2_2  and  C6_10 
REMARK    3  A    between atoms: C3_3  and  C4_4 
REMARK    4  A    between atoms: C4_4  and  C5_5 
REMARK    5  A    between atoms: C5_5  and  N1_6 
ROOT
HETATM    1  C6  UNL     1      24.289  31.805   5.226  1.00  0.00    -0.002 C 
HETATM    2  C7  UNL     1      25.731  31.958   4.691  1.00  0.00     0.006 C 
HETATM    3  C8  UNL     1      26.298  30.600   4.956  1.00  0.00     0.006 C 
HETATM    4  C9  UNL     1      25.303  29.858   5.827  1.00  0.00    -0.002 C 
HETATM    5  C10 UNL     1      25.952  28.928   6.774  1.00  0.00    -0.005 C 
HETATM    6  C11 UNL     1      26.780  27.962   5.941  1.00  0.00     0.006 C 
HETATM    7  C12 UNL     1      27.603  27.042   6.797  1.00  0.00     0.010 C 
HETATM    8  C13 UNL     1      28.394  27.753   7.860  1.00  0.00    -0.040 C 
HETATM    9  C14 UNL     1      29.394  28.649   7.198  1.00  0.00     0.015 C 
HETATM   10  C15 UNL     1      29.122  26.746   8.695  1.00  0.00     0.009 C 
HETATM   11  C16 UNL     1      28.494  26.617  10.066  1.00  0.00     0.001 C 
HETATM   12  C17 UNL     1      28.498  27.942  10.773  1.00  0.00     0.000 C 
HETATM   13  C18 UNL     1      28.088  29.085   9.896  1.00  0.00     0.006 C 
HETATM   14  C19 UNL     1      27.386  28.548   8.695  1.00  0.00    -0.002 C 
HETATM   15  C20 UNL     1      26.856  29.618   7.771  1.00  0.00    -0.005 C 
HETATM   16  C21 UNL     1      26.062  30.668   8.456  1.00  0.00     0.006 C 
HETATM   17  C22 UNL     1      25.637  31.675   7.372  1.00  0.00     0.010 C 
HETATM   18  C23 UNL     1      24.603  31.066   6.496  1.00  0.00    -0.036 C 
HETATM   19  C24 UNL     1      23.448  30.482   7.229  1.00  0.00     0.016 C 
ENDROOT
BRANCH   1  20
HETATM   20  C2  UNL     1      23.590  33.087   5.267  1.00  0.00    -0.014 C 
HETATM   21  C1  UNL     1      22.790  33.438   4.041  1.00  0.00     0.010 C 
BRANCH  20  22
HETATM   22  C3  UNL     1      24.398  34.266   5.665  1.00  0.00     0.006 C 
BRANCH  22  23
HETATM   23  C4  UNL     1      24.031  35.021   6.880  1.00  0.00     0.027 C 
BRANCH  23  24
HETATM   24  C5  UNL     1      22.887  34.547   7.697  1.00  0.00     0.229 C 
BRANCH  24  25
HETATM   25  N1  UNL     1      23.212  33.762   8.841  1.00  0.00    -0.079 N 
ATOM     26  H13 UNL     1      23.671  32.899   8.549  1.00  0.00     0.274 HD
ATOM     27  H12 UNL     1      23.969  34.206   9.360  1.00  0.00     0.274 HD
ATOM     28  H11 UNL     1      22.441  33.544   9.473  1.00  0.00     0.274 HD
ENDBRANCH  24  25
ENDBRANCH  23  24
ENDBRANCH  22  23
ENDBRANCH  20  22
ENDBRANCH   1  20
TORSDOF 5
ENDMDL
