MODEL 1
REMARK VINA RESULT: -8.161960646      0.000      0.000
REMARK  6 active torsions:
REMARK  status: ('A' for Active; 'I' for Inactive)
REMARK    1  A    between atoms: C3_3  and  C4_4 
REMARK    2  A    between atoms: C4_4  and  N1_5 
REMARK    3  A    between atoms: C4_4  and  C5_9 
REMARK    4  A    between atoms: C4_4  and  C18_33 
REMARK    5  A    between atoms: C6_10  and  C7_11 
REMARK    6  A    between atoms: C11_17  and  C12_18 
ROOT
HETATM    1  C1  UNL     1      11.952 -12.727  22.662  1.00  0.00     0.112 C 
HETATM    2  C2  UNL     1      13.292 -12.849  22.050  1.00  0.00    -0.107 C 
HETATM    3  C3  UNL     1      14.378 -12.933  21.540  1.00  0.00    -0.050 C 
ENDROOT
BRANCH   3   4
HETATM    4  C4  UNL     1      15.686 -13.036  20.906  1.00  0.00     0.275 C 
BRANCH   4   5
HETATM    5  N1  UNL     1      16.256 -11.703  20.875  1.00  0.00    -0.044 N 
ATOM      6  H13 UNL     1      15.551 -10.968  20.827  1.00  0.00     0.277 HD
ATOM      7  H12 UNL     1      16.675 -11.428  21.763  1.00  0.00     0.277 HD
ATOM      8  H11 UNL     1      16.917 -11.674  20.098  1.00  0.00     0.277 HD
ENDBRANCH   4   5
BRANCH   4   9
HETATM    9  C5  UNL     1      16.560 -13.958  21.674  1.00  0.00    -0.047 C 
HETATM   10  C6  UNL     1      17.254 -14.706  22.309  1.00  0.00    -0.075 C 
BRANCH  10  11
HETATM   11  C7  UNL     1      18.079 -15.613  23.095  1.00  0.00     0.132 C 
HETATM   12  C8  UNL     1      17.927 -17.050  22.703  1.00  0.00     0.163 C 
HETATM   13  N2  UNL     1      18.999 -17.797  23.325  1.00  0.00    -0.353 N 
HETATM   14  C9  UNL     1      19.152 -19.186  23.041  1.00  0.00     0.152 C 
HETATM   15  C10 UNL     1      19.895 -17.122  24.227  1.00  0.00     0.239 C 
HETATM   16  O1  UNL     1      20.310 -17.748  25.217  1.00  0.00    -0.272 OA
HETATM   17  C11 UNL     1      20.295 -15.718  23.955  1.00  0.00     0.137 C 
HETATM   18  C16 UNL     1      19.722 -14.918  25.165  1.00  0.00     0.106 C 
HETATM   19  C17 UNL     1      19.538 -15.204  22.821  1.00  0.00     0.189 A 
HETATM   20  S1  UNL     1      17.952 -15.313  24.871  1.00  0.00    -0.138 SA
HETATM   21  N4  UNL     1      19.812 -15.653  21.489  1.00  0.00    -0.293 N 
HETATM   22  N6  UNL     1      19.678 -13.879  22.349  1.00  0.00    -0.088 NA
HETATM   23  N5  UNL     1      19.922 -14.452  21.115  1.00  0.00    -0.246 N 
ATOM     24  H4  UNL     1      19.886 -16.563  21.033  1.00  0.00     0.184 HD
ATOM     25  H5  UNL     1      20.123 -14.041  20.204  1.00  0.00     0.203 HD
BRANCH  17  26
HETATM   26  C12 UNL     1      21.727 -15.530  24.044  1.00  0.00     0.033 A 
HETATM   27  C13 UNL     1      22.548 -14.523  24.439  1.00  0.00     0.029 A 
HETATM   28  C14 UNL     1      23.870 -14.916  24.346  1.00  0.00     0.039 A 
HETATM   29  C15 UNL     1      23.831 -16.189  23.886  1.00  0.00     0.080 A 
HETATM   30 BR1  UNL     1      25.397 -17.245  23.564  1.00  0.00    -0.031 Br
HETATM   31  N3  UNL     1      22.574 -16.555  23.707  1.00  0.00    -0.352 N 
ATOM     32  H3  UNL     1      22.275 -17.469  23.367  1.00  0.00     0.166 HD
ENDBRANCH  17  26
ENDBRANCH  10  11
ENDBRANCH   4   9
BRANCH   4  33
HETATM   33  C18 UNL     1      15.583 -13.591  19.548  1.00  0.00     0.002 A 
HETATM   34  C19 UNL     1      16.063 -12.836  18.482  1.00  0.00     0.011 A 
HETATM   35  C20 UNL     1      15.998 -13.298  17.179  1.00  0.00     0.001 A 
HETATM   36  C21 UNL     1      15.437 -14.546  16.957  1.00  0.00     0.000 A 
HETATM   37  C22 UNL     1      14.963 -15.296  18.002  1.00  0.00     0.001 A 
HETATM   38  C23 UNL     1      15.036 -14.823  19.282  1.00  0.00     0.011 A 
ENDBRANCH   4  33
ENDBRANCH   3   4
TORSDOF 6
ENDMDL
MODEL 2
REMARK VINA RESULT: -7.832067109      1.772      3.359
REMARK  6 active torsions:
REMARK  status: ('A' for Active; 'I' for Inactive)
REMARK    1  A    between atoms: C3_3  and  C4_4 
REMARK    2  A    between atoms: C4_4  and  N1_5 
REMARK    3  A    between atoms: C4_4  and  C5_9 
REMARK    4  A    between atoms: C4_4  and  C18_33 
REMARK    5  A    between atoms: C6_10  and  C7_11 
REMARK    6  A    between atoms: C11_17  and  C12_18 
ROOT
HETATM    1  C1  UNL     1      15.903 -13.171  16.225  1.00  0.00     0.112 C 
HETATM    2  C2  UNL     1      15.371 -13.777  17.464  1.00  0.00    -0.107 C 
HETATM    3  C3  UNL     1      14.929 -14.250  18.478  1.00  0.00    -0.050 C 
ENDROOT
BRANCH   3   4
HETATM    4  C4  UNL     1      14.403 -14.812  19.715  1.00  0.00     0.275 C 
BRANCH   4   5
HETATM    5  N1  UNL     1      13.385 -15.778  19.351  1.00  0.00    -0.044 N 
ATOM      6  H13 UNL     1      12.445 -15.488  19.620  1.00  0.00     0.277 HD
ATOM      7  H12 UNL     1      13.226 -15.830  18.345  1.00  0.00     0.277 HD
ATOM      8  H11 UNL     1      13.657 -16.674  19.758  1.00  0.00     0.277 HD
ENDBRANCH   4   5
BRANCH   4   9
HETATM    9  C5  UNL     1      15.488 -15.466  20.487  1.00  0.00    -0.047 C 
HETATM   10  C6  UNL     1      16.379 -15.995  21.098  1.00  0.00    -0.075 C 
BRANCH  10  11
HETATM   11  C7  UNL     1      17.470 -16.635  21.818  1.00  0.00     0.132 C 
HETATM   12  C8  UNL     1      18.300 -17.542  20.964  1.00  0.00     0.163 C 
HETATM   13  N2  UNL     1      19.505 -17.865  21.696  1.00  0.00    -0.353 N 
HETATM   14  C9  UNL     1      20.525 -18.644  21.074  1.00  0.00     0.152 C 
HETATM   15  C10 UNL     1      19.653 -17.397  23.049  1.00  0.00     0.239 C 
HETATM   16  O1  UNL     1      20.226 -18.137  23.865  1.00  0.00    -0.272 OA
HETATM   17  C11 UNL     1      19.127 -16.060  23.427  1.00  0.00     0.137 C 
HETATM   18  C16 UNL     1      18.021 -16.371  24.482  1.00  0.00     0.106 C 
HETATM   19  C17 UNL     1      18.380 -15.494  22.311  1.00  0.00     0.189 A 
HETATM   20  S1  UNL     1      16.941 -17.370  23.381  1.00  0.00    -0.138 SA
HETATM   21  N4  UNL     1      19.054 -15.017  21.141  1.00  0.00    -0.293 N 
HETATM   22  N6  UNL     1      17.731 -14.242  22.387  1.00  0.00    -0.088 NA
HETATM   23  N5  UNL     1      18.444 -13.917  21.249  1.00  0.00    -0.246 N 
ATOM     24  H4  UNL     1      19.739 -15.404  20.492  1.00  0.00     0.184 HD
ATOM     25  H5  UNL     1      18.469 -13.068  20.684  1.00  0.00     0.203 HD
BRANCH  17  26
HETATM   26  C12 UNL     1      20.103 -15.272  24.148  1.00  0.00     0.033 A 
HETATM   27  C13 UNL     1      20.082 -14.479  25.250  1.00  0.00     0.029 A 
HETATM   28  C14 UNL     1      21.349 -13.993  25.516  1.00  0.00     0.039 A 
HETATM   29  C15 UNL     1      22.140 -14.513  24.548  1.00  0.00     0.080 A 
HETATM   30 BR1  UNL     1      24.021 -14.170  24.422  1.00  0.00    -0.031 Br
HETATM   31  N3  UNL     1      21.413 -15.266  23.742  1.00  0.00    -0.352 N 
ATOM     32  H3  UNL     1      21.774 -15.771  22.932  1.00  0.00     0.166 HD
ENDBRANCH  17  26
ENDBRANCH  10  11
ENDBRANCH   4   9
BRANCH   4  33
HETATM   33  C18 UNL     1      13.842 -13.766  20.585  1.00  0.00     0.002 A 
HETATM   34  C19 UNL     1      12.595 -13.980  21.163  1.00  0.00     0.011 A 
HETATM   35  C20 UNL     1      12.009 -13.039  21.991  1.00  0.00     0.001 A 
HETATM   36  C21 UNL     1      12.701 -11.864  22.234  1.00  0.00     0.000 A 
HETATM   37  C22 UNL     1      13.931 -11.646  21.668  1.00  0.00     0.001 A 
HETATM   38  C23 UNL     1      14.493 -12.587  20.853  1.00  0.00     0.011 A 
ENDBRANCH   4  33
ENDBRANCH   3   4
TORSDOF 6
ENDMDL
MODEL 3
REMARK VINA RESULT: -7.688678233      3.861      7.989
REMARK  6 active torsions:
REMARK  status: ('A' for Active; 'I' for Inactive)
REMARK    1  A    between atoms: C3_3  and  C4_4 
REMARK    2  A    between atoms: C4_4  and  N1_5 
REMARK    3  A    between atoms: C4_4  and  C5_9 
REMARK    4  A    between atoms: C4_4  and  C18_33 
REMARK    5  A    between atoms: C6_10  and  C7_11 
REMARK    6  A    between atoms: C11_17  and  C12_18 
ROOT
HETATM    1  C1  UNL     1      16.334 -19.717  25.418  1.00  0.00     0.112 C 
HETATM    2  C2  UNL     1      17.112 -18.663  24.733  1.00  0.00    -0.107 C 
HETATM    3  C3  UNL     1      17.730 -17.791  24.180  1.00  0.00    -0.050 C 
ENDROOT
BRANCH   3   4
HETATM    4  C4  UNL     1      18.465 -16.733  23.501  1.00  0.00     0.275 C 
BRANCH   4   5
HETATM    5  N1  UNL     1      19.422 -17.369  22.617  1.00  0.00    -0.044 N 
ATOM      6  H13 UNL     1      19.583 -16.843  21.758  1.00  0.00     0.277 HD
ATOM      7  H12 UNL     1      20.377 -17.338  22.972  1.00  0.00     0.277 HD
ATOM      8  H11 UNL     1      19.092 -18.319  22.446  1.00  0.00     0.277 HD
ENDBRANCH   4   5
BRANCH   4   9
HETATM    9  C5  UNL     1      17.535 -15.872  22.728  1.00  0.00    -0.047 C 
HETATM   10  C6  UNL     1      16.771 -15.191  22.097  1.00  0.00    -0.075 C 
BRANCH  10  11
HETATM   11  C7  UNL     1      15.835 -14.386  21.326  1.00  0.00     0.132 C 
HETATM   12  C8  UNL     1      15.253 -13.243  22.098  1.00  0.00     0.163 C 
HETATM   13  N2  UNL     1      14.597 -12.359  21.159  1.00  0.00    -0.353 N 
HETATM   14  C9  UNL     1      14.035 -11.131  21.616  1.00  0.00     0.152 C 
HETATM   15  C10 UNL     1      14.521 -12.737  19.772  1.00  0.00     0.239 C 
HETATM   16  O1  UNL     1      13.492 -12.442  19.141  1.00  0.00    -0.272 OA
HETATM   17  C11 UNL     1      15.656 -13.459  19.142  1.00  0.00     0.137 C 
HETATM   18  C16 UNL     1      15.055 -14.843  18.747  1.00  0.00     0.106 C 
HETATM   19  C17 UNL     1      16.645 -13.797  20.157  1.00  0.00     0.189 A 
HETATM   20  S1  UNL     1      14.613 -15.383  20.446  1.00  0.00    -0.138 SA
HETATM   21  N4  UNL     1      17.473 -12.786  20.744  1.00  0.00    -0.293 N 
HETATM   22  N6  UNL     1      17.823 -14.519  19.861  1.00  0.00    -0.088 NA
HETATM   23  N5  UNL     1      18.495 -13.472  20.462  1.00  0.00    -0.246 N 
ATOM     24  H4  UNL     1      17.307 -11.889  21.198  1.00  0.00     0.184 HD
ATOM     25  H5  UNL     1      19.489 -13.308  20.624  1.00  0.00     0.203 HD
BRANCH  17  26
HETATM   26  C12 UNL     1      16.051 -12.864  17.883  1.00  0.00     0.033 A 
HETATM   27  C13 UNL     1      17.195 -12.333  17.381  1.00  0.00     0.029 A 
HETATM   28  C14 UNL     1      17.006 -11.937  16.070  1.00  0.00     0.039 A 
HETATM   29  C15 UNL     1      15.718 -12.242  15.788  1.00  0.00     0.080 A 
HETATM   30 BR1  UNL     1      14.900 -11.909  14.088  1.00  0.00    -0.031 Br
HETATM   31  N3  UNL     1      15.151 -12.788  16.850  1.00  0.00    -0.352 N 
ATOM     32  H3  UNL     1      14.183 -13.108  16.895  1.00  0.00     0.166 HD
ENDBRANCH  17  26
ENDBRANCH  10  11
ENDBRANCH   4   9
BRANCH   4  33
HETATM   33  C18 UNL     1      19.149 -15.851  24.461  1.00  0.00     0.002 A 
HETATM   34  C19 UNL     1      19.204 -16.237  25.796  1.00  0.00     0.011 A 
HETATM   35  C20 UNL     1      19.831 -15.456  26.751  1.00  0.00     0.001 A 
HETATM   36  C21 UNL     1      20.409 -14.265  26.342  1.00  0.00     0.000 A 
HETATM   37  C22 UNL     1      20.359 -13.878  25.028  1.00  0.00     0.001 A 
HETATM   38  C23 UNL     1      19.736 -14.664  24.099  1.00  0.00     0.011 A 
ENDBRANCH   4  33
ENDBRANCH   3   4
TORSDOF 6
ENDMDL
MODEL 4
REMARK VINA RESULT: -7.613571524      1.212      2.903
REMARK  6 active torsions:
REMARK  status: ('A' for Active; 'I' for Inactive)
REMARK    1  A    between atoms: C3_3  and  C4_4 
REMARK    2  A    between atoms: C4_4  and  N1_5 
REMARK    3  A    between atoms: C4_4  and  C5_9 
REMARK    4  A    between atoms: C4_4  and  C18_33 
REMARK    5  A    between atoms: C6_10  and  C7_11 
REMARK    6  A    between atoms: C11_17  and  C12_18 
ROOT
HETATM    1  C1  UNL     1      17.685 -12.413  17.391  1.00  0.00     0.112 C 
HETATM    2  C2  UNL     1      16.934 -13.097  18.466  1.00  0.00    -0.107 C 
HETATM    3  C3  UNL     1      16.310 -13.661  19.325  1.00  0.00    -0.050 C 
ENDROOT
BRANCH   3   4
HETATM    4  C4  UNL     1      15.540 -14.338  20.360  1.00  0.00     0.275 C 
BRANCH   4   5
HETATM    5  N1  UNL     1      14.798 -15.405  19.718  1.00  0.00    -0.044 N 
ATOM      6  H13 UNL     1      13.889 -15.103  19.367  1.00  0.00     0.277 HD
ATOM      7  H12 UNL     1      15.198 -15.687  18.824  1.00  0.00     0.277 HD
ATOM      8  H11 UNL     1      14.731 -16.174  20.386  1.00  0.00     0.277 HD
ENDBRANCH   4   5
BRANCH   4   9
HETATM    9  C5  UNL     1      16.446 -14.888  21.400  1.00  0.00    -0.047 C 
HETATM   10  C6  UNL     1      17.167 -15.348  22.245  1.00  0.00    -0.075 C 
BRANCH  10  11
HETATM   11  C7  UNL     1      18.025 -15.922  23.272  1.00  0.00     0.132 C 
HETATM   12  C8  UNL     1      17.944 -17.414  23.353  1.00  0.00     0.163 C 
HETATM   13  N2  UNL     1      19.043 -17.876  24.173  1.00  0.00    -0.353 N 
HETATM   14  C9  UNL     1      19.264 -19.275  24.340  1.00  0.00     0.152 C 
HETATM   15  C10 UNL     1      19.898 -16.910  24.813  1.00  0.00     0.239 C 
HETATM   16  O1  UNL     1      20.331 -17.172  25.948  1.00  0.00    -0.272 OA
HETATM   17  C11 UNL     1      20.234 -15.645  24.112  1.00  0.00     0.137 C 
HETATM   18  C16 UNL     1      19.612 -14.533  25.011  1.00  0.00     0.106 C 
HETATM   19  C17 UNL     1      19.466 -15.551  22.877  1.00  0.00     0.189 A 
HETATM   20  S1  UNL     1      17.865 -15.085  24.864  1.00  0.00    -0.138 SA
HETATM   21  N4  UNL     1      19.774 -16.383  21.752  1.00  0.00    -0.293 N 
HETATM   22  N6  UNL     1      19.549 -14.437  22.011  1.00  0.00    -0.088 NA
HETATM   23  N5  UNL     1      19.832 -15.356  21.019  1.00  0.00    -0.246 N 
ATOM     24  H4  UNL     1      19.896 -17.385  21.605  1.00  0.00     0.184 HD
ATOM     25  H5  UNL     1      20.024 -15.243  20.024  1.00  0.00     0.203 HD
BRANCH  17  26
HETATM   26  C12 UNL     1      21.655 -15.371  24.129  1.00  0.00     0.033 A 
HETATM   27  C13 UNL     1      22.428 -14.291  24.411  1.00  0.00     0.029 A 
HETATM   28  C14 UNL     1      23.767 -14.617  24.299  1.00  0.00     0.039 A 
HETATM   29  C15 UNL     1      23.787 -15.923  23.943  1.00  0.00     0.080 A 
HETATM   30 BR1  UNL     1      25.401 -16.913  23.646  1.00  0.00    -0.031 Br
HETATM   31  N3  UNL     1      22.549 -16.372  23.842  1.00  0.00    -0.352 N 
ATOM     32  H3  UNL     1      22.293 -17.326  23.588  1.00  0.00     0.166 HD
ENDBRANCH  17  26
ENDBRANCH  10  11
ENDBRANCH   4   9
BRANCH   4  33
HETATM   33  C18 UNL     1      14.630 -13.409  21.048  1.00  0.00     0.002 A 
HETATM   34  C19 UNL     1      13.543 -13.934  21.741  1.00  0.00     0.011 A 
HETATM   35  C20 UNL     1      12.647 -13.117  22.409  1.00  0.00     0.001 A 
HETATM   36  C21 UNL     1      12.860 -11.749  22.373  1.00  0.00     0.000 A 
HETATM   37  C22 UNL     1      13.930 -11.225  21.693  1.00  0.00     0.001 A 
HETATM   38  C23 UNL     1      14.803 -12.047  21.039  1.00  0.00     0.011 A 
ENDBRANCH   4  33
ENDBRANCH   3   4
TORSDOF 6
ENDMDL
MODEL 5
REMARK VINA RESULT: -7.523947234      3.780      8.204
REMARK  6 active torsions:
REMARK  status: ('A' for Active; 'I' for Inactive)
REMARK    1  A    between atoms: C3_3  and  C4_4 
REMARK    2  A    between atoms: C4_4  and  N1_5 
REMARK    3  A    between atoms: C4_4  and  C5_9 
REMARK    4  A    between atoms: C4_4  and  C18_33 
REMARK    5  A    between atoms: C6_10  and  C7_11 
REMARK    6  A    between atoms: C11_17  and  C12_18 
ROOT
HETATM    1  C1  UNL     1      21.083 -19.164  21.354  1.00  0.00     0.112 C 
HETATM    2  C2  UNL     1      20.626 -17.916  22.004  1.00  0.00    -0.107 C 
HETATM    3  C3  UNL     1      20.266 -16.907  22.549  1.00  0.00    -0.050 C 
ENDROOT
BRANCH   3   4
HETATM    4  C4  UNL     1      19.825 -15.693  23.223  1.00  0.00     0.275 C 
BRANCH   4   5
HETATM    5  N1  UNL     1      20.883 -14.712  23.084  1.00  0.00    -0.044 N 
ATOM      6  H13 UNL     1      20.858 -13.992  23.805  1.00  0.00     0.277 HD
ATOM      7  H12 UNL     1      21.806 -15.087  23.303  1.00  0.00     0.277 HD
ATOM      8  H11 UNL     1      20.823 -14.332  22.139  1.00  0.00     0.277 HD
ENDBRANCH   4   5
BRANCH   4   9
HETATM    9  C5  UNL     1      18.568 -15.192  22.612  1.00  0.00    -0.047 C 
HETATM   10  C6  UNL     1      17.554 -14.795  22.102  1.00  0.00    -0.075 C 
BRANCH  10  11
HETATM   11  C7  UNL     1      16.333 -14.326  21.464  1.00  0.00     0.132 C 
HETATM   12  C8  UNL     1      15.703 -13.161  22.162  1.00  0.00     0.163 C 
HETATM   13  N2  UNL     1      14.699 -12.603  21.282  1.00  0.00    -0.353 N 
HETATM   14  C9  UNL     1      14.005 -11.416  21.661  1.00  0.00     0.152 C 
HETATM   15  C10 UNL     1      14.414 -13.261  20.034  1.00  0.00     0.239 C 
HETATM   16  O1  UNL     1      13.238 -13.271  19.633  1.00  0.00    -0.272 OA
HETATM   17  C11 UNL     1      15.515 -13.900  19.269  1.00  0.00     0.137 C 
HETATM   18  C16 UNL     1      15.142 -15.415  19.258  1.00  0.00     0.106 C 
HETATM   19  C17 UNL     1      16.743 -13.861  20.054  1.00  0.00     0.189 A 
HETATM   20  S1  UNL     1      15.185 -15.666  21.077  1.00  0.00    -0.138 SA
HETATM   21  N4  UNL     1      17.450 -12.631  20.253  1.00  0.00    -0.293 N 
HETATM   22  N6  UNL     1      17.956 -14.426  19.599  1.00  0.00    -0.088 NA
HETATM   23  N5  UNL     1      18.509 -13.184  19.844  1.00  0.00    -0.246 N 
ATOM     24  H4  UNL     1      17.202 -11.700  20.586  1.00  0.00     0.184 HD
ATOM     25  H5  UNL     1      19.459 -12.831  19.732  1.00  0.00     0.203 HD
BRANCH  17  26
HETATM   26  C12 UNL     1      15.508 -13.516  17.875  1.00  0.00     0.033 A 
HETATM   27  C13 UNL     1      15.715 -14.154  16.694  1.00  0.00     0.029 A 
HETATM   28  C14 UNL     1      15.540 -13.279  15.638  1.00  0.00     0.039 A 
HETATM   29  C15 UNL     1      15.219 -12.094  16.207  1.00  0.00     0.080 A 
HETATM   30 BR1  UNL     1      14.861 -10.501  15.203  1.00  0.00    -0.031 Br
HETATM   31  N3  UNL     1      15.199 -12.227  17.522  1.00  0.00    -0.352 N 
ATOM     32  H3  UNL     1      14.983 -11.478  18.181  1.00  0.00     0.166 HD
ENDBRANCH  17  26
ENDBRANCH  10  11
ENDBRANCH   4   9
BRANCH   4  33
HETATM   33  C18 UNL     1      19.529 -15.943  24.643  1.00  0.00     0.002 A 
HETATM   34  C19 UNL     1      20.193 -15.188  25.604  1.00  0.00     0.011 A 
HETATM   35  C20 UNL     1      19.963 -15.371  26.956  1.00  0.00     0.001 A 
HETATM   36  C21 UNL     1      19.044 -16.336  27.336  1.00  0.00     0.000 A 
HETATM   37  C22 UNL     1      18.384 -17.083  26.394  1.00  0.00     0.001 A 
HETATM   38  C23 UNL     1      18.625 -16.887  25.064  1.00  0.00     0.011 A 
ENDBRANCH   4  33
ENDBRANCH   3   4
TORSDOF 6
ENDMDL
