MODEL 1
REMARK VINA RESULT: -7.194657143      0.000      0.000
REMARK  9 active torsions:
REMARK  status: ('A' for Active; 'I' for Inactive)
REMARK    1  A    between atoms: C2_4  and  C3_5 
REMARK    2  A    between atoms: C2_4  and  N3_10 
REMARK    3  A    between atoms: C3_5  and  N2_6 
REMARK    4  A    between atoms: N3_10  and  N4_11 
REMARK    5  A    between atoms: N4_11  and  C4_13 
REMARK    6  A    between atoms: C4_13  and  N5_15 
REMARK    7  A    between atoms: N5_15  and  N6_17 
REMARK       I    between atoms: N6_17  and  C5_19 
REMARK       I    between atoms: C5_19  and  N7_21 
REMARK    8  A    between atoms: N7_21  and  C6_23 
REMARK    9  A    between atoms: C6_23  and  O2_25 
ROOT
HETATM    1  C4  UNL     1       9.121   2.818  91.133  1.00  0.00     0.216 C 
HETATM    2  S1  UNL     1       9.399   1.526  92.092  1.00  0.00    -0.037 SA
ENDROOT
BRANCH   1   3
HETATM    3  N4  UNL     1       9.760   4.056  91.527  1.00  0.00    -0.206 N 
ATOM      4  H4  UNL     1      10.691   4.265  91.167  1.00  0.00     0.204 HD
BRANCH   3   5
HETATM    5  N3  UNL     1       9.179   4.925  92.336  1.00  0.00    -0.308 NA
BRANCH   5   6
HETATM    6  C2  UNL     1       8.576   5.828  93.179  1.00  0.00     0.201 C 
HETATM    7  N1  UNL     1       9.165   6.899  93.536  1.00  0.00    -0.370 N 
HETATM    8  C1  UNL     1       8.578   7.848  94.423  1.00  0.00     0.148 C 
ATOM      9  H1  UNL     1      10.100   7.087  93.172  1.00  0.00     0.161 HD
BRANCH   6  10
HETATM   10  C3  UNL     1       7.201   5.583  93.731  1.00  0.00     0.323 C 
BRANCH  10  11
HETATM   11  N2  UNL     1       6.410   4.832  92.790  1.00  0.00    -0.071 N 
ATOM     12  H23 UNL     1       5.479   4.628  93.154  1.00  0.00     0.274 HD
ATOM     13  H22 UNL     1       6.138   5.396  91.986  1.00  0.00     0.274 HD
ATOM     14  H21 UNL     1       6.904   3.984  92.510  1.00  0.00     0.274 HD
ENDBRANCH  10  11
ENDBRANCH   6  10
ENDBRANCH   5   6
ENDBRANCH   3   5
ENDBRANCH   1   3
BRANCH   1  15
HETATM   15  N5  UNL     1       8.304   2.673  90.004  1.00  0.00    -0.270 N 
ATOM     16  H5  UNL     1       8.705   2.883  89.089  1.00  0.00     0.189 HD
BRANCH  15  17
HETATM   17  N6  UNL     1       6.975   2.257  90.060  1.00  0.00    -0.249 N 
HETATM   18  C5  UNL     1       6.533   1.160  89.267  1.00  0.00     0.336 C 
HETATM   19  O1  UNL     1       7.364   0.581  88.506  1.00  0.00    -0.246 OA
HETATM   20  N7  UNL     1       5.215   0.675  89.282  1.00  0.00    -0.316 N 
ATOM     21  H7  UNL     1       4.530   1.126  89.888  1.00  0.00     0.166 HD
ATOM     22  H6  UNL     1       6.318   2.740  90.671  1.00  0.00     0.192 HD
BRANCH  20  23
HETATM   23  C6  UNL     1       4.802  -0.434  88.471  1.00  0.00     0.217 C 
HETATM   24  C7  UNL     1       3.330  -0.482  88.206  1.00  0.00     0.063 C 
BRANCH  23  25
HETATM   25  O2  UNL     1       5.262  -1.610  89.097  1.00  0.00    -0.377 OA
ATOM     26  H2  UNL     1       4.744  -1.737  89.883  1.00  0.00     0.212 HD
ENDBRANCH  23  25
ENDBRANCH  20  23
ENDBRANCH  15  17
ENDBRANCH   1  15
TORSDOF 9
ENDMDL
MODEL 2
REMARK VINA RESULT: -7.155887092      3.341      4.614
REMARK  9 active torsions:
REMARK  status: ('A' for Active; 'I' for Inactive)
REMARK    1  A    between atoms: C2_4  and  C3_5 
REMARK    2  A    between atoms: C2_4  and  N3_10 
REMARK    3  A    between atoms: C3_5  and  N2_6 
REMARK    4  A    between atoms: N3_10  and  N4_11 
REMARK    5  A    between atoms: N4_11  and  C4_13 
REMARK    6  A    between atoms: C4_13  and  N5_15 
REMARK    7  A    between atoms: N5_15  and  N6_17 
REMARK       I    between atoms: N6_17  and  C5_19 
REMARK       I    between atoms: C5_19  and  N7_21 
REMARK    8  A    between atoms: N7_21  and  C6_23 
REMARK    9  A    between atoms: C6_23  and  O2_25 
ROOT
HETATM    1  C4  UNL     1       7.290   4.770  93.497  1.00  0.00     0.216 C 
HETATM    2  S1  UNL     1       8.401   5.939  93.244  1.00  0.00    -0.037 SA
ENDROOT
BRANCH   1   3
HETATM    3  N4  UNL     1       6.835   4.605  94.862  1.00  0.00    -0.206 N 
ATOM      4  H4  UNL     1       6.956   5.376  95.517  1.00  0.00     0.204 HD
BRANCH   3   5
HETATM    5  N3  UNL     1       6.268   3.489  95.287  1.00  0.00    -0.308 NA
BRANCH   5   6
HETATM    6  C2  UNL     1       5.678   2.329  95.727  1.00  0.00     0.201 C 
HETATM    7  N1  UNL     1       5.638   2.032  96.966  1.00  0.00    -0.370 N 
HETATM    8  C1  UNL     1       5.051   0.830  97.456  1.00  0.00     0.148 C 
ATOM      9  H1  UNL     1       6.044   2.685  97.637  1.00  0.00     0.161 HD
BRANCH   6  10
HETATM   10  C3  UNL     1       5.068   1.349  94.767  1.00  0.00     0.323 C 
BRANCH  10  11
HETATM   11  N2  UNL     1       4.408   2.046  93.692  1.00  0.00    -0.071 N 
ATOM     12  H23 UNL     1       3.446   1.731  93.570  1.00  0.00     0.274 HD
ATOM     13  H22 UNL     1       4.219   3.019  93.930  1.00  0.00     0.274 HD
ATOM     14  H21 UNL     1       4.949   1.962  92.832  1.00  0.00     0.274 HD
ENDBRANCH  10  11
ENDBRANCH   6  10
ENDBRANCH   5   6
ENDBRANCH   3   5
ENDBRANCH   1   3
BRANCH   1  15
HETATM   15  N5  UNL     1       6.838   4.006  92.413  1.00  0.00    -0.270 N 
ATOM     16  H5  UNL     1       5.843   3.784  92.362  1.00  0.00     0.189 HD
BRANCH  15  17
HETATM   17  N6  UNL     1       7.670   3.531  91.402  1.00  0.00    -0.249 N 
HETATM   18  C5  UNL     1       7.573   2.179  90.968  1.00  0.00     0.336 C 
HETATM   19  O1  UNL     1       6.727   1.418  91.524  1.00  0.00    -0.246 OA
HETATM   20  N7  UNL     1       8.366   1.634  89.945  1.00  0.00    -0.316 N 
ATOM     21  H7  UNL     1       9.053   2.230  89.483  1.00  0.00     0.166 HD
ATOM     22  H6  UNL     1       8.352   4.155  90.971  1.00  0.00     0.192 HD
BRANCH  20  23
HETATM   23  C6  UNL     1       8.242   0.266  89.530  1.00  0.00     0.217 C 
HETATM   24  C7  UNL     1       9.201  -0.666  90.200  1.00  0.00     0.063 C 
BRANCH  23  25
HETATM   25  O2  UNL     1       8.373   0.236  88.127  1.00  0.00    -0.377 OA
ATOM     26  H2  UNL     1       9.144   0.743  87.902  1.00  0.00     0.212 HD
ENDBRANCH  23  25
ENDBRANCH  20  23
ENDBRANCH  15  17
ENDBRANCH   1  15
TORSDOF 9
ENDMDL
MODEL 3
REMARK VINA RESULT: -7.101874308      3.269      5.874
REMARK  9 active torsions:
REMARK  status: ('A' for Active; 'I' for Inactive)
REMARK    1  A    between atoms: C2_4  and  C3_5 
REMARK    2  A    between atoms: C2_4  and  N3_10 
REMARK    3  A    between atoms: C3_5  and  N2_6 
REMARK    4  A    between atoms: N3_10  and  N4_11 
REMARK    5  A    between atoms: N4_11  and  C4_13 
REMARK    6  A    between atoms: C4_13  and  N5_15 
REMARK    7  A    between atoms: N5_15  and  N6_17 
REMARK       I    between atoms: N6_17  and  C5_19 
REMARK       I    between atoms: C5_19  and  N7_21 
REMARK    8  A    between atoms: N7_21  and  C6_23 
REMARK    9  A    between atoms: C6_23  and  O2_25 
ROOT
HETATM    1  C4  UNL     1       8.354   4.039  91.707  1.00  0.00     0.216 C 
HETATM    2  S1  UNL     1       9.510   4.747  92.617  1.00  0.00    -0.037 SA
ENDROOT
BRANCH   1   3
HETATM    3  N4  UNL     1       8.816   3.285  90.560  1.00  0.00    -0.206 N 
ATOM      4  H4  UNL     1       9.695   3.552  90.118  1.00  0.00     0.204 HD
BRANCH   3   5
HETATM    5  N3  UNL     1       8.136   2.265  90.066  1.00  0.00    -0.308 NA
BRANCH   5   6
HETATM    6  C2  UNL     1       7.429   1.204  89.553  1.00  0.00     0.201 C 
HETATM    7  N1  UNL     1       6.157   1.158  89.622  1.00  0.00    -0.370 N 
HETATM    8  C1  UNL     1       5.393   0.066  89.118  1.00  0.00     0.148 C 
ATOM      9  H1  UNL     1       5.664   1.939  90.057  1.00  0.00     0.161 HD
BRANCH   6  10
HETATM   10  C3  UNL     1       8.124   0.042  88.904  1.00  0.00     0.323 C 
BRANCH  10  11
HETATM   11  N2  UNL     1       9.245  -0.381  89.704  1.00  0.00    -0.071 N 
ATOM     12  H23 UNL     1       9.847  -1.032  89.199  1.00  0.00     0.274 HD
ATOM     13  H22 UNL     1       9.919   0.372  89.842  1.00  0.00     0.274 HD
ATOM     14  H21 UNL     1       8.921  -0.769  90.589  1.00  0.00     0.274 HD
ENDBRANCH  10  11
ENDBRANCH   6  10
ENDBRANCH   5   6
ENDBRANCH   3   5
ENDBRANCH   1   3
BRANCH   1  15
HETATM   15  N5  UNL     1       7.009   4.186  92.070  1.00  0.00    -0.270 N 
ATOM     16  H5  UNL     1       6.346   4.478  91.352  1.00  0.00     0.189 HD
BRANCH  15  17
HETATM   17  N6  UNL     1       6.525   3.954  93.356  1.00  0.00    -0.249 N 
HETATM   18  C5  UNL     1       6.026   2.670  93.714  1.00  0.00     0.336 C 
HETATM   19  O1  UNL     1       6.019   1.751  92.842  1.00  0.00    -0.246 OA
HETATM   20  N7  UNL     1       5.537   2.358  94.993  1.00  0.00    -0.316 N 
ATOM     21  H7  UNL     1       5.535   3.082  95.711  1.00  0.00     0.166 HD
ATOM     22  H6  UNL     1       6.530   4.707  94.044  1.00  0.00     0.192 HD
BRANCH  20  23
HETATM   23  C6  UNL     1       5.041   1.052  95.322  1.00  0.00     0.217 C 
HETATM   24  C7  UNL     1       4.571   0.915  96.736  1.00  0.00     0.063 C 
BRANCH  23  25
HETATM   25  O2  UNL     1       6.056   0.124  95.013  1.00  0.00    -0.377 OA
ATOM     26  H2  UNL     1       5.851  -0.252  94.165  1.00  0.00     0.212 HD
ENDBRANCH  23  25
ENDBRANCH  20  23
ENDBRANCH  15  17
ENDBRANCH   1  15
TORSDOF 9
ENDMDL
MODEL 4
REMARK VINA RESULT: -6.969516408      3.347      5.761
REMARK  9 active torsions:
REMARK  status: ('A' for Active; 'I' for Inactive)
REMARK    1  A    between atoms: C2_4  and  C3_5 
REMARK    2  A    between atoms: C2_4  and  N3_10 
REMARK    3  A    between atoms: C3_5  and  N2_6 
REMARK    4  A    between atoms: N3_10  and  N4_11 
REMARK    5  A    between atoms: N4_11  and  C4_13 
REMARK    6  A    between atoms: C4_13  and  N5_15 
REMARK    7  A    between atoms: N5_15  and  N6_17 
REMARK       I    between atoms: N6_17  and  C5_19 
REMARK       I    between atoms: C5_19  and  N7_21 
REMARK    8  A    between atoms: N7_21  and  C6_23 
REMARK    9  A    between atoms: C6_23  and  O2_25 
ROOT
HETATM    1  C4  UNL     1       8.240   4.226  91.758  1.00  0.00     0.216 C 
HETATM    2  S1  UNL     1       9.436   4.739  92.743  1.00  0.00    -0.037 SA
ENDROOT
BRANCH   1   3
HETATM    3  N4  UNL     1       8.650   3.707  90.470  1.00  0.00    -0.206 N 
ATOM      4  H4  UNL     1       9.076   4.344  89.796  1.00  0.00     0.204 HD
BRANCH   3   5
HETATM    5  N3  UNL     1       8.493   2.437  90.137  1.00  0.00    -0.308 NA
BRANCH   5   6
HETATM    6  C2  UNL     1       8.330   1.118  89.790  1.00  0.00     0.201 C 
HETATM    7  N1  UNL     1       9.231   0.251  90.034  1.00  0.00    -0.370 N 
HETATM    8  C1  UNL     1       9.104  -1.122  89.671  1.00  0.00     0.148 C 
ATOM      9  H1  UNL     1      10.082   0.552  90.511  1.00  0.00     0.161 HD
BRANCH   6  10
HETATM   10  C3  UNL     1       7.090   0.641  89.090  1.00  0.00     0.323 C 
BRANCH  10  11
HETATM   11  N2  UNL     1       5.919   0.991  89.854  1.00  0.00    -0.071 N 
ATOM     12  H23 UNL     1       5.748   0.328  90.610  1.00  0.00     0.274 HD
ATOM     13  H22 UNL     1       6.068   1.827  90.417  1.00  0.00     0.274 HD
ATOM     14  H21 UNL     1       5.111   1.085  89.239  1.00  0.00     0.274 HD
ENDBRANCH  10  11
ENDBRANCH   6  10
ENDBRANCH   5   6
ENDBRANCH   3   5
ENDBRANCH   1   3
BRANCH   1  15
HETATM   15  N5  UNL     1       6.910   4.305  92.192  1.00  0.00    -0.270 N 
ATOM     16  H5  UNL     1       6.200   4.599  91.521  1.00  0.00     0.189 HD
BRANCH  15  17
HETATM   17  N6  UNL     1       6.503   4.006  93.491  1.00  0.00    -0.249 N 
HETATM   18  C5  UNL     1       6.034   2.700  93.812  1.00  0.00     0.336 C 
HETATM   19  O1  UNL     1       5.984   1.826  92.898  1.00  0.00    -0.246 OA
HETATM   20  N7  UNL     1       5.622   2.321  95.100  1.00  0.00    -0.316 N 
ATOM     21  H7  UNL     1       5.655   3.009  95.852  1.00  0.00     0.166 HD
ATOM     22  H6  UNL     1       6.541   4.724  94.213  1.00  0.00     0.192 HD
BRANCH  20  23
HETATM   23  C6  UNL     1       5.155   0.996  95.391  1.00  0.00     0.217 C 
HETATM   24  C7  UNL     1       4.785   0.779  96.825  1.00  0.00     0.063 C 
BRANCH  23  25
HETATM   25  O2  UNL     1       6.149   0.093  94.963  1.00  0.00    -0.377 OA
ATOM     26  H2  UNL     1       5.760  -0.468  94.303  1.00  0.00     0.212 HD
ENDBRANCH  23  25
ENDBRANCH  20  23
ENDBRANCH  15  17
ENDBRANCH   1  15
TORSDOF 9
ENDMDL
MODEL 5
REMARK VINA RESULT: -6.889740804      3.760      6.285
REMARK  9 active torsions:
REMARK  status: ('A' for Active; 'I' for Inactive)
REMARK    1  A    between atoms: C2_4  and  C3_5 
REMARK    2  A    between atoms: C2_4  and  N3_10 
REMARK    3  A    between atoms: C3_5  and  N2_6 
REMARK    4  A    between atoms: N3_10  and  N4_11 
REMARK    5  A    between atoms: N4_11  and  C4_13 
REMARK    6  A    between atoms: C4_13  and  N5_15 
REMARK    7  A    between atoms: N5_15  and  N6_17 
REMARK       I    between atoms: N6_17  and  C5_19 
REMARK       I    between atoms: C5_19  and  N7_21 
REMARK    8  A    between atoms: N7_21  and  C6_23 
REMARK    9  A    between atoms: C6_23  and  O2_25 
ROOT
HETATM    1  C4  UNL     1       7.589   1.867  91.138  1.00  0.00     0.216 C 
HETATM    2  S1  UNL     1       7.753   0.749  89.959  1.00  0.00    -0.037 SA
ENDROOT
BRANCH   1   3
HETATM    3  N4  UNL     1       7.459   1.359  92.488  1.00  0.00    -0.206 N 
ATOM      4  H4  UNL     1       8.225   0.814  92.884  1.00  0.00     0.204 HD
BRANCH   3   5
HETATM    5  N3  UNL     1       6.383   1.577  93.224  1.00  0.00    -0.308 NA
BRANCH   5   6
HETATM    6  C2  UNL     1       5.265   1.803  93.990  1.00  0.00     0.201 C 
HETATM    7  N1  UNL     1       4.094   1.751  93.488  1.00  0.00    -0.370 N 
HETATM    8  C1  UNL     1       2.914   1.997  94.247  1.00  0.00     0.148 C 
ATOM      9  H1  UNL     1       3.998   1.523  92.498  1.00  0.00     0.161 HD
BRANCH   6  10
HETATM   10  C3  UNL     1       5.372   2.137  95.450  1.00  0.00     0.323 C 
BRANCH  10  11
HETATM   11  N2  UNL     1       6.081   3.378  95.628  1.00  0.00    -0.071 N 
ATOM     12  H23 UNL     1       6.937   3.409  95.074  1.00  0.00     0.274 HD
ATOM     13  H22 UNL     1       5.592   4.161  95.195  1.00  0.00     0.274 HD
ATOM     14  H21 UNL     1       6.262   3.543  96.618  1.00  0.00     0.274 HD
ENDBRANCH  10  11
ENDBRANCH   6  10
ENDBRANCH   5   6
ENDBRANCH   3   5
ENDBRANCH   1   3
BRANCH   1  15
HETATM   15  N5  UNL     1       7.586   3.227  90.800  1.00  0.00    -0.270 N 
ATOM     16  H5  UNL     1       7.044   3.520  89.987  1.00  0.00     0.189 HD
BRANCH  15  17
HETATM   17  N6  UNL     1       8.283   4.202  91.511  1.00  0.00    -0.249 N 
HETATM   18  C5  UNL     1       7.600   5.039  92.438  1.00  0.00     0.336 C 
HETATM   19  O1  UNL     1       6.352   4.888  92.593  1.00  0.00    -0.246 OA
HETATM   20  N7  UNL     1       8.236   6.031  93.201  1.00  0.00    -0.316 N 
ATOM     21  H7  UNL     1       9.241   6.168  93.092  1.00  0.00     0.166 HD
ATOM     22  H6  UNL     1       9.286   4.315  91.367  1.00  0.00     0.192 HD
BRANCH  20  23
HETATM   23  C6  UNL     1       7.518   6.857  94.128  1.00  0.00     0.217 C 
HETATM   24  C7  UNL     1       8.365   7.880  94.819  1.00  0.00     0.063 C 
BRANCH  23  25
HETATM   25  O2  UNL     1       6.873   6.004  95.045  1.00  0.00    -0.377 OA
ATOM     26  H2  UNL     1       6.957   6.394  95.907  1.00  0.00     0.212 HD
ENDBRANCH  23  25
ENDBRANCH  20  23
ENDBRANCH  15  17
ENDBRANCH   1  15
TORSDOF 9
ENDMDL
