MODEL 1
REMARK VINA RESULT: -6.648071547      0.000      0.000
REMARK  8 active torsions:
REMARK  status: ('A' for Active; 'I' for Inactive)
REMARK       I    between atoms: C2_2  and  N1_4 
REMARK    1  A    between atoms: N1_4  and  C3_6 
REMARK    2  A    between atoms: C3_6  and  N2_8 
REMARK    3  A    between atoms: N2_8  and  N3_10 
REMARK    4  A    between atoms: N3_10  and  C4_12 
REMARK    5  A    between atoms: C4_12  and  N4_14 
REMARK    6  A    between atoms: N4_14  and  N5_16 
REMARK       I    between atoms: N5_16  and  C5_18 
REMARK    7  A    between atoms: C5_18  and  C6_20 
REMARK    8  A    between atoms: C6_20  and  N6_21 
ROOT
HETATM    1  C4  UNL     1       8.228   4.186  91.731  1.00  0.00     0.205 C 
HETATM    2  S2  UNL     1       9.340   4.862  92.700  1.00  0.00    -0.038 SA
ENDROOT
BRANCH   1   3
HETATM    3  N3  UNL     1       8.599   3.678  90.461  1.00  0.00    -0.273 N 
ATOM      4  H3  UNL     1       8.308   4.159  89.610  1.00  0.00     0.189 HD
BRANCH   3   5
HETATM    5  N2  UNL     1       9.370   2.507  90.383  1.00  0.00    -0.274 N 
ATOM      6  H2  UNL     1      10.294   2.506  89.952  1.00  0.00     0.189 HD
BRANCH   5   7
HETATM    7  C3  UNL     1       8.805   1.321  90.933  1.00  0.00     0.193 C 
HETATM    8  S1  UNL     1       9.398   0.877  92.433  1.00  0.00    -0.039 SA
BRANCH   7   9
HETATM    9  N1  UNL     1       7.825   0.506  90.322  1.00  0.00    -0.303 N 
HETATM   10  C2  UNL     1       6.830   0.868  89.408  1.00  0.00     0.219 C 
HETATM   11  C1  UNL     1       5.893  -0.173  88.885  1.00  0.00     0.117 C 
HETATM   12  O1  UNL     1       6.681   2.023  89.000  1.00  0.00    -0.274 OA
ATOM     13  H1  UNL     1       7.846  -0.480  90.583  1.00  0.00     0.171 HD
ENDBRANCH   7   9
ENDBRANCH   5   7
ENDBRANCH   3   5
ENDBRANCH   1   3
BRANCH   1  14
HETATM   14  N4  UNL     1       6.884   4.124  92.183  1.00  0.00    -0.272 N 
ATOM     15  H4  UNL     1       6.131   4.399  91.551  1.00  0.00     0.189 HD
BRANCH  14  16
HETATM   16  N5  UNL     1       6.571   3.698  93.470  1.00  0.00    -0.266 N 
HETATM   17  C5  UNL     1       6.071   2.375  93.675  1.00  0.00     0.261 C 
HETATM   18  O2  UNL     1       5.919   1.623  92.677  1.00  0.00    -0.270 OA
ATOM     19  H5  UNL     1       6.699   4.327  94.264  1.00  0.00     0.190 HD
BRANCH  17  20
HETATM   20  C6  UNL     1       5.727   1.870  95.040  1.00  0.00     0.333 C 
BRANCH  20  21
HETATM   21  N6  UNL     1       5.828   2.973  95.967  1.00  0.00    -0.071 N 
ATOM     22  H63 UNL     1       5.300   3.791  95.664  1.00  0.00     0.274 HD
ATOM     23  H62 UNL     1       5.329   2.801  96.839  1.00  0.00     0.274 HD
ATOM     24  H61 UNL     1       6.818   3.176  96.112  1.00  0.00     0.274 HD
ENDBRANCH  20  21
ENDBRANCH  17  20
ENDBRANCH  14  16
ENDBRANCH   1  14
TORSDOF 8
ENDMDL
MODEL 2
REMARK VINA RESULT: -6.628105477      1.294      1.467
REMARK  8 active torsions:
REMARK  status: ('A' for Active; 'I' for Inactive)
REMARK       I    between atoms: C2_2  and  N1_4 
REMARK    1  A    between atoms: N1_4  and  C3_6 
REMARK    2  A    between atoms: C3_6  and  N2_8 
REMARK    3  A    between atoms: N2_8  and  N3_10 
REMARK    4  A    between atoms: N3_10  and  C4_12 
REMARK    5  A    between atoms: C4_12  and  N4_14 
REMARK    6  A    between atoms: N4_14  and  N5_16 
REMARK       I    between atoms: N5_16  and  C5_18 
REMARK    7  A    between atoms: C5_18  and  C6_20 
REMARK    8  A    between atoms: C6_20  and  N6_21 
ROOT
HETATM    1  C4  UNL     1       8.176   3.859  91.664  1.00  0.00     0.205 C 
HETATM    2  S2  UNL     1       9.483   4.440  92.430  1.00  0.00    -0.038 SA
ENDROOT
BRANCH   1   3
HETATM    3  N3  UNL     1       8.323   3.044  90.515  1.00  0.00    -0.273 N 
ATOM      4  H3  UNL     1       9.237   2.934  90.076  1.00  0.00     0.189 HD
BRANCH   3   5
HETATM    5  N2  UNL     1       7.200   2.389  89.984  1.00  0.00    -0.274 N 
ATOM      6  H2  UNL     1       6.319   2.881  89.832  1.00  0.00     0.189 HD
BRANCH   5   7
HETATM    7  C3  UNL     1       7.344   1.008  89.666  1.00  0.00     0.193 C 
HETATM    8  S1  UNL     1       8.707   0.269  90.295  1.00  0.00    -0.039 SA
BRANCH   7   9
HETATM    9  N1  UNL     1       6.461   0.241  88.872  1.00  0.00    -0.303 N 
HETATM   10  C2  UNL     1       5.078   0.077  89.008  1.00  0.00     0.219 C 
HETATM   11  C1  UNL     1       4.339  -0.790  88.041  1.00  0.00     0.117 C 
HETATM   12  O1  UNL     1       4.423   0.621  89.900  1.00  0.00    -0.274 OA
ATOM     13  H1  UNL     1       6.890  -0.261  88.095  1.00  0.00     0.171 HD
ENDBRANCH   7   9
ENDBRANCH   5   7
ENDBRANCH   3   5
ENDBRANCH   1   3
BRANCH   1  14
HETATM   14  N4  UNL     1       6.892   4.194  92.168  1.00  0.00    -0.272 N 
ATOM     15  H4  UNL     1       6.255   4.743  91.589  1.00  0.00     0.189 HD
BRANCH  14  16
HETATM   16  N5  UNL     1       6.483   3.791  93.436  1.00  0.00    -0.266 N 
HETATM   17  C5  UNL     1       6.154   2.420  93.670  1.00  0.00     0.261 C 
HETATM   18  O2  UNL     1       6.238   1.605  92.714  1.00  0.00    -0.270 OA
ATOM     19  H5  UNL     1       6.419   4.471  94.194  1.00  0.00     0.190 HD
BRANCH  17  20
HETATM   20  C6  UNL     1       5.717   1.938  95.016  1.00  0.00     0.333 C 
BRANCH  20  21
HETATM   21  N6  UNL     1       5.875   3.024  95.956  1.00  0.00    -0.071 N 
ATOM     22  H63 UNL     1       6.015   3.924  95.498  1.00  0.00     0.274 HD
ATOM     23  H62 UNL     1       5.010   3.250  96.445  1.00  0.00     0.274 HD
ATOM     24  H61 UNL     1       6.636   2.784  96.593  1.00  0.00     0.274 HD
ENDBRANCH  20  21
ENDBRANCH  17  20
ENDBRANCH  14  16
ENDBRANCH   1  14
TORSDOF 8
ENDMDL
MODEL 3
REMARK VINA RESULT: -6.559916579      2.816      5.517
REMARK  8 active torsions:
REMARK  status: ('A' for Active; 'I' for Inactive)
REMARK       I    between atoms: C2_2  and  N1_4 
REMARK    1  A    between atoms: N1_4  and  C3_6 
REMARK    2  A    between atoms: C3_6  and  N2_8 
REMARK    3  A    between atoms: N2_8  and  N3_10 
REMARK    4  A    between atoms: N3_10  and  C4_12 
REMARK    5  A    between atoms: C4_12  and  N4_14 
REMARK    6  A    between atoms: N4_14  and  N5_16 
REMARK       I    between atoms: N5_16  and  C5_18 
REMARK    7  A    between atoms: C5_18  and  C6_20 
REMARK    8  A    between atoms: C6_20  and  N6_21 
ROOT
HETATM    1  C4  UNL     1       8.366   2.885  90.962  1.00  0.00     0.205 C 
HETATM    2  S2  UNL     1       9.481   1.866  91.552  1.00  0.00    -0.038 SA
ENDROOT
BRANCH   1   3
HETATM    3  N3  UNL     1       8.106   4.116  91.612  1.00  0.00    -0.273 N 
ATOM      4  H3  UNL     1       8.810   4.854  91.616  1.00  0.00     0.189 HD
BRANCH   3   5
HETATM    5  N2  UNL     1       6.872   4.313  92.252  1.00  0.00    -0.274 N 
ATOM      6  H2  UNL     1       6.007   4.419  91.721  1.00  0.00     0.189 HD
BRANCH   5   7
HETATM    7  C3  UNL     1       6.879   4.357  93.676  1.00  0.00     0.193 C 
HETATM    8  S1  UNL     1       6.827   2.869  94.437  1.00  0.00    -0.039 SA
BRANCH   7   9
HETATM    9  N1  UNL     1       6.908   5.526  94.471  1.00  0.00    -0.303 N 
HETATM   10  C2  UNL     1       7.577   6.731  94.232  1.00  0.00     0.219 C 
HETATM   11  C1  UNL     1       7.464   7.847  95.221  1.00  0.00     0.117 C 
HETATM   12  O1  UNL     1       8.268   6.928  93.230  1.00  0.00    -0.274 OA
ATOM     13  H1  UNL     1       6.369   5.485  95.336  1.00  0.00     0.171 HD
ENDBRANCH   7   9
ENDBRANCH   5   7
ENDBRANCH   3   5
ENDBRANCH   1   3
BRANCH   1  14
HETATM   14  N4  UNL     1       7.659   2.509  89.790  1.00  0.00    -0.272 N 
ATOM     15  H4  UNL     1       7.970   2.861  88.884  1.00  0.00     0.189 HD
BRANCH  14  16
HETATM   16  N5  UNL     1       6.549   1.671  89.850  1.00  0.00    -0.266 N 
HETATM   17  C5  UNL     1       6.420   0.600  88.913  1.00  0.00     0.261 C 
HETATM   18  O2  UNL     1       7.317   0.443  88.044  1.00  0.00    -0.270 OA
ATOM     19  H5  UNL     1       5.832   1.821  90.561  1.00  0.00     0.190 HD
BRANCH  17  20
HETATM   20  C6  UNL     1       5.249  -0.329  88.942  1.00  0.00     0.333 C 
BRANCH  20  21
HETATM   21  N6  UNL     1       4.098   0.411  89.406  1.00  0.00    -0.071 N 
ATOM     22  H63 UNL     1       3.216  -0.040  89.163  1.00  0.00     0.274 HD
ATOM     23  H62 UNL     1       3.994   0.381  90.420  1.00  0.00     0.274 HD
ATOM     24  H61 UNL     1       4.166   1.363  89.045  1.00  0.00     0.274 HD
ENDBRANCH  20  21
ENDBRANCH  17  20
ENDBRANCH  14  16
ENDBRANCH   1  14
TORSDOF 8
ENDMDL
MODEL 4
REMARK VINA RESULT: -6.538693737      1.758      5.008
REMARK  8 active torsions:
REMARK  status: ('A' for Active; 'I' for Inactive)
REMARK       I    between atoms: C2_2  and  N1_4 
REMARK    1  A    between atoms: N1_4  and  C3_6 
REMARK    2  A    between atoms: C3_6  and  N2_8 
REMARK    3  A    between atoms: N2_8  and  N3_10 
REMARK    4  A    between atoms: N3_10  and  C4_12 
REMARK    5  A    between atoms: C4_12  and  N4_14 
REMARK    6  A    between atoms: N4_14  and  N5_16 
REMARK       I    between atoms: N5_16  and  C5_18 
REMARK    7  A    between atoms: C5_18  and  C6_20 
REMARK    8  A    between atoms: C6_20  and  N6_21 
ROOT
HETATM    1  C4  UNL     1       8.194   2.410  90.738  1.00  0.00     0.205 C 
HETATM    2  S2  UNL     1       9.191   1.174  91.068  1.00  0.00    -0.038 SA
ENDROOT
BRANCH   1   3
HETATM    3  N3  UNL     1       8.324   3.639  91.429  1.00  0.00    -0.273 N 
ATOM      4  H3  UNL     1       9.247   4.035  91.605  1.00  0.00     0.189 HD
BRANCH   3   5
HETATM    5  N2  UNL     1       7.172   4.309  91.872  1.00  0.00    -0.274 N 
ATOM      6  H2  UNL     1       6.465   4.642  91.216  1.00  0.00     0.189 HD
BRANCH   5   7
HETATM    7  C3  UNL     1       7.033   4.503  93.276  1.00  0.00     0.193 C 
HETATM    8  S1  UNL     1       7.507   6.005  93.840  1.00  0.00    -0.039 SA
BRANCH   7   9
HETATM    9  N1  UNL     1       6.556   3.549  94.204  1.00  0.00    -0.303 N 
HETATM   10  C2  UNL     1       6.049   2.268  93.961  1.00  0.00     0.219 C 
HETATM   11  C1  UNL     1       5.600   1.422  95.109  1.00  0.00     0.117 C 
HETATM   12  O1  UNL     1       5.952   1.788  92.829  1.00  0.00    -0.274 OA
ATOM     13  H1  UNL     1       6.586   3.833  95.183  1.00  0.00     0.171 HD
ENDBRANCH   7   9
ENDBRANCH   5   7
ENDBRANCH   3   5
ENDBRANCH   1   3
BRANCH   1  14
HETATM   14  N4  UNL     1       7.191   2.225  89.750  1.00  0.00    -0.272 N 
ATOM     15  H4  UNL     1       7.171   2.841  88.936  1.00  0.00     0.189 HD
BRANCH  14  16
HETATM   16  N5  UNL     1       6.233   1.223  89.868  1.00  0.00    -0.266 N 
HETATM   17  C5  UNL     1       6.074   0.270  88.815  1.00  0.00     0.261 C 
HETATM   18  O2  UNL     1       6.806   0.365  87.795  1.00  0.00    -0.270 OA
ATOM     19  H5  UNL     1       5.649   1.168  90.702  1.00  0.00     0.190 HD
BRANCH  17  20
HETATM   20  C6  UNL     1       5.063  -0.829  88.899  1.00  0.00     0.333 C 
BRANCH  20  21
HETATM   21  N6  UNL     1       4.228  -0.763  87.722  1.00  0.00    -0.071 N 
ATOM     22  H63 UNL     1       3.242  -0.627  87.945  1.00  0.00     0.274 HD
ATOM     23  H62 UNL     1       4.368   0.095  87.188  1.00  0.00     0.274 HD
ATOM     24  H61 UNL     1       4.393  -1.604  87.167  1.00  0.00     0.274 HD
ENDBRANCH  20  21
ENDBRANCH  17  20
ENDBRANCH  14  16
ENDBRANCH   1  14
TORSDOF 8
ENDMDL
MODEL 5
REMARK VINA RESULT: -6.381786157      3.634      5.624
REMARK  8 active torsions:
REMARK  status: ('A' for Active; 'I' for Inactive)
REMARK       I    between atoms: C2_2  and  N1_4 
REMARK    1  A    between atoms: N1_4  and  C3_6 
REMARK    2  A    between atoms: C3_6  and  N2_8 
REMARK    3  A    between atoms: N2_8  and  N3_10 
REMARK    4  A    between atoms: N3_10  and  C4_12 
REMARK    5  A    between atoms: C4_12  and  N4_14 
REMARK    6  A    between atoms: N4_14  and  N5_16 
REMARK       I    between atoms: N5_16  and  C5_18 
REMARK    7  A    between atoms: C5_18  and  C6_20 
REMARK    8  A    between atoms: C6_20  and  N6_21 
ROOT
HETATM    1  C4  UNL     1       8.463   4.230  91.881  1.00  0.00     0.205 C 
HETATM    2  S2  UNL     1       9.133   3.240  90.784  1.00  0.00    -0.038 SA
ENDROOT
BRANCH   1   3
HETATM    3  N3  UNL     1       9.269   5.130  92.620  1.00  0.00    -0.273 N 
ATOM      4  H3  UNL     1      10.140   4.811  93.043  1.00  0.00     0.189 HD
BRANCH   3   5
HETATM    5  N2  UNL     1       8.859   6.465  92.765  1.00  0.00    -0.274 N 
ATOM      6  H2  UNL     1       8.551   7.018  91.965  1.00  0.00     0.189 HD
BRANCH   5   7
HETATM    7  C3  UNL     1       8.892   7.014  94.080  1.00  0.00     0.193 C 
HETATM    8  S1  UNL     1       7.428   7.021  94.887  1.00  0.00    -0.039 SA
BRANCH   7   9
HETATM    9  N1  UNL     1      10.027   7.553  94.727  1.00  0.00    -0.303 N 
HETATM   10  C2  UNL     1      11.380   7.379  94.414  1.00  0.00     0.219 C 
HETATM   11  C1  UNL     1      12.423   8.054  95.245  1.00  0.00     0.117 C 
HETATM   12  O1  UNL     1      11.766   6.687  93.469  1.00  0.00    -0.274 OA
ATOM     13  H1  UNL     1       9.834   8.148  95.532  1.00  0.00     0.171 HD
ENDBRANCH   7   9
ENDBRANCH   5   7
ENDBRANCH   3   5
ENDBRANCH   1   3
BRANCH   1  14
HETATM   14  N4  UNL     1       7.060   4.164  92.083  1.00  0.00    -0.272 N 
ATOM     15  H4  UNL     1       6.432   4.400  91.314  1.00  0.00     0.189 HD
BRANCH  14  16
HETATM   16  N5  UNL     1       6.521   3.784  93.309  1.00  0.00    -0.266 N 
HETATM   17  C5  UNL     1       6.212   2.410  93.551  1.00  0.00     0.261 C 
HETATM   18  O2  UNL     1       6.431   1.570  92.639  1.00  0.00    -0.270 OA
ATOM     19  H5  UNL     1       6.349   4.484  94.032  1.00  0.00     0.190 HD
BRANCH  17  20
HETATM   20  C6  UNL     1       5.638   1.953  94.854  1.00  0.00     0.333 C 
BRANCH  20  21
HETATM   21  N6  UNL     1       5.857   2.994  95.831  1.00  0.00    -0.071 N 
ATOM     22  H63 UNL     1       6.784   2.948  96.255  1.00  0.00     0.274 HD
ATOM     23  H62 UNL     1       5.945   3.918  95.409  1.00  0.00     0.274 HD
ATOM     24  H61 UNL     1       5.107   2.945  96.521  1.00  0.00     0.274 HD
ENDBRANCH  20  21
ENDBRANCH  17  20
ENDBRANCH  14  16
ENDBRANCH   1  14
TORSDOF 8
ENDMDL
