MODEL 1
REMARK VINA RESULT: -7.934637921      0.000      0.000
REMARK  8 active torsions:
REMARK  status: ('A' for Active; 'I' for Inactive)
REMARK    1  A    between atoms: O1_2  and  N1_3 
REMARK    2  A    between atoms: N1_3  and  C2_5 
REMARK    3  A    between atoms: C4_10  and  C5_11 
REMARK    4  A    between atoms: N4_14  and  S1_16 
REMARK    5  A    between atoms: S1_16  and  C7_19 
REMARK    6  A    between atoms: C8_20  and  C9_21 
REMARK    7  A    between atoms: C9_21  and  N5_22 
REMARK    8  A    between atoms: N5_22  and  N6_24 
ROOT
HETATM    1  S1  UNL     1      34.325  20.400   4.339  1.00  0.00     0.268 S 
HETATM    2  O3  UNL     1      34.967  21.153   5.480  1.00  0.00    -0.200 OA
HETATM    3  O4  UNL     1      32.863  20.261   4.645  1.00  0.00    -0.200 OA
ENDROOT
BRANCH   1   4
HETATM    4  N4  UNL     1      34.590  21.100   2.843  1.00  0.00    -0.264 N 
HETATM    5  C6  UNL     1      33.942  21.214   1.779  1.00  0.00     0.147 A 
HETATM    6  C4  UNL     1      34.520  21.895   0.713  1.00  0.00     0.088 A 
HETATM    7  N10 UNL     1      32.675  20.728   1.508  1.00  0.00    -0.173 N 
HETATM    8  C3  UNL     1      33.915  22.079  -0.507  1.00  0.00     0.149 A 
HETATM    9  N2  UNL     1      32.692  21.578  -0.692  1.00  0.00    -0.176 N 
HETATM   10  N3  UNL     1      34.677  22.664  -1.580  1.00  0.00    -0.081 NA
HETATM   11  C2  UNL     1      32.095  20.916   0.316  1.00  0.00     0.705 A 
ATOM     12  H2  UNL     1      32.215  21.697  -1.586  1.00  0.00     0.185 HD
ATOM     13  H10 UNL     1      32.172  20.215   2.232  1.00  0.00     0.186 HD
ATOM     14  H4  UNL     1      35.507  21.545   2.784  1.00  0.00     0.180 HD
BRANCH   6  15
HETATM   15  C5  UNL     1      35.765  22.642   0.923  1.00  0.00     0.277 C 
HETATM   16  O2  UNL     1      36.002  23.451   1.740  1.00  0.00    -0.301 OA
ENDBRANCH   6  15
BRANCH  11  17
HETATM   17  N1  UNL     1      30.887  20.453   0.133  1.00  0.00    -0.097 N 
ATOM     18  H1  UNL     1      30.154  20.637   0.818  1.00  0.00     0.213 HD
BRANCH  17  19
HETATM   19  O1  UNL     1      30.620  19.724  -0.980  1.00  0.00    -0.272 OA
HETATM   20  C1  UNL     1      29.401  19.737  -1.681  1.00  0.00     0.238 C 
ENDBRANCH  17  19
ENDBRANCH  11  17
ENDBRANCH   1   4
BRANCH   1  21
HETATM   21  C7  UNL     1      35.036  18.787   4.390  1.00  0.00     0.136 A 
HETATM   22  C8  UNL     1      34.626  17.700   3.685  1.00  0.00     0.056 A 
HETATM   23  N7  UNL     1      35.396  16.659   4.062  1.00  0.00    -0.340 N 
HETATM   24  C10 UNL     1      36.277  17.101   4.975  1.00  0.00     0.158 A 
ATOM     25  H7  UNL     1      35.321  15.702   3.716  1.00  0.00     0.167 HD
HETATM   26  N8  UNL     1      37.330  16.718   5.766  1.00  0.00    -0.223 N 
HETATM   27  C11 UNL     1      36.105  18.440   5.223  1.00  0.00     0.127 A 
HETATM   28  O5  UNL     1      37.740  17.759   6.411  1.00  0.00    -0.155 OA
ATOM     29  H8  UNL     1      37.721  15.778   5.833  1.00  0.00     0.198 HD
HETATM   30  N9  UNL     1      37.027  18.801   6.107  1.00  0.00    -0.236 N 
ATOM     31  H9  UNL     1      37.153  19.740   6.485  1.00  0.00     0.197 HD
BRANCH  22  32
HETATM   32  C9  UNL     1      33.498  17.539   2.684  1.00  0.00     0.197 C 
BRANCH  32  33
HETATM   33  N5  UNL     1      32.334  17.478   3.521  1.00  0.00    -0.337 N 
ATOM     34  H5  UNL     1      32.319  18.104   4.326  1.00  0.00     0.179 HD
BRANCH  33  35
HETATM   35  N6  UNL     1      31.279  16.696   3.360  1.00  0.00    -0.349 N 
ATOM     36  H62 UNL     1      30.449  17.154   2.983  1.00  0.00     0.176 HD
ATOM     37  H61 UNL     1      31.216  15.700   3.572  1.00  0.00     0.176 HD
ENDBRANCH  33  35
ENDBRANCH  32  33
ENDBRANCH  22  32
ENDBRANCH   1  21
TORSDOF 8
ENDMDL
MODEL 2
REMARK VINA RESULT: -7.919469008      1.452      1.582
REMARK  8 active torsions:
REMARK  status: ('A' for Active; 'I' for Inactive)
REMARK    1  A    between atoms: O1_2  and  N1_3 
REMARK    2  A    between atoms: N1_3  and  C2_5 
REMARK    3  A    between atoms: C4_10  and  C5_11 
REMARK    4  A    between atoms: N4_14  and  S1_16 
REMARK    5  A    between atoms: S1_16  and  C7_19 
REMARK    6  A    between atoms: C8_20  and  C9_21 
REMARK    7  A    between atoms: C9_21  and  N5_22 
REMARK    8  A    between atoms: N5_22  and  N6_24 
ROOT
HETATM    1  S1  UNL     1      34.754  19.005   4.918  1.00  0.00     0.268 S 
HETATM    2  O3  UNL     1      35.338  19.240   6.291  1.00  0.00    -0.200 OA
HETATM    3  O4  UNL     1      33.274  18.810   5.076  1.00  0.00    -0.200 OA
ENDROOT
BRANCH   1   4
HETATM    4  N4  UNL     1      35.115  20.216   3.822  1.00  0.00    -0.264 N 
HETATM    5  C6  UNL     1      34.534  20.747   2.849  1.00  0.00     0.147 A 
HETATM    6  C4  UNL     1      35.181  21.766   2.158  1.00  0.00     0.088 A 
HETATM    7  N10 UNL     1      33.281  20.441   2.346  1.00  0.00    -0.173 N 
HETATM    8  C3  UNL     1      34.653  22.421   1.072  1.00  0.00     0.149 A 
HETATM    9  N2  UNL     1      33.439  22.067   0.645  1.00  0.00    -0.176 N 
HETATM   10  N3  UNL     1      35.483  23.347   0.348  1.00  0.00    -0.081 NA
HETATM   11  C2  UNL     1      32.777  21.088   1.288  1.00  0.00     0.705 A 
ATOM     12  H2  UNL     1      33.018  22.533  -0.160  1.00  0.00     0.185 HD
ATOM     13  H10 UNL     1      32.731  19.706   2.790  1.00  0.00     0.186 HD
ATOM     14  H4  UNL     1      36.037  20.621   3.986  1.00  0.00     0.180 HD
BRANCH   6  15
HETATM   15  C5  UNL     1      36.417  22.337   2.704  1.00  0.00     0.277 C 
HETATM   16  O2  UNL     1      36.684  22.564   3.825  1.00  0.00    -0.301 OA
ENDBRANCH   6  15
BRANCH  11  17
HETATM   17  N1  UNL     1      31.578  20.768   0.879  1.00  0.00    -0.097 N 
ATOM     18  H1  UNL     1      30.757  21.043   1.417  1.00  0.00     0.213 HD
BRANCH  17  19
HETATM   19  O1  UNL     1      31.440  20.064  -0.274  1.00  0.00    -0.272 OA
HETATM   20  C1  UNL     1      30.588  20.413  -1.336  1.00  0.00     0.238 C 
ENDBRANCH  17  19
ENDBRANCH  11  17
ENDBRANCH   1   4
BRANCH   1  21
HETATM   21  C7  UNL     1      35.438  17.471   4.380  1.00  0.00     0.136 A 
HETATM   22  C8  UNL     1      35.008  16.717   3.335  1.00  0.00     0.056 A 
HETATM   23  N7  UNL     1      35.761  15.599   3.305  1.00  0.00    -0.340 N 
HETATM   24  C10 UNL     1      36.653  15.671   4.308  1.00  0.00     0.158 A 
ATOM     25  H7  UNL     1      35.670  14.832   2.638  1.00  0.00     0.167 HD
HETATM   26  N8  UNL     1      37.703  15.014   4.898  1.00  0.00    -0.223 N 
HETATM   27  C11 UNL     1      36.504  16.833   5.022  1.00  0.00     0.127 A 
HETATM   28  O5  UNL     1      38.133  15.748   5.870  1.00  0.00    -0.155 OA
ATOM     29  H8  UNL     1      38.078  14.108   4.619  1.00  0.00     0.198 HD
HETATM   30  N9  UNL     1      37.435  16.839   5.968  1.00  0.00    -0.236 N 
ATOM     31  H9  UNL     1      37.579  17.578   6.657  1.00  0.00     0.197 HD
BRANCH  22  32
HETATM   32  C9  UNL     1      33.873  16.942   2.353  1.00  0.00     0.197 C 
BRANCH  32  33
HETATM   33  N5  UNL     1      32.740  16.397   3.043  1.00  0.00    -0.337 N 
ATOM     34  H5  UNL     1      32.825  15.434   3.368  1.00  0.00     0.179 HD
BRANCH  33  35
HETATM   35  N6  UNL     1      31.597  17.010   3.303  1.00  0.00    -0.349 N 
ATOM     36  H62 UNL     1      31.654  17.775   3.975  1.00  0.00     0.176 HD
ATOM     37  H61 UNL     1      30.682  16.796   2.905  1.00  0.00     0.176 HD
ENDBRANCH  33  35
ENDBRANCH  32  33
ENDBRANCH  22  32
ENDBRANCH   1  21
TORSDOF 8
ENDMDL
MODEL 3
REMARK VINA RESULT: -7.585900890      2.117      2.577
REMARK  8 active torsions:
REMARK  status: ('A' for Active; 'I' for Inactive)
REMARK    1  A    between atoms: O1_2  and  N1_3 
REMARK    2  A    between atoms: N1_3  and  C2_5 
REMARK    3  A    between atoms: C4_10  and  C5_11 
REMARK    4  A    between atoms: N4_14  and  S1_16 
REMARK    5  A    between atoms: S1_16  and  C7_19 
REMARK    6  A    between atoms: C8_20  and  C9_21 
REMARK    7  A    between atoms: C9_21  and  N5_22 
REMARK    8  A    between atoms: N5_22  and  N6_24 
ROOT
HETATM    1  S1  UNL     1      34.567  17.318   2.466  1.00  0.00     0.268 S 
HETATM    2  O3  UNL     1      33.147  17.001   2.870  1.00  0.00    -0.200 OA
HETATM    3  O4  UNL     1      34.997  16.293   1.457  1.00  0.00    -0.200 OA
ENDROOT
BRANCH   1   4
HETATM    4  N4  UNL     1      34.769  18.879   1.901  1.00  0.00    -0.264 N 
HETATM    5  C6  UNL     1      34.050  19.723   1.321  1.00  0.00     0.147 A 
HETATM    6  C4  UNL     1      34.595  20.963   1.004  1.00  0.00     0.088 A 
HETATM    7  N10 UNL     1      32.729  19.579   0.932  1.00  0.00    -0.173 N 
HETATM    8  C3  UNL     1      33.912  21.967   0.361  1.00  0.00     0.149 A 
HETATM    9  N2  UNL     1      32.640  21.751   0.017  1.00  0.00    -0.176 N 
HETATM   10  N3  UNL     1      34.631  23.144  -0.050  1.00  0.00    -0.081 NA
HETATM   11  C2  UNL     1      32.074  20.566   0.309  1.00  0.00     0.705 A 
ATOM     12  H2  UNL     1      32.105  22.475  -0.463  1.00  0.00     0.185 HD
ATOM     13  H10 UNL     1      32.245  18.702   1.124  1.00  0.00     0.186 HD
ATOM     14  H4  UNL     1      35.711  19.232   2.073  1.00  0.00     0.180 HD
BRANCH   6  15
HETATM   15  C5  UNL     1      35.910  21.332   1.540  1.00  0.00     0.277 C 
HETATM   16  O2  UNL     1      36.230  21.465   2.661  1.00  0.00    -0.301 OA
ENDBRANCH   6  15
BRANCH  11  17
HETATM   17  N1  UNL     1      30.821  20.375  -0.010  1.00  0.00    -0.097 N 
ATOM     18  H1  UNL     1      30.076  20.741   0.582  1.00  0.00     0.213 HD
BRANCH  17  19
HETATM   19  O1  UNL     1      30.524  19.682  -1.139  1.00  0.00    -0.272 OA
HETATM   20  C1  UNL     1      29.253  19.619  -1.737  1.00  0.00     0.238 C 
ENDBRANCH  17  19
ENDBRANCH  11  17
ENDBRANCH   1   4
BRANCH   1  21
HETATM   21  C7  UNL     1      35.529  17.068   3.923  1.00  0.00     0.136 A 
HETATM   22  C8  UNL     1      35.574  17.881   5.011  1.00  0.00     0.056 A 
HETATM   23  N7  UNL     1      36.477  17.361   5.868  1.00  0.00    -0.340 N 
HETATM   24  C10 UNL     1      36.969  16.235   5.322  1.00  0.00     0.158 A 
ATOM     25  H7  UNL     1      36.740  17.753   6.772  1.00  0.00     0.167 HD
HETATM   26  N8  UNL     1      37.832  15.192   5.539  1.00  0.00    -0.223 N 
HETATM   27  C11 UNL     1      36.407  15.993   4.094  1.00  0.00     0.127 A 
HETATM   28  O5  UNL     1      37.764  14.403   4.519  1.00  0.00    -0.155 OA
ATOM     29  H8  UNL     1      38.424  15.062   6.360  1.00  0.00     0.198 HD
HETATM   30  N9  UNL     1      36.922  14.856   3.640  1.00  0.00    -0.236 N 
ATOM     31  H9  UNL     1      36.694  14.413   2.750  1.00  0.00     0.197 HD
BRANCH  22  32
HETATM   32  C9  UNL     1      34.850  19.181   5.305  1.00  0.00     0.197 C 
BRANCH  32  33
HETATM   33  N5  UNL     1      33.494  18.755   5.497  1.00  0.00    -0.337 N 
ATOM     34  H5  UNL     1      33.326  18.100   6.261  1.00  0.00     0.179 HD
BRANCH  33  35
HETATM   35  N6  UNL     1      32.437  19.122   4.790  1.00  0.00    -0.349 N 
ATOM     36  H62 UNL     1      32.062  18.411   4.164  1.00  0.00     0.176 HD
ATOM     37  H61 UNL     1      31.971  20.030   4.811  1.00  0.00     0.176 HD
ENDBRANCH  33  35
ENDBRANCH  32  33
ENDBRANCH  22  32
ENDBRANCH   1  21
TORSDOF 8
ENDMDL
MODEL 4
REMARK VINA RESULT: -7.401226708      1.347      3.418
REMARK  8 active torsions:
REMARK  status: ('A' for Active; 'I' for Inactive)
REMARK    1  A    between atoms: O1_2  and  N1_3 
REMARK    2  A    between atoms: N1_3  and  C2_5 
REMARK    3  A    between atoms: C4_10  and  C5_11 
REMARK    4  A    between atoms: N4_14  and  S1_16 
REMARK    5  A    between atoms: S1_16  and  C7_19 
REMARK    6  A    between atoms: C8_20  and  C9_21 
REMARK    7  A    between atoms: C9_21  and  N5_22 
REMARK    8  A    between atoms: N5_22  and  N6_24 
ROOT
HETATM    1  S1  UNL     1      33.936  19.627   4.562  1.00  0.00     0.268 S 
HETATM    2  O3  UNL     1      34.673  20.674   5.364  1.00  0.00    -0.200 OA
HETATM    3  O4  UNL     1      32.715  19.230   5.338  1.00  0.00    -0.200 OA
ENDROOT
BRANCH   1   4
HETATM    4  N4  UNL     1      33.562  20.118   3.007  1.00  0.00    -0.264 N 
HETATM    5  C6  UNL     1      34.045  20.925   2.181  1.00  0.00     0.147 A 
HETATM    6  C4  UNL     1      33.431  21.060   0.941  1.00  0.00     0.088 A 
HETATM    7  N10 UNL     1      35.153  21.738   2.346  1.00  0.00    -0.173 N 
HETATM    8  C3  UNL     1      33.859  21.916  -0.046  1.00  0.00     0.149 A 
HETATM    9  N2  UNL     1      34.936  22.669   0.190  1.00  0.00    -0.176 N 
HETATM   10  N3  UNL     1      33.049  22.079  -1.224  1.00  0.00    -0.081 NA
HETATM   11  C2  UNL     1      35.562  22.566   1.376  1.00  0.00     0.705 A 
ATOM     12  H2  UNL     1      35.279  23.316  -0.520  1.00  0.00     0.185 HD
ATOM     13  H10 UNL     1      35.669  21.706   3.226  1.00  0.00     0.186 HD
ATOM     14  H4  UNL     1      32.737  19.643   2.642  1.00  0.00     0.180 HD
BRANCH   6  15
HETATM   15  C5  UNL     1      32.379  20.115   0.548  1.00  0.00     0.277 C 
HETATM   16  O2  UNL     1      32.393  18.943   0.605  1.00  0.00    -0.301 OA
ENDBRANCH   6  15
BRANCH  11  17
HETATM   17  N1  UNL     1      36.630  23.288   1.587  1.00  0.00    -0.097 N 
ATOM     18  H1  UNL     1      37.320  23.001   2.280  1.00  0.00     0.213 HD
BRANCH  17  19
HETATM   19  O1  UNL     1      36.809  24.427   0.870  1.00  0.00    -0.272 OA
HETATM   20  C1  UNL     1      37.970  25.220   0.891  1.00  0.00     0.238 C 
ENDBRANCH  17  19
ENDBRANCH  11  17
ENDBRANCH   1   4
BRANCH   1  21
HETATM   21  C7  UNL     1      35.016  18.233   4.517  1.00  0.00     0.136 A 
HETATM   22  C8  UNL     1      34.965  17.200   3.636  1.00  0.00     0.056 A 
HETATM   23  N7  UNL     1      35.924  16.319   3.988  1.00  0.00    -0.340 N 
HETATM   24  C10 UNL     1      36.567  16.811   5.061  1.00  0.00     0.158 A 
ATOM     25  H7  UNL     1      36.126  15.435   3.522  1.00  0.00     0.167 HD
HETATM   26  N8  UNL     1      37.593  16.567   5.938  1.00  0.00    -0.223 N 
HETATM   27  C11 UNL     1      36.043  18.021   5.442  1.00  0.00     0.127 A 
HETATM   28  O5  UNL     1      37.661  17.565   6.755  1.00  0.00    -0.155 OA
ATOM     29  H8  UNL     1      38.194  15.743   5.945  1.00  0.00     0.198 HD
HETATM   30  N9  UNL     1      36.748  18.448   6.483  1.00  0.00    -0.236 N 
ATOM     31  H9  UNL     1      36.597  19.323   6.985  1.00  0.00     0.197 HD
BRANCH  22  32
HETATM   32  C9  UNL     1      34.024  16.935   2.476  1.00  0.00     0.197 C 
BRANCH  32  33
HETATM   33  N5  UNL     1      32.845  16.440   3.127  1.00  0.00    -0.337 N 
ATOM     34  H5  UNL     1      32.912  15.514   3.548  1.00  0.00     0.179 HD
BRANCH  33  35
HETATM   35  N6  UNL     1      31.680  17.058   3.239  1.00  0.00    -0.349 N 
ATOM     36  H62 UNL     1      31.633  17.984   2.813  1.00  0.00     0.176 HD
ATOM     37  H61 UNL     1      30.842  16.706   3.701  1.00  0.00     0.176 HD
ENDBRANCH  33  35
ENDBRANCH  32  33
ENDBRANCH  22  32
ENDBRANCH   1  21
TORSDOF 8
ENDMDL
MODEL 5
REMARK VINA RESULT: -7.350564105      1.645      3.281
REMARK  8 active torsions:
REMARK  status: ('A' for Active; 'I' for Inactive)
REMARK    1  A    between atoms: O1_2  and  N1_3 
REMARK    2  A    between atoms: N1_3  and  C2_5 
REMARK    3  A    between atoms: C4_10  and  C5_11 
REMARK    4  A    between atoms: N4_14  and  S1_16 
REMARK    5  A    between atoms: S1_16  and  C7_19 
REMARK    6  A    between atoms: C8_20  and  C9_21 
REMARK    7  A    between atoms: C9_21  and  N5_22 
REMARK    8  A    between atoms: N5_22  and  N6_24 
ROOT
HETATM    1  S1  UNL     1      34.168  19.028   4.477  1.00  0.00     0.268 S 
HETATM    2  O3  UNL     1      35.102  18.851   5.651  1.00  0.00    -0.200 OA
HETATM    3  O4  UNL     1      32.783  19.230   5.017  1.00  0.00    -0.200 OA
ENDROOT
BRANCH   1   4
HETATM    4  N4  UNL     1      34.624  20.260   3.441  1.00  0.00    -0.264 N 
HETATM    5  C6  UNL     1      34.120  20.827   2.446  1.00  0.00     0.147 A 
HETATM    6  C4  UNL     1      34.831  21.851   1.828  1.00  0.00     0.088 A 
HETATM    7  N10 UNL     1      32.900  20.557   1.850  1.00  0.00    -0.173 N 
HETATM    8  C3  UNL     1      34.389  22.544   0.727  1.00  0.00     0.149 A 
HETATM    9  N2  UNL     1      33.201  22.223   0.208  1.00  0.00    -0.176 N 
HETATM   10  N3  UNL     1      35.283  23.473   0.086  1.00  0.00    -0.081 NA
HETATM   11  C2  UNL     1      32.480  21.241   0.779  1.00  0.00     0.705 A 
ATOM     12  H2  UNL     1      32.845  22.718  -0.610  1.00  0.00     0.185 HD
ATOM     13  H10 UNL     1      32.308  19.821   2.236  1.00  0.00     0.186 HD
ATOM     14  H4  UNL     1      35.540  20.643   3.678  1.00  0.00     0.180 HD
BRANCH   6  15
HETATM   15  C5  UNL     1      36.036  22.385   2.472  1.00  0.00     0.277 C 
HETATM   16  O2  UNL     1      37.038  21.828   2.721  1.00  0.00    -0.301 OA
ENDBRANCH   6  15
BRANCH  11  17
HETATM   17  N1  UNL     1      31.307  20.954   0.279  1.00  0.00    -0.097 N 
ATOM     18  H1  UNL     1      30.456  21.234   0.766  1.00  0.00     0.213 HD
BRANCH  17  19
HETATM   19  O1  UNL     1      31.237  20.276  -0.895  1.00  0.00    -0.272 OA
HETATM   20  C1  UNL     1      30.459  20.657  -2.002  1.00  0.00     0.238 C 
ENDBRANCH  17  19
ENDBRANCH  11  17
ENDBRANCH   1   4
BRANCH   1  21
HETATM   21  C7  UNL     1      34.190  17.481   3.630  1.00  0.00     0.136 A 
HETATM   22  C8  UNL     1      35.257  16.652   3.491  1.00  0.00     0.056 A 
HETATM   23  N7  UNL     1      34.865  15.612   2.725  1.00  0.00    -0.340 N 
HETATM   24  C10 UNL     1      33.570  15.791   2.412  1.00  0.00     0.158 A 
ATOM     25  H7  UNL     1      35.449  14.827   2.435  1.00  0.00     0.167 HD
HETATM   26  N8  UNL     1      32.509  15.229   1.749  1.00  0.00    -0.223 N 
HETATM   27  C11 UNL     1      33.084  16.953   2.958  1.00  0.00     0.127 A 
HETATM   28  O5  UNL     1      31.487  16.002   1.911  1.00  0.00    -0.155 OA
ATOM     29  H8  UNL     1      32.524  14.356   1.222  1.00  0.00     0.198 HD
HETATM   30  N9  UNL     1      31.801  17.039   2.627  1.00  0.00    -0.236 N 
ATOM     31  H9  UNL     1      31.168  17.794   2.892  1.00  0.00     0.197 HD
BRANCH  22  32
HETATM   32  C9  UNL     1      36.683  16.780   3.992  1.00  0.00     0.197 C 
BRANCH  32  33
HETATM   33  N5  UNL     1      36.630  16.142   5.275  1.00  0.00    -0.337 N 
ATOM     34  H5  UNL     1      36.434  16.743   6.076  1.00  0.00     0.179 HD
BRANCH  33  35
HETATM   35  N6  UNL     1      36.807  14.856   5.532  1.00  0.00    -0.349 N 
ATOM     36  H62 UNL     1      35.979  14.356   5.856  1.00  0.00     0.176 HD
ATOM     37  H61 UNL     1      37.674  14.327   5.439  1.00  0.00     0.176 HD
ENDBRANCH  33  35
ENDBRANCH  32  33
ENDBRANCH  22  32
ENDBRANCH   1  21
TORSDOF 8
ENDMDL
