MODEL 1
REMARK VINA RESULT: -6.718144964      0.000      0.000
REMARK  15 active torsions:
REMARK  status: ('A' for Active; 'I' for Inactive)
REMARK    1  A    between atoms: C2_2  and  O1_3 
REMARK    2  A    between atoms: C2_2  and  C3_5 
REMARK    3  A    between atoms: C3_5  and  O2_6 
REMARK    4  A    between atoms: O2_6  and  C4_7 
REMARK    5  A    between atoms: C7_10  and  C8_11 
REMARK    6  A    between atoms: C9_12  and  C10_13 
REMARK    7  A    between atoms: C10_13  and  O3_14 
REMARK    8  A    between atoms: O3_14  and  C11_15 
REMARK    9  A    between atoms: C12_17  and  C13_18 
REMARK   10  A    between atoms: C13_18  and  O5_19 
REMARK   11  A    between atoms: C14_21  and  O6_22 
REMARK   12  A    between atoms: C15_24  and  O7_25 
REMARK   13  A    between atoms: C16_27  and  O8_28 
REMARK   14  A    between atoms: O8_28  and  C17_29 
REMARK   15  A    between atoms: C17_29  and  C18_30 
ROOT
HETATM    1  C11 UNL     1      47.869  33.047  36.874  1.00  0.00     0.292 C 
HETATM    2  O4  UNL     1      47.440  34.074  36.080  1.00  0.00    -0.348 OA
HETATM    3  C12 UNL     1      46.145  34.477  36.197  1.00  0.00     0.179 C 
HETATM    4  C14 UNL     1      45.376  33.974  37.365  1.00  0.00     0.180 C 
HETATM    5  C15 UNL     1      46.153  33.676  38.593  1.00  0.00     0.183 C 
HETATM    6  C16 UNL     1      47.586  33.291  38.349  1.00  0.00     0.208 C 
ENDROOT
BRANCH   1   7
HETATM    7  O3  UNL     1      47.294  31.875  36.517  1.00  0.00    -0.355 OA
BRANCH   7   8
HETATM    8  C10 UNL     1      48.060  30.812  36.221  1.00  0.00     0.198 C 
BRANCH   8   9
HETATM    9  C9  UNL     1      49.516  31.017  36.154  1.00  0.00     0.000 C 
HETATM   10  C8  UNL     1      50.048  31.833  35.295  1.00  0.00     0.011 C 
BRANCH  10  11
HETATM   11  C7  UNL     1      51.448  32.134  35.113  1.00  0.00    -0.021 A 
HETATM   12  C6  UNL     1      52.415  31.662  35.968  1.00  0.00     0.017 A 
HETATM   13  C5  UNL     1      53.763  31.968  35.773  1.00  0.00     0.057 A 
HETATM   14  C4  UNL     1      54.174  32.751  34.720  1.00  0.00     0.143 A 
HETATM   15  N1  UNL     1      53.179  33.207  33.884  1.00  0.00    -0.341 N 
HETATM   16  C24 UNL     1      51.885  32.913  34.071  1.00  0.00     0.104 A 
HETATM   17  C25 UNL     1      53.556  34.037  32.755  1.00  0.00     0.158 C 
BRANCH  14  18
HETATM   18  O2  UNL     1      55.467  33.101  34.445  1.00  0.00    -0.333 OA
BRANCH  18  19
HETATM   19  C3  UNL     1      56.335  33.958  35.086  1.00  0.00     0.208 C 
BRANCH  19  20
HETATM   20  C2  UNL     1      55.758  35.311  35.412  1.00  0.00     0.138 C 
HETATM   21  C1  UNL     1      56.383  35.785  36.740  1.00  0.00     0.041 C 
BRANCH  20  22
HETATM   22  O1  UNL     1      56.163  36.226  34.420  1.00  0.00    -0.394 OA
ATOM     23  H1  UNL     1      55.964  35.828  33.580  1.00  0.00     0.210 HD
ENDBRANCH  20  22
ENDBRANCH  19  20
ENDBRANCH  18  19
ENDBRANCH  14  18
ENDBRANCH  10  11
ENDBRANCH   8   9
ENDBRANCH   7   8
ENDBRANCH   1   7
BRANCH   6  24
HETATM   24  O8  UNL     1      48.482  34.197  38.909  1.00  0.00    -0.374 OA
BRANCH  24  25
HETATM   25  C17 UNL     1      49.479  33.629  39.655  1.00  0.00     0.207 C 
BRANCH  25  26
HETATM   26  C18 UNL     1      50.779  34.004  39.011  1.00  0.00    -0.035 A 
HETATM   27  C19 UNL     1      50.832  34.761  37.853  1.00  0.00     0.009 A 
HETATM   28  C20 UNL     1      52.025  35.110  37.257  1.00  0.00     0.001 A 
HETATM   29  C21 UNL     1      53.211  34.692  37.832  1.00  0.00     0.000 A 
HETATM   30  C22 UNL     1      53.183  33.939  38.985  1.00  0.00     0.001 A 
HETATM   31  C23 UNL     1      51.976  33.608  39.554  1.00  0.00     0.009 A 
ENDBRANCH  25  26
ENDBRANCH  24  25
ENDBRANCH   6  24
BRANCH   3  32
HETATM   32  C13 UNL     1      45.369  34.310  34.884  1.00  0.00     0.198 C 
BRANCH  32  33
HETATM   33  O5  UNL     1      45.528  33.051  34.351  1.00  0.00    -0.398 OA
ATOM     34  H5  UNL     1      44.709  32.570  34.326  1.00  0.00     0.209 HD
ENDBRANCH  32  33
ENDBRANCH   3  32
BRANCH   5  35
HETATM   35  O7  UNL     1      45.487  32.701  39.364  1.00  0.00    -0.390 OA
ATOM     36  H7  UNL     1      45.797  32.726  40.262  1.00  0.00     0.210 HD
ENDBRANCH   5  35
BRANCH   4  37
HETATM   37  O6  UNL     1      44.619  32.864  36.921  1.00  0.00    -0.390 OA
ATOM     38  H6  UNL     1      44.829  32.135  37.491  1.00  0.00     0.210 HD
ENDBRANCH   4  37
TORSDOF 15
ENDMDL
MODEL 2
REMARK VINA RESULT: -6.641357202      1.886      3.301
REMARK  15 active torsions:
REMARK  status: ('A' for Active; 'I' for Inactive)
REMARK    1  A    between atoms: C2_2  and  O1_3 
REMARK    2  A    between atoms: C2_2  and  C3_5 
REMARK    3  A    between atoms: C3_5  and  O2_6 
REMARK    4  A    between atoms: O2_6  and  C4_7 
REMARK    5  A    between atoms: C7_10  and  C8_11 
REMARK    6  A    between atoms: C9_12  and  C10_13 
REMARK    7  A    between atoms: C10_13  and  O3_14 
REMARK    8  A    between atoms: O3_14  and  C11_15 
REMARK    9  A    between atoms: C12_17  and  C13_18 
REMARK   10  A    between atoms: C13_18  and  O5_19 
REMARK   11  A    between atoms: C14_21  and  O6_22 
REMARK   12  A    between atoms: C15_24  and  O7_25 
REMARK   13  A    between atoms: C16_27  and  O8_28 
REMARK   14  A    between atoms: O8_28  and  C17_29 
REMARK   15  A    between atoms: C17_29  and  C18_30 
ROOT
HETATM    1  C11 UNL     1      48.295  34.141  37.903  1.00  0.00     0.292 C 
HETATM    2  O4  UNL     1      47.517  33.343  37.110  1.00  0.00    -0.348 OA
HETATM    3  C12 UNL     1      46.166  33.495  37.178  1.00  0.00     0.179 C 
HETATM    4  C14 UNL     1      45.647  34.696  37.884  1.00  0.00     0.180 C 
HETATM    5  C15 UNL     1      46.509  35.903  37.861  1.00  0.00     0.183 C 
HETATM    6  C16 UNL     1      47.980  35.620  37.731  1.00  0.00     0.208 C 
ENDROOT
BRANCH   1   7
HETATM    7  O3  UNL     1      48.154  33.823  39.211  1.00  0.00    -0.355 OA
BRANCH   7   8
HETATM    8  C10 UNL     1      49.166  33.240  39.874  1.00  0.00     0.198 C 
BRANCH   8   9
HETATM    9  C9  UNL     1      50.399  32.951  39.123  1.00  0.00     0.000 C 
HETATM   10  C8  UNL     1      51.191  33.901  38.727  1.00  0.00     0.011 C 
BRANCH  10  11
HETATM   11  C7  UNL     1      52.423  33.772  37.988  1.00  0.00    -0.021 A 
HETATM   12  C6  UNL     1      53.575  34.423  38.365  1.00  0.00     0.017 A 
HETATM   13  C5  UNL     1      54.755  34.285  37.632  1.00  0.00     0.057 A 
HETATM   14  C4  UNL     1      54.812  33.495  36.509  1.00  0.00     0.143 A 
HETATM   15  N1  UNL     1      53.641  32.860  36.159  1.00  0.00    -0.341 N 
HETATM   16  C24 UNL     1      52.508  32.991  36.863  1.00  0.00     0.104 A 
HETATM   17  C25 UNL     1      53.644  32.012  34.982  1.00  0.00     0.158 C 
BRANCH  14  18
HETATM   18  O2  UNL     1      55.919  33.296  35.731  1.00  0.00    -0.333 OA
BRANCH  18  19
HETATM   19  C3  UNL     1      56.648  34.161  34.945  1.00  0.00     0.208 C 
BRANCH  19  20
HETATM   20  C2  UNL     1      56.929  33.663  33.551  1.00  0.00     0.138 C 
HETATM   21  C1  UNL     1      55.793  34.158  32.633  1.00  0.00     0.041 C 
BRANCH  20  22
HETATM   22  O1  UNL     1      58.118  34.259  33.088  1.00  0.00    -0.394 OA
ATOM     23  H1  UNL     1      58.763  34.161  33.780  1.00  0.00     0.210 HD
ENDBRANCH  20  22
ENDBRANCH  19  20
ENDBRANCH  18  19
ENDBRANCH  14  18
ENDBRANCH  10  11
ENDBRANCH   8   9
ENDBRANCH   7   8
ENDBRANCH   1   7
BRANCH   6  24
HETATM   24  O8  UNL     1      48.519  36.134  36.555  1.00  0.00    -0.374 OA
BRANCH  24  25
HETATM   25  C17 UNL     1      49.678  36.844  36.720  1.00  0.00     0.207 C 
BRANCH  25  26
HETATM   26  C18 UNL     1      50.670  36.301  35.737  1.00  0.00    -0.035 A 
HETATM   27  C19 UNL     1      51.980  36.746  35.696  1.00  0.00     0.009 A 
HETATM   28  C20 UNL     1      52.898  36.249  34.794  1.00  0.00     0.001 A 
HETATM   29  C21 UNL     1      52.499  35.275  33.899  1.00  0.00     0.000 A 
HETATM   30  C22 UNL     1      51.200  34.815  33.922  1.00  0.00     0.001 A 
HETATM   31  C23 UNL     1      50.310  35.332  34.834  1.00  0.00     0.009 A 
ENDBRANCH  25  26
ENDBRANCH  24  25
ENDBRANCH   6  24
BRANCH   3  32
HETATM   32  C13 UNL     1      45.464  32.210  37.640  1.00  0.00     0.198 C 
BRANCH  32  33
HETATM   33  O5  UNL     1      44.095  32.346  37.641  1.00  0.00    -0.398 OA
ATOM     34  H5  UNL     1      43.737  32.340  36.761  1.00  0.00     0.209 HD
ENDBRANCH  32  33
ENDBRANCH   3  32
BRANCH   5  35
HETATM   35  O7  UNL     1      46.242  36.712  38.984  1.00  0.00    -0.390 OA
ATOM     36  H7  UNL     1      46.136  37.618  38.717  1.00  0.00     0.210 HD
ENDBRANCH   5  35
BRANCH   4  37
HETATM   37  O6  UNL     1      45.313  34.295  39.199  1.00  0.00    -0.390 OA
ATOM     38  H6  UNL     1      45.096  33.371  39.165  1.00  0.00     0.210 HD
ENDBRANCH   4  37
TORSDOF 15
ENDMDL
MODEL 3
REMARK VINA RESULT: -6.476213779      0.892      1.474
REMARK  15 active torsions:
REMARK  status: ('A' for Active; 'I' for Inactive)
REMARK    1  A    between atoms: C2_2  and  O1_3 
REMARK    2  A    between atoms: C2_2  and  C3_5 
REMARK    3  A    between atoms: C3_5  and  O2_6 
REMARK    4  A    between atoms: O2_6  and  C4_7 
REMARK    5  A    between atoms: C7_10  and  C8_11 
REMARK    6  A    between atoms: C9_12  and  C10_13 
REMARK    7  A    between atoms: C10_13  and  O3_14 
REMARK    8  A    between atoms: O3_14  and  C11_15 
REMARK    9  A    between atoms: C12_17  and  C13_18 
REMARK   10  A    between atoms: C13_18  and  O5_19 
REMARK   11  A    between atoms: C14_21  and  O6_22 
REMARK   12  A    between atoms: C15_24  and  O7_25 
REMARK   13  A    between atoms: C16_27  and  O8_28 
REMARK   14  A    between atoms: O8_28  and  C17_29 
REMARK   15  A    between atoms: C17_29  and  C18_30 
ROOT
HETATM    1  C11 UNL     1      47.933  33.015  36.877  1.00  0.00     0.292 C 
HETATM    2  O4  UNL     1      47.477  34.037  36.090  1.00  0.00    -0.348 OA
HETATM    3  C12 UNL     1      46.190  34.448  36.257  1.00  0.00     0.179 C 
HETATM    4  C14 UNL     1      45.467  33.961  37.461  1.00  0.00     0.180 C 
HETATM    5  C15 UNL     1      46.293  33.670  38.658  1.00  0.00     0.183 C 
HETATM    6  C16 UNL     1      47.712  33.276  38.359  1.00  0.00     0.208 C 
ENDROOT
BRANCH   1   7
HETATM    7  O3  UNL     1      47.338  31.843  36.555  1.00  0.00    -0.355 OA
BRANCH   7   8
HETATM    8  C10 UNL     1      48.086  30.760  36.286  1.00  0.00     0.198 C 
BRANCH   8   9
HETATM    9  C9  UNL     1      49.532  30.959  36.094  1.00  0.00     0.000 C 
HETATM   10  C8  UNL     1      49.995  31.663  35.106  1.00  0.00     0.011 C 
BRANCH  10  11
HETATM   11  C7  UNL     1      51.376  31.942  34.792  1.00  0.00    -0.021 A 
HETATM   12  C6  UNL     1      52.386  31.756  35.705  1.00  0.00     0.017 A 
HETATM   13  C5  UNL     1      53.715  32.036  35.380  1.00  0.00     0.057 A 
HETATM   14  C4  UNL     1      54.063  32.506  34.136  1.00  0.00     0.143 A 
HETATM   15  N1  UNL     1      53.026  32.682  33.246  1.00  0.00    -0.341 N 
HETATM   16  C24 UNL     1      51.750  32.413  33.559  1.00  0.00     0.104 A 
HETATM   17  C25 UNL     1      53.336  33.175  31.918  1.00  0.00     0.158 C 
BRANCH  14  18
HETATM   18  O2  UNL     1      55.332  32.804  33.724  1.00  0.00    -0.333 OA
BRANCH  18  19
HETATM   19  C3  UNL     1      56.204  33.800  34.106  1.00  0.00     0.208 C 
BRANCH  19  20
HETATM   20  C2  UNL     1      57.416  33.949  33.225  1.00  0.00     0.138 C 
HETATM   21  C1  UNL     1      57.268  32.968  32.045  1.00  0.00     0.041 C 
BRANCH  20  22
HETATM   22  O1  UNL     1      57.422  35.248  32.678  1.00  0.00    -0.394 OA
ATOM     23  H1  UNL     1      56.824  35.769  33.201  1.00  0.00     0.210 HD
ENDBRANCH  20  22
ENDBRANCH  19  20
ENDBRANCH  18  19
ENDBRANCH  14  18
ENDBRANCH  10  11
ENDBRANCH   8   9
ENDBRANCH   7   8
ENDBRANCH   1   7
BRANCH   6  24
HETATM   24  O8  UNL     1      48.636  34.182  38.872  1.00  0.00    -0.374 OA
BRANCH  24  25
HETATM   25  C17 UNL     1      49.657  33.616  39.586  1.00  0.00     0.207 C 
BRANCH  25  26
HETATM   26  C18 UNL     1      50.936  34.008  38.911  1.00  0.00    -0.035 A 
HETATM   27  C19 UNL     1      52.171  33.603  39.388  1.00  0.00     0.009 A 
HETATM   28  C20 UNL     1      53.351  33.960  38.770  1.00  0.00     0.001 A 
HETATM   29  C21 UNL     1      53.303  34.748  37.636  1.00  0.00     0.000 A 
HETATM   30  C22 UNL     1      52.085  35.163  37.142  1.00  0.00     0.001 A 
HETATM   31  C23 UNL     1      50.927  34.789  37.782  1.00  0.00     0.009 A 
ENDBRANCH  25  26
ENDBRANCH  24  25
ENDBRANCH   6  24
BRANCH   3  32
HETATM   32  C13 UNL     1      45.359  34.272  34.978  1.00  0.00     0.198 C 
BRANCH  32  33
HETATM   33  O5  UNL     1      45.494  33.009  34.449  1.00  0.00    -0.398 OA
ATOM     34  H5  UNL     1      46.253  32.557  34.799  1.00  0.00     0.209 HD
ENDBRANCH  32  33
ENDBRANCH   3  32
BRANCH   5  35
HETATM   35  O7  UNL     1      45.654  32.706  39.466  1.00  0.00    -0.390 OA
ATOM     36  H7  UNL     1      46.285  32.295  40.045  1.00  0.00     0.210 HD
ENDBRANCH   5  35
BRANCH   4  37
HETATM   37  O6  UNL     1      44.687  32.850  37.059  1.00  0.00    -0.390 OA
ATOM     38  H6  UNL     1      43.812  32.982  37.404  1.00  0.00     0.210 HD
ENDBRANCH   4  37
TORSDOF 15
ENDMDL
MODEL 4
REMARK VINA RESULT: -6.314487416      1.878      3.483
REMARK  15 active torsions:
REMARK  status: ('A' for Active; 'I' for Inactive)
REMARK    1  A    between atoms: C2_2  and  O1_3 
REMARK    2  A    between atoms: C2_2  and  C3_5 
REMARK    3  A    between atoms: C3_5  and  O2_6 
REMARK    4  A    between atoms: O2_6  and  C4_7 
REMARK    5  A    between atoms: C7_10  and  C8_11 
REMARK    6  A    between atoms: C9_12  and  C10_13 
REMARK    7  A    between atoms: C10_13  and  O3_14 
REMARK    8  A    between atoms: O3_14  and  C11_15 
REMARK    9  A    between atoms: C12_17  and  C13_18 
REMARK   10  A    between atoms: C13_18  and  O5_19 
REMARK   11  A    between atoms: C14_21  and  O6_22 
REMARK   12  A    between atoms: C15_24  and  O7_25 
REMARK   13  A    between atoms: C16_27  and  O8_28 
REMARK   14  A    between atoms: O8_28  and  C17_29 
REMARK   15  A    between atoms: C17_29  and  C18_30 
ROOT
HETATM    1  C11 UNL     1      48.258  34.231  37.490  1.00  0.00     0.292 C 
HETATM    2  O4  UNL     1      47.368  33.395  36.872  1.00  0.00    -0.348 OA
HETATM    3  C12 UNL     1      46.047  33.536  37.166  1.00  0.00     0.179 C 
HETATM    4  C14 UNL     1      45.637  34.758  37.905  1.00  0.00     0.180 C 
HETATM    5  C15 UNL     1      46.462  35.972  37.691  1.00  0.00     0.183 C 
HETATM    6  C16 UNL     1      47.894  35.698  37.321  1.00  0.00     0.208 C 
ENDROOT
BRANCH   1   7
HETATM    7  O3  UNL     1      48.348  33.962  38.813  1.00  0.00    -0.355 OA
BRANCH   7   8
HETATM    8  C10 UNL     1      49.552  33.892  39.404  1.00  0.00     0.198 C 
BRANCH   8   9
HETATM    9  C9  UNL     1      50.737  34.167  38.576  1.00  0.00     0.000 C 
HETATM   10  C8  UNL     1      51.686  33.291  38.437  1.00  0.00     0.011 C 
BRANCH  10  11
HETATM   11  C7  UNL     1      52.899  33.418  37.665  1.00  0.00    -0.021 A 
HETATM   12  C6  UNL     1      53.250  32.505  36.698  1.00  0.00     0.017 A 
HETATM   13  C5  UNL     1      54.429  32.647  35.965  1.00  0.00     0.057 A 
HETATM   14  C4  UNL     1      55.282  33.703  36.179  1.00  0.00     0.143 A 
HETATM   15  N1  UNL     1      54.901  34.598  37.155  1.00  0.00    -0.341 N 
HETATM   16  C24 UNL     1      53.768  34.462  37.859  1.00  0.00     0.104 A 
HETATM   17  C25 UNL     1      55.764  35.733  37.423  1.00  0.00     0.158 C 
BRANCH  14  18
HETATM   18  O2  UNL     1      56.454  33.929  35.511  1.00  0.00    -0.333 OA
BRANCH  18  19
HETATM   19  C3  UNL     1      56.834  33.645  34.218  1.00  0.00     0.208 C 
BRANCH  19  20
HETATM   20  C2  UNL     1      56.616  34.767  33.236  1.00  0.00     0.138 C 
HETATM   21  C1  UNL     1      55.472  34.353  32.290  1.00  0.00     0.041 C 
BRANCH  20  22
HETATM   22  O1  UNL     1      56.174  35.905  33.939  1.00  0.00    -0.394 OA
ATOM     23  H1  UNL     1      55.286  36.079  33.650  1.00  0.00     0.210 HD
ENDBRANCH  20  22
ENDBRANCH  19  20
ENDBRANCH  18  19
ENDBRANCH  14  18
ENDBRANCH  10  11
ENDBRANCH   8   9
ENDBRANCH   7   8
ENDBRANCH   1   7
BRANCH   6  24
HETATM   24  O8  UNL     1      48.215  36.173  36.052  1.00  0.00    -0.374 OA
BRANCH  24  25
HETATM   25  C17 UNL     1      49.398  36.858  35.980  1.00  0.00     0.207 C 
BRANCH  25  26
HETATM   26  C18 UNL     1      50.343  36.019  35.174  1.00  0.00    -0.035 A 
HETATM   27  C19 UNL     1      51.711  36.230  35.196  1.00  0.00     0.009 A 
HETATM   28  C20 UNL     1      52.586  35.461  34.458  1.00  0.00     0.001 A 
HETATM   29  C21 UNL     1      52.083  34.445  33.667  1.00  0.00     0.000 A 
HETATM   30  C22 UNL     1      50.725  34.216  33.630  1.00  0.00     0.001 A 
HETATM   31  C23 UNL     1      49.881  35.001  34.378  1.00  0.00     0.009 A 
ENDBRANCH  25  26
ENDBRANCH  24  25
ENDBRANCH   6  24
BRANCH   3  32
HETATM   32  C13 UNL     1      45.456  32.264  37.788  1.00  0.00     0.198 C 
BRANCH  32  33
HETATM   33  O5  UNL     1      44.081  32.251  37.723  1.00  0.00    -0.398 OA
ATOM     34  H5  UNL     1      43.766  32.490  36.859  1.00  0.00     0.209 HD
ENDBRANCH  32  33
ENDBRANCH   3  32
BRANCH   5  35
HETATM   35  O7  UNL     1      46.378  36.821  38.813  1.00  0.00    -0.390 OA
ATOM     36  H7  UNL     1      46.483  36.318  39.612  1.00  0.00     0.210 HD
ENDBRANCH   5  35
BRANCH   4  37
HETATM   37  O6  UNL     1      45.539  34.406  39.273  1.00  0.00    -0.390 OA
ATOM     38  H6  UNL     1      46.347  34.678  39.691  1.00  0.00     0.210 HD
ENDBRANCH   4  37
TORSDOF 15
ENDMDL
MODEL 5
REMARK VINA RESULT: -6.212032855      1.960      3.475
REMARK  15 active torsions:
REMARK  status: ('A' for Active; 'I' for Inactive)
REMARK    1  A    between atoms: C2_2  and  O1_3 
REMARK    2  A    between atoms: C2_2  and  C3_5 
REMARK    3  A    between atoms: C3_5  and  O2_6 
REMARK    4  A    between atoms: O2_6  and  C4_7 
REMARK    5  A    between atoms: C7_10  and  C8_11 
REMARK    6  A    between atoms: C9_12  and  C10_13 
REMARK    7  A    between atoms: C10_13  and  O3_14 
REMARK    8  A    between atoms: O3_14  and  C11_15 
REMARK    9  A    between atoms: C12_17  and  C13_18 
REMARK   10  A    between atoms: C13_18  and  O5_19 
REMARK   11  A    between atoms: C14_21  and  O6_22 
REMARK   12  A    between atoms: C15_24  and  O7_25 
REMARK   13  A    between atoms: C16_27  and  O8_28 
REMARK   14  A    between atoms: O8_28  and  C17_29 
REMARK   15  A    between atoms: C17_29  and  C18_30 
ROOT
HETATM    1  C11 UNL     1      48.134  33.945  37.871  1.00  0.00     0.292 C 
HETATM    2  O4  UNL     1      47.258  34.234  38.881  1.00  0.00    -0.348 OA
HETATM    3  C12 UNL     1      45.925  34.179  38.609  1.00  0.00     0.179 C 
HETATM    4  C14 UNL     1      45.514  33.540  37.332  1.00  0.00     0.180 C 
HETATM    5  C15 UNL     1      46.402  32.474  36.806  1.00  0.00     0.183 C 
HETATM    6  C16 UNL     1      47.844  32.605  37.212  1.00  0.00     0.208 C 
ENDROOT
BRANCH   1   7
HETATM    7  O3  UNL     1      48.116  34.904  36.916  1.00  0.00    -0.355 OA
BRANCH   7   8
HETATM    8  C10 UNL     1      49.065  35.856  36.902  1.00  0.00     0.198 C 
BRANCH   8   9
HETATM    9  C9  UNL     1      50.287  35.590  36.127  1.00  0.00     0.000 C 
HETATM   10  C8  UNL     1      51.351  35.096  36.685  1.00  0.00     0.011 C 
BRANCH  10  11
HETATM   11  C7  UNL     1      52.614  34.785  36.059  1.00  0.00    -0.021 A 
HETATM   12  C6  UNL     1      52.693  34.079  34.883  1.00  0.00     0.017 A 
HETATM   13  C5  UNL     1      53.926  33.787  34.297  1.00  0.00     0.057 A 
HETATM   14  C4  UNL     1      55.106  34.195  34.872  1.00  0.00     0.143 A 
HETATM   15  N1  UNL     1      54.990  34.899  36.050  1.00  0.00    -0.341 N 
HETATM   16  C24 UNL     1      53.806  35.180  36.613  1.00  0.00     0.104 A 
HETATM   17  C25 UNL     1      56.204  35.355  36.701  1.00  0.00     0.158 C 
BRANCH  14  18
HETATM   18  O2  UNL     1      56.357  33.962  34.374  1.00  0.00    -0.333 OA
BRANCH  18  19
HETATM   19  C3  UNL     1      56.930  34.283  33.162  1.00  0.00     0.208 C 
BRANCH  19  20
HETATM   20  C2  UNL     1      58.257  33.622  32.897  1.00  0.00     0.138 C 
HETATM   21  C1  UNL     1      58.088  32.689  31.682  1.00  0.00     0.041 C 
BRANCH  20  22
HETATM   22  O1  UNL     1      59.190  34.611  32.527  1.00  0.00    -0.394 OA
ATOM     23  H1  UNL     1      58.696  35.323  32.138  1.00  0.00     0.210 HD
ENDBRANCH  20  22
ENDBRANCH  19  20
ENDBRANCH  18  19
ENDBRANCH  14  18
ENDBRANCH  10  11
ENDBRANCH   8   9
ENDBRANCH   7   8
ENDBRANCH   1   7
BRANCH   6  24
HETATM   24  O8  UNL     1      48.276  31.536  37.992  1.00  0.00    -0.374 OA
BRANCH  24  25
HETATM   25  C17 UNL     1      49.039  30.614  37.327  1.00  0.00     0.207 C 
BRANCH  25  26
HETATM   26  C18 UNL     1      50.473  30.988  37.549  1.00  0.00    -0.035 A 
HETATM   27  C19 UNL     1      50.908  31.549  38.737  1.00  0.00     0.009 A 
HETATM   28  C20 UNL     1      52.227  31.894  38.949  1.00  0.00     0.001 A 
HETATM   29  C21 UNL     1      53.147  31.674  37.941  1.00  0.00     0.000 A 
HETATM   30  C22 UNL     1      52.737  31.116  36.750  1.00  0.00     0.001 A 
HETATM   31  C23 UNL     1      51.415  30.783  36.572  1.00  0.00     0.009 A 
ENDBRANCH  25  26
ENDBRANCH  24  25
ENDBRANCH   6  24
BRANCH   3  32
HETATM   32  C13 UNL     1      45.239  35.536  38.819  1.00  0.00     0.198 C 
BRANCH  32  33
HETATM   33  O5  UNL     1      46.096  36.586  38.582  1.00  0.00    -0.398 OA
ATOM     34  H5  UNL     1      45.815  37.379  39.023  1.00  0.00     0.209 HD
ENDBRANCH  32  33
ENDBRANCH   3  32
BRANCH   5  35
HETATM   35  O7  UNL     1      46.272  32.380  35.406  1.00  0.00    -0.390 OA
ATOM     36  H7  UNL     1      46.745  31.623  35.083  1.00  0.00     0.210 HD
ENDBRANCH   5  35
BRANCH   4  37
HETATM   37  O6  UNL     1      45.303  34.579  36.394  1.00  0.00    -0.390 OA
ATOM     38  H6  UNL     1      45.731  34.320  35.587  1.00  0.00     0.210 HD
ENDBRANCH   4  37
TORSDOF 15
ENDMDL
