MODEL 1
REMARK VINA RESULT: -6.085857726      0.000      0.000
REMARK  16 active torsions:
REMARK  status: ('A' for Active; 'I' for Inactive)
REMARK    1  A    between atoms: C2_2  and  C3_3 
REMARK    2  A    between atoms: C3_3  and  N1_4 
REMARK    3  A    between atoms: N1_4  and  C4_6 
REMARK    4  A    between atoms: N3_10  and  N4_12 
REMARK    5  A    between atoms: N4_12  and  C6_13 
REMARK    6  A    between atoms: C6_13  and  C7_14 
REMARK    7  A    between atoms: C10_17  and  O1_18 
REMARK    8  A    between atoms: O1_18  and  C11_19 
REMARK    9  A    between atoms: C11_19  and  C12_20 
REMARK   10  A    between atoms: C12_20  and  O2_21 
REMARK   11  A    between atoms: C12_20  and  C13_23 
REMARK   12  A    between atoms: C13_23  and  O3_24 
REMARK   13  A    between atoms: N5_28  and  C16_29 
REMARK   14  A    between atoms: C16_29  and  C17_30 
REMARK   15  A    between atoms: C20_33  and  N6_34 
REMARK   16  A    between atoms: N6_34  and  C21_36 
ROOT
HETATM    1  C4  UNL     1      53.921  32.238  34.836  1.00  0.00     0.707 A 
HETATM    2  N2  UNL     1      53.760  32.746  36.106  1.00  0.00    -0.019 N 
ATOM      3  H2  UNL     1      52.970  32.431  36.670  1.00  0.00     0.203 HD
HETATM    4  C5  UNL     1      54.606  33.637  36.619  1.00  0.00     0.738 A 
HETATM    5  N3  UNL     1      54.426  34.089  37.814  1.00  0.00    -0.064 N 
ATOM      6  H3  UNL     1      55.151  34.763  38.062  1.00  0.00     0.221 HD
HETATM    7  N5  UNL     1      55.678  34.076  35.880  1.00  0.00    -0.011 N 
HETATM    8  C20 UNL     1      55.872  33.595  34.627  1.00  0.00     0.710 A 
HETATM    9  N7  UNL     1      54.986  32.699  34.161  1.00  0.00    -0.021 N 
ATOM     10  H7  UNL     1      55.134  32.340  33.218  1.00  0.00     0.203 HD
ENDROOT
BRANCH   5  11
HETATM   11  N4  UNL     1      53.594  33.931  38.779  1.00  0.00    -0.323 NA
BRANCH  11  12
HETATM   12  C6  UNL     1      52.762  33.753  39.599  1.00  0.00     0.220 C 
BRANCH  12  13
HETATM   13  C7  UNL     1      51.308  33.509  39.496  1.00  0.00    -0.005 A 
HETATM   14  C8  UNL     1      50.520  34.330  38.705  1.00  0.00     0.017 A 
HETATM   15  C9  UNL     1      49.182  34.088  38.599  1.00  0.00     0.037 A 
HETATM   16  C10 UNL     1      48.534  33.016  39.266  1.00  0.00     0.068 A 
HETATM   17  C14 UNL     1      49.360  32.244  40.031  1.00  0.00     0.037 A 
HETATM   18  C15 UNL     1      50.719  32.462  40.161  1.00  0.00     0.017 A 
BRANCH  16  19
HETATM   19  O1  UNL     1      47.247  32.838  39.122  1.00  0.00    -0.349 OA
BRANCH  19  20
HETATM   20  C11 UNL     1      45.993  33.113  38.955  1.00  0.00     0.209 C 
BRANCH  20  21
HETATM   21  C12 UNL     1      45.387  33.160  37.553  1.00  0.00     0.166 C 
BRANCH  21  22
HETATM   22  O2  UNL     1      44.215  32.342  37.591  1.00  0.00    -0.391 OA
ATOM     23  H2  UNL     1      44.410  31.568  37.076  1.00  0.00     0.210 HD
ENDBRANCH  21  22
BRANCH  21  24
HETATM   24  C13 UNL     1      46.262  32.505  36.518  1.00  0.00     0.198 C 
BRANCH  24  25
HETATM   25  O3  UNL     1      46.408  31.135  36.880  1.00  0.00    -0.398 OA
ATOM     26  H3  UNL     1      46.687  30.660  36.106  1.00  0.00     0.209 HD
ENDBRANCH  24  25
ENDBRANCH  21  24
ENDBRANCH  20  21
ENDBRANCH  19  20
ENDBRANCH  16  19
ENDBRANCH  12  13
ENDBRANCH  11  12
ENDBRANCH   5  11
BRANCH   7  27
HETATM   27  C16 UNL     1      56.557  35.022  36.456  1.00  0.00     0.170 C 
BRANCH  27  28
HETATM   28  C17 UNL     1      56.106  36.387  36.750  1.00  0.00    -0.003 C 
HETATM   29  C18 UNL     1      56.947  37.213  37.694  1.00  0.00     0.011 C 
HETATM   30  C19 UNL     1      55.810  37.293  35.576  1.00  0.00     0.011 C 
ENDBRANCH  27  28
ENDBRANCH   7  27
BRANCH   1  31
HETATM   31  N1  UNL     1      53.064  31.409  34.386  1.00  0.00    -0.222 N 
ATOM     32  H1  UNL     1      53.440  30.625  33.853  1.00  0.00     0.178 HD
BRANCH  31  33
HETATM   33  C3  UNL     1      51.651  31.440  34.534  1.00  0.00     0.164 C 
BRANCH  33  34
HETATM   34  C2  UNL     1      51.233  30.502  35.686  1.00  0.00    -0.017 C 
HETATM   35  C1  UNL     1      50.638  30.945  36.725  1.00  0.00     0.008 C 
ENDBRANCH  33  34
ENDBRANCH  31  33
ENDBRANCH   1  31
BRANCH   8  36
HETATM   36  N6  UNL     1      56.866  33.988  33.976  1.00  0.00    -0.217 N 
ATOM     37  H6  UNL     1      57.681  34.139  34.569  1.00  0.00     0.178 HD
BRANCH  36  38
HETATM   38  C21 UNL     1      57.128  34.269  32.631  1.00  0.00     0.036 C 
HETATM   39  C22 UNL     1      58.666  34.191  32.468  1.00  0.00     0.038 C 
HETATM   40  C23 UNL     1      56.565  33.237  31.675  1.00  0.00     0.038 C 
HETATM   41  C24 UNL     1      56.781  35.668  32.163  1.00  0.00     0.038 C 
ENDBRANCH  36  38
ENDBRANCH   8  36
TORSDOF 16
ENDMDL
MODEL 2
REMARK VINA RESULT: -5.913438918      4.633      9.437
REMARK  16 active torsions:
REMARK  status: ('A' for Active; 'I' for Inactive)
REMARK    1  A    between atoms: C2_2  and  C3_3 
REMARK    2  A    between atoms: C3_3  and  N1_4 
REMARK    3  A    between atoms: N1_4  and  C4_6 
REMARK    4  A    between atoms: N3_10  and  N4_12 
REMARK    5  A    between atoms: N4_12  and  C6_13 
REMARK    6  A    between atoms: C6_13  and  C7_14 
REMARK    7  A    between atoms: C10_17  and  O1_18 
REMARK    8  A    between atoms: O1_18  and  C11_19 
REMARK    9  A    between atoms: C11_19  and  C12_20 
REMARK   10  A    between atoms: C12_20  and  O2_21 
REMARK   11  A    between atoms: C12_20  and  C13_23 
REMARK   12  A    between atoms: C13_23  and  O3_24 
REMARK   13  A    between atoms: N5_28  and  C16_29 
REMARK   14  A    between atoms: C16_29  and  C17_30 
REMARK   15  A    between atoms: C20_33  and  N6_34 
REMARK   16  A    between atoms: N6_34  and  C21_36 
ROOT
HETATM    1  C4  UNL     1      50.597  36.182  36.785  1.00  0.00     0.707 A 
HETATM    2  N2  UNL     1      51.320  35.010  36.839  1.00  0.00    -0.019 N 
ATOM      3  H2  UNL     1      52.303  35.021  36.564  1.00  0.00     0.203 HD
HETATM    4  C5  UNL     1      50.774  33.865  37.240  1.00  0.00     0.738 A 
HETATM    5  N3  UNL     1      51.482  32.788  37.282  1.00  0.00    -0.064 N 
ATOM      6  H3  UNL     1      50.925  31.996  37.605  1.00  0.00     0.221 HD
HETATM    7  N5  UNL     1      49.452  33.825  37.616  1.00  0.00    -0.011 N 
HETATM    8  C20 UNL     1      48.710  34.959  37.579  1.00  0.00     0.710 A 
HETATM    9  N7  UNL     1      49.313  36.085  37.165  1.00  0.00    -0.021 N 
ATOM     10  H7  UNL     1      48.751  36.936  37.137  1.00  0.00     0.203 HD
ENDROOT
BRANCH   5  11
HETATM   11  N4  UNL     1      52.690  32.430  37.034  1.00  0.00    -0.323 NA
BRANCH  11  12
HETATM   12  C6  UNL     1      53.817  32.193  36.770  1.00  0.00     0.220 C 
BRANCH  12  13
HETATM   13  C7  UNL     1      54.751  32.791  35.793  1.00  0.00    -0.005 A 
HETATM   14  C8  UNL     1      55.830  33.543  36.233  1.00  0.00     0.017 A 
HETATM   15  C9  UNL     1      56.699  34.076  35.326  1.00  0.00     0.037 A 
HETATM   16  C10 UNL     1      56.559  33.901  33.925  1.00  0.00     0.068 A 
HETATM   17  C14 UNL     1      55.479  33.154  33.553  1.00  0.00     0.037 A 
HETATM   18  C15 UNL     1      54.579  32.600  34.445  1.00  0.00     0.017 A 
BRANCH  16  19
HETATM   19  O1  UNL     1      57.428  34.438  33.109  1.00  0.00    -0.349 OA
BRANCH  19  20
HETATM   20  C11 UNL     1      58.158  34.614  32.055  1.00  0.00     0.209 C 
BRANCH  20  21
HETATM   21  C12 UNL     1      58.919  33.444  31.431  1.00  0.00     0.166 C 
BRANCH  21  22
HETATM   22  O2  UNL     1      57.932  32.530  30.951  1.00  0.00    -0.391 OA
ATOM     23  H2  UNL     1      58.204  31.666  31.238  1.00  0.00     0.210 HD
ENDBRANCH  21  22
BRANCH  21  24
HETATM   24  C13 UNL     1      59.699  32.651  32.444  1.00  0.00     0.198 C 
BRANCH  24  25
HETATM   25  O3  UNL     1      60.373  33.577  33.292  1.00  0.00    -0.398 OA
ATOM     26  H3  UNL     1      60.761  34.245  32.739  1.00  0.00     0.209 HD
ENDBRANCH  24  25
ENDBRANCH  21  24
ENDBRANCH  20  21
ENDBRANCH  19  20
ENDBRANCH  16  19
ENDBRANCH  12  13
ENDBRANCH  11  12
ENDBRANCH   5  11
BRANCH   7  27
HETATM   27  C16 UNL     1      48.904  32.592  38.037  1.00  0.00     0.170 C 
BRANCH  27  28
HETATM   28  C17 UNL     1      49.056  32.134  39.423  1.00  0.00    -0.003 C 
HETATM   29  C18 UNL     1      49.791  30.835  39.654  1.00  0.00     0.011 C 
HETATM   30  C19 UNL     1      49.641  33.110  40.420  1.00  0.00     0.011 C 
ENDBRANCH  27  28
ENDBRANCH   7  27
BRANCH   1  31
HETATM   31  N1  UNL     1      51.165  37.243  36.365  1.00  0.00    -0.222 N 
ATOM     32  H1  UNL     1      51.332  37.965  37.066  1.00  0.00     0.178 HD
BRANCH  31  33
HETATM   33  C3  UNL     1      51.594  37.546  35.045  1.00  0.00     0.164 C 
BRANCH  33  34
HETATM   34  C2  UNL     1      53.135  37.487  34.978  1.00  0.00    -0.017 C 
HETATM   35  C1  UNL     1      53.747  36.438  34.584  1.00  0.00     0.008 C 
ENDBRANCH  33  34
ENDBRANCH  31  33
ENDBRANCH   1  31
BRANCH   8  36
HETATM   36  N6  UNL     1      47.514  34.910  37.946  1.00  0.00    -0.217 N 
ATOM     37  H6  UNL     1      47.423  34.718  38.944  1.00  0.00     0.178 HD
BRANCH  36  38
HETATM   38  C21 UNL     1      46.272  35.056  37.318  1.00  0.00     0.036 C 
HETATM   39  C22 UNL     1      45.528  33.712  37.525  1.00  0.00     0.038 C 
HETATM   40  C23 UNL     1      45.391  36.110  37.956  1.00  0.00     0.038 C 
HETATM   41  C24 UNL     1      46.302  35.231  35.814  1.00  0.00     0.038 C 
ENDBRANCH  36  38
ENDBRANCH   8  36
TORSDOF 16
ENDMDL
MODEL 3
REMARK VINA RESULT: -5.847212661      1.558      4.234
REMARK  16 active torsions:
REMARK  status: ('A' for Active; 'I' for Inactive)
REMARK    1  A    between atoms: C2_2  and  C3_3 
REMARK    2  A    between atoms: C3_3  and  N1_4 
REMARK    3  A    between atoms: N1_4  and  C4_6 
REMARK    4  A    between atoms: N3_10  and  N4_12 
REMARK    5  A    between atoms: N4_12  and  C6_13 
REMARK    6  A    between atoms: C6_13  and  C7_14 
REMARK    7  A    between atoms: C10_17  and  O1_18 
REMARK    8  A    between atoms: O1_18  and  C11_19 
REMARK    9  A    between atoms: C11_19  and  C12_20 
REMARK   10  A    between atoms: C12_20  and  O2_21 
REMARK   11  A    between atoms: C12_20  and  C13_23 
REMARK   12  A    between atoms: C13_23  and  O3_24 
REMARK   13  A    between atoms: N5_28  and  C16_29 
REMARK   14  A    between atoms: C16_29  and  C17_30 
REMARK   15  A    between atoms: C20_33  and  N6_34 
REMARK   16  A    between atoms: N6_34  and  C21_36 
ROOT
HETATM    1  C4  UNL     1      55.350  37.207  35.425  1.00  0.00     0.707 A 
HETATM    2  N2  UNL     1      54.765  36.222  36.191  1.00  0.00    -0.019 N 
ATOM      3  H2  UNL     1      54.277  36.486  37.048  1.00  0.00     0.203 HD
HETATM    4  C5  UNL     1      54.820  34.938  35.847  1.00  0.00     0.738 A 
HETATM    5  N3  UNL     1      54.257  34.043  36.587  1.00  0.00    -0.064 N 
ATOM      6  H3  UNL     1      54.387  33.110  36.195  1.00  0.00     0.221 HD
HETATM    7  N5  UNL     1      55.471  34.558  34.698  1.00  0.00    -0.011 N 
HETATM    8  C20 UNL     1      56.056  35.500  33.916  1.00  0.00     0.710 A 
HETATM    9  N7  UNL     1      55.970  36.780  34.314  1.00  0.00    -0.021 N 
ATOM     10  H7  UNL     1      56.412  37.485  33.724  1.00  0.00     0.203 HD
ENDROOT
BRANCH   5  11
HETATM   11  N4  UNL     1      53.580  33.994  37.676  1.00  0.00    -0.323 NA
BRANCH  11  12
HETATM   12  C6  UNL     1      52.879  33.990  38.628  1.00  0.00     0.220 C 
BRANCH  12  13
HETATM   13  C7  UNL     1      51.412  33.886  38.776  1.00  0.00    -0.005 A 
HETATM   14  C8  UNL     1      50.576  34.534  37.879  1.00  0.00     0.017 A 
HETATM   15  C9  UNL     1      49.223  34.418  38.010  1.00  0.00     0.037 A 
HETATM   16  C10 UNL     1      48.607  33.655  39.035  1.00  0.00     0.068 A 
HETATM   17  C14 UNL     1      49.480  33.043  39.887  1.00  0.00     0.037 A 
HETATM   18  C15 UNL     1      50.856  33.139  39.784  1.00  0.00     0.017 A 
BRANCH  16  19
HETATM   19  O1  UNL     1      47.303  33.585  39.104  1.00  0.00    -0.349 OA
BRANCH  19  20
HETATM   20  C11 UNL     1      46.097  33.154  38.914  1.00  0.00     0.209 C 
BRANCH  20  21
HETATM   21  C12 UNL     1      45.461  33.210  37.525  1.00  0.00     0.166 C 
BRANCH  21  22
HETATM   22  O2  UNL     1      44.285  32.400  37.587  1.00  0.00    -0.391 OA
ATOM     23  H2  UNL     1      43.571  32.937  37.264  1.00  0.00     0.210 HD
ENDBRANCH  21  22
BRANCH  21  24
HETATM   24  C13 UNL     1      46.309  32.553  36.470  1.00  0.00     0.198 C 
BRANCH  24  25
HETATM   25  O3  UNL     1      46.648  31.250  36.937  1.00  0.00    -0.398 OA
ATOM     26  H3  UNL     1      47.596  31.190  36.959  1.00  0.00     0.209 HD
ENDBRANCH  24  25
ENDBRANCH  21  24
ENDBRANCH  20  21
ENDBRANCH  19  20
ENDBRANCH  16  19
ENDBRANCH  12  13
ENDBRANCH  11  12
ENDBRANCH   5  11
BRANCH   7  27
HETATM   27  C16 UNL     1      55.509  33.186  34.361  1.00  0.00     0.170 C 
BRANCH  27  28
HETATM   28  C17 UNL     1      54.475  32.591  33.506  1.00  0.00    -0.003 C 
HETATM   29  C18 UNL     1      54.928  31.886  32.250  1.00  0.00     0.011 C 
HETATM   30  C19 UNL     1      53.483  31.656  34.159  1.00  0.00     0.011 C 
ENDBRANCH  27  28
ENDBRANCH   7  27
BRANCH   1  31
HETATM   31  N1  UNL     1      55.292  38.417  35.819  1.00  0.00    -0.222 N 
ATOM     32  H1  UNL     1      54.354  38.799  35.948  1.00  0.00     0.178 HD
BRANCH  31  33
HETATM   33  C3  UNL     1      56.366  39.302  36.101  1.00  0.00     0.164 C 
BRANCH  33  34
HETATM   34  C2  UNL     1      57.178  38.763  37.298  1.00  0.00    -0.017 C 
HETATM   35  C1  UNL     1      58.367  39.164  37.535  1.00  0.00     0.008 C 
ENDBRANCH  33  34
ENDBRANCH  31  33
ENDBRANCH   1  31
BRANCH   8  36
HETATM   36  N6  UNL     1      56.626  35.140  32.861  1.00  0.00    -0.217 N 
ATOM     37  H6  UNL     1      57.369  34.463  33.035  1.00  0.00     0.178 HD
BRANCH  36  38
HETATM   38  C21 UNL     1      56.492  35.443  31.502  1.00  0.00     0.036 C 
HETATM   39  C22 UNL     1      57.205  34.300  30.736  1.00  0.00     0.038 C 
HETATM   40  C23 UNL     1      55.056  35.423  31.017  1.00  0.00     0.038 C 
HETATM   41  C24 UNL     1      57.193  36.698  31.026  1.00  0.00     0.038 C 
ENDBRANCH  36  38
ENDBRANCH   8  36
TORSDOF 16
ENDMDL
MODEL 4
REMARK VINA RESULT: -5.791431864      4.653      9.528
REMARK  16 active torsions:
REMARK  status: ('A' for Active; 'I' for Inactive)
REMARK    1  A    between atoms: C2_2  and  C3_3 
REMARK    2  A    between atoms: C3_3  and  N1_4 
REMARK    3  A    between atoms: N1_4  and  C4_6 
REMARK    4  A    between atoms: N3_10  and  N4_12 
REMARK    5  A    between atoms: N4_12  and  C6_13 
REMARK    6  A    between atoms: C6_13  and  C7_14 
REMARK    7  A    between atoms: C10_17  and  O1_18 
REMARK    8  A    between atoms: O1_18  and  C11_19 
REMARK    9  A    between atoms: C11_19  and  C12_20 
REMARK   10  A    between atoms: C12_20  and  O2_21 
REMARK   11  A    between atoms: C12_20  and  C13_23 
REMARK   12  A    between atoms: C13_23  and  O3_24 
REMARK   13  A    between atoms: N5_28  and  C16_29 
REMARK   14  A    between atoms: C16_29  and  C17_30 
REMARK   15  A    between atoms: C20_33  and  N6_34 
REMARK   16  A    between atoms: N6_34  and  C21_36 
ROOT
HETATM    1  C4  UNL     1      50.244  35.675  36.956  1.00  0.00     0.707 A 
HETATM    2  N2  UNL     1      51.129  34.623  37.044  1.00  0.00    -0.019 N 
ATOM      3  H2  UNL     1      52.110  34.779  36.809  1.00  0.00     0.203 HD
HETATM    4  C5  UNL     1      50.742  33.409  37.428  1.00  0.00     0.738 A 
HETATM    5  N3  UNL     1      51.599  32.448  37.503  1.00  0.00    -0.064 N 
ATOM      6  H3  UNL     1      51.152  31.582  37.806  1.00  0.00     0.221 HD
HETATM    7  N5  UNL     1      49.427  33.174  37.751  1.00  0.00    -0.011 N 
HETATM    8  C20 UNL     1      48.527  34.186  37.680  1.00  0.00     0.710 A 
HETATM    9  N7  UNL     1      48.975  35.390  37.285  1.00  0.00    -0.021 N 
ATOM     10  H7  UNL     1      48.295  36.148  37.232  1.00  0.00     0.203 HD
ENDROOT
BRANCH   5  11
HETATM   11  N4  UNL     1      52.855  32.272  37.304  1.00  0.00    -0.323 NA
BRANCH  11  12
HETATM   12  C6  UNL     1      54.010  32.194  37.066  1.00  0.00     0.220 C 
BRANCH  12  13
HETATM   13  C7  UNL     1      54.845  32.802  36.009  1.00  0.00    -0.005 A 
HETATM   14  C8  UNL     1      54.531  32.601  34.674  1.00  0.00     0.017 A 
HETATM   15  C9  UNL     1      55.295  33.182  33.703  1.00  0.00     0.037 A 
HETATM   16  C10 UNL     1      56.419  34.001  33.989  1.00  0.00     0.068 A 
HETATM   17  C14 UNL     1      56.679  34.160  35.320  1.00  0.00     0.037 A 
HETATM   18  C15 UNL     1      55.927  33.586  36.328  1.00  0.00     0.017 A 
BRANCH  16  19
HETATM   19  O1  UNL     1      57.109  34.528  33.012  1.00  0.00    -0.349 OA
BRANCH  19  20
HETATM   20  C11 UNL     1      58.083  34.734  32.185  1.00  0.00     0.209 C 
BRANCH  20  21
HETATM   21  C12 UNL     1      58.948  33.572  31.697  1.00  0.00     0.166 C 
BRANCH  21  22
HETATM   22  O2  UNL     1      58.047  32.558  31.248  1.00  0.00    -0.391 OA
ATOM     23  H2  UNL     1      57.710  32.850  30.409  1.00  0.00     0.210 HD
ENDBRANCH  21  22
BRANCH  21  24
HETATM   24  C13 UNL     1      59.722  32.915  32.808  1.00  0.00     0.198 C 
BRANCH  24  25
HETATM   25  O3  UNL     1      60.733  33.827  33.228  1.00  0.00    -0.398 OA
ATOM     26  H3  UNL     1      61.575  33.428  33.045  1.00  0.00     0.209 HD
ENDBRANCH  24  25
ENDBRANCH  21  24
ENDBRANCH  20  21
ENDBRANCH  19  20
ENDBRANCH  16  19
ENDBRANCH  12  13
ENDBRANCH  11  12
ENDBRANCH   5  11
BRANCH   7  27
HETATM   27  C16 UNL     1      49.050  31.872  38.155  1.00  0.00     0.170 C 
BRANCH  27  28
HETATM   28  C17 UNL     1      48.991  30.771  37.186  1.00  0.00    -0.003 C 
HETATM   29  C18 UNL     1      49.441  29.407  37.651  1.00  0.00     0.011 C 
HETATM   30  C19 UNL     1      47.679  30.541  36.471  1.00  0.00     0.011 C 
ENDBRANCH  27  28
ENDBRANCH   7  27
BRANCH   1  31
HETATM   31  N1  UNL     1      50.666  36.809  36.555  1.00  0.00    -0.222 N 
ATOM     32  H1  UNL     1      50.765  37.527  37.273  1.00  0.00     0.178 HD
BRANCH  31  33
HETATM   33  C3  UNL     1      51.015  37.199  35.234  1.00  0.00     0.164 C 
BRANCH  33  34
HETATM   34  C2  UNL     1      52.546  37.359  35.131  1.00  0.00    -0.017 C 
HETATM   35  C1  UNL     1      53.307  36.364  34.884  1.00  0.00     0.008 C 
ENDBRANCH  33  34
ENDBRANCH  31  33
ENDBRANCH   1  31
BRANCH   8  36
HETATM   36  N6  UNL     1      47.338  33.961  37.999  1.00  0.00    -0.217 N 
ATOM     37  H6  UNL     1      47.252  33.627  38.958  1.00  0.00     0.178 HD
BRANCH  36  38
HETATM   38  C21 UNL     1      46.099  34.057  37.357  1.00  0.00     0.036 C 
HETATM   39  C22 UNL     1      45.243  32.884  37.899  1.00  0.00     0.038 C 
HETATM   40  C23 UNL     1      45.331  35.316  37.708  1.00  0.00     0.038 C 
HETATM   41  C24 UNL     1      46.106  33.843  35.857  1.00  0.00     0.038 C 
ENDBRANCH  36  38
ENDBRANCH   8  36
TORSDOF 16
ENDMDL
MODEL 5
REMARK VINA RESULT: -5.750080635      4.741      9.566
REMARK  16 active torsions:
REMARK  status: ('A' for Active; 'I' for Inactive)
REMARK    1  A    between atoms: C2_2  and  C3_3 
REMARK    2  A    between atoms: C3_3  and  N1_4 
REMARK    3  A    between atoms: N1_4  and  C4_6 
REMARK    4  A    between atoms: N3_10  and  N4_12 
REMARK    5  A    between atoms: N4_12  and  C6_13 
REMARK    6  A    between atoms: C6_13  and  C7_14 
REMARK    7  A    between atoms: C10_17  and  O1_18 
REMARK    8  A    between atoms: O1_18  and  C11_19 
REMARK    9  A    between atoms: C11_19  and  C12_20 
REMARK   10  A    between atoms: C12_20  and  O2_21 
REMARK   11  A    between atoms: C12_20  and  C13_23 
REMARK   12  A    between atoms: C13_23  and  O3_24 
REMARK   13  A    between atoms: N5_28  and  C16_29 
REMARK   14  A    between atoms: C16_29  and  C17_30 
REMARK   15  A    between atoms: C20_33  and  N6_34 
REMARK   16  A    between atoms: N6_34  and  C21_36 
ROOT
HETATM    1  C4  UNL     1      50.559  36.199  36.825  1.00  0.00     0.707 A 
HETATM    2  N2  UNL     1      51.303  35.041  36.886  1.00  0.00    -0.019 N 
ATOM      3  H2  UNL     1      52.286  35.068  36.610  1.00  0.00     0.203 HD
HETATM    4  C5  UNL     1      50.777  33.888  37.293  1.00  0.00     0.738 A 
HETATM    5  N3  UNL     1      51.505  32.824  37.341  1.00  0.00    -0.064 N 
ATOM      6  H3  UNL     1      50.962  32.024  37.669  1.00  0.00     0.221 HD
HETATM    7  N5  UNL     1      49.457  33.826  37.670  1.00  0.00    -0.011 N 
HETATM    8  C20 UNL     1      48.694  34.947  37.627  1.00  0.00     0.710 A 
HETATM    9  N7  UNL     1      49.278  36.082  37.206  1.00  0.00    -0.021 N 
ATOM     10  H7  UNL     1      48.701  36.922  37.173  1.00  0.00     0.203 HD
ENDROOT
BRANCH   5  11
HETATM   11  N4  UNL     1      52.719  32.486  37.095  1.00  0.00    -0.323 NA
BRANCH  11  12
HETATM   12  C6  UNL     1      53.815  32.187  36.770  1.00  0.00     0.220 C 
BRANCH  12  13
HETATM   13  C7  UNL     1      54.752  32.777  35.790  1.00  0.00    -0.005 A 
HETATM   14  C8  UNL     1      54.545  32.590  34.432  1.00  0.00     0.017 A 
HETATM   15  C9  UNL     1      55.402  33.153  33.532  1.00  0.00     0.037 A 
HETATM   16  C10 UNL     1      56.520  33.939  33.916  1.00  0.00     0.068 A 
HETATM   17  C14 UNL     1      56.673  34.085  35.264  1.00  0.00     0.037 A 
HETATM   18  C15 UNL     1      55.824  33.528  36.203  1.00  0.00     0.017 A 
BRANCH  16  19
HETATM   19  O1  UNL     1      57.303  34.450  33.003  1.00  0.00    -0.349 OA
BRANCH  19  20
HETATM   20  C11 UNL     1      57.993  34.555  31.912  1.00  0.00     0.209 C 
BRANCH  20  21
HETATM   21  C12 UNL     1      59.458  34.121  31.874  1.00  0.00     0.166 C 
BRANCH  21  22
HETATM   22  O2  UNL     1      59.732  33.509  33.135  1.00  0.00    -0.391 OA
ATOM     23  H2  UNL     1      59.720  32.571  32.987  1.00  0.00     0.210 HD
ENDBRANCH  21  22
BRANCH  21  24
HETATM   24  C13 UNL     1      60.409  35.286  31.812  1.00  0.00     0.198 C 
BRANCH  24  25
HETATM   25  O3  UNL     1      59.630  36.480  31.834  1.00  0.00    -0.398 OA
ATOM     26  H3  UNL     1      60.061  37.115  31.274  1.00  0.00     0.209 HD
ENDBRANCH  24  25
ENDBRANCH  21  24
ENDBRANCH  20  21
ENDBRANCH  19  20
ENDBRANCH  16  19
ENDBRANCH  12  13
ENDBRANCH  11  12
ENDBRANCH   5  11
BRANCH   7  27
HETATM   27  C16 UNL     1      48.931  32.586  38.098  1.00  0.00     0.170 C 
BRANCH  27  28
HETATM   28  C17 UNL     1      49.098  32.136  39.485  1.00  0.00    -0.003 C 
HETATM   29  C18 UNL     1      49.823  30.831  39.714  1.00  0.00     0.011 C 
HETATM   30  C19 UNL     1      49.705  33.113  40.467  1.00  0.00     0.011 C 
ENDBRANCH  27  28
ENDBRANCH   7  27
BRANCH   1  31
HETATM   31  N1  UNL     1      51.108  37.267  36.399  1.00  0.00    -0.222 N 
ATOM     32  H1  UNL     1      51.243  38.005  37.091  1.00  0.00     0.178 HD
BRANCH  31  33
HETATM   33  C3  UNL     1      51.555  37.561  35.083  1.00  0.00     0.164 C 
BRANCH  33  34
HETATM   34  C2  UNL     1      53.092  37.432  35.019  1.00  0.00    -0.017 C 
HETATM   35  C1  UNL     1      53.656  36.431  34.461  1.00  0.00     0.008 C 
ENDBRANCH  33  34
ENDBRANCH  31  33
ENDBRANCH   1  31
BRANCH   8  36
HETATM   36  N6  UNL     1      47.499  34.879  37.994  1.00  0.00    -0.217 N 
ATOM     37  H6  UNL     1      47.412  34.696  38.994  1.00  0.00     0.178 HD
BRANCH  36  38
HETATM   38  C21 UNL     1      46.255  34.994  37.365  1.00  0.00     0.036 C 
HETATM   39  C22 UNL     1      45.506  33.669  37.654  1.00  0.00     0.038 C 
HETATM   40  C23 UNL     1      45.383  36.089  37.944  1.00  0.00     0.038 C 
HETATM   41  C24 UNL     1      46.278  35.080  35.853  1.00  0.00     0.038 C 
ENDBRANCH  36  38
ENDBRANCH   8  36
TORSDOF 16
ENDMDL
