MODEL 1
REMARK VINA RESULT: -8.068252860      0.000      0.000
REMARK  15 active torsions:
REMARK  status: ('A' for Active; 'I' for Inactive)
REMARK    1  A    between atoms: C2_2  and  C3_3 
REMARK    2  A    between atoms: C3_3  and  C4_4 
REMARK    3  A    between atoms: C4_4  and  C5_5 
REMARK    4  A    between atoms: C5_5  and  C6_6 
REMARK    5  A    between atoms: C6_6  and  C7_7 
REMARK    6  A    between atoms: C7_7  and  C8_8 
REMARK    7  A    between atoms: C8_8  and  C9_9 
REMARK    8  A    between atoms: C9_9  and  C10_10 
REMARK    9  A    between atoms: C10_10  and  C11_11 
REMARK   10  A    between atoms: C11_11  and  C12_12 
REMARK   11  A    between atoms: C18_21  and  O3_22 
REMARK   12  A    between atoms: C19_24  and  O4_25 
REMARK   13  A    between atoms: C20_27  and  O5_28 
REMARK   14  A    between atoms: C21_30  and  O6_31 
REMARK   15  A    between atoms: C24_35  and  O7_36 
ROOT
HETATM    1  C5  UNL     1      17.531  19.525  21.217  1.00  0.00     0.100 C 
HETATM    2  O1  UNL     1      17.059  19.664  19.861  1.00  0.00    -0.290 OA
HETATM    3  C16 UNL     1      16.039  20.556  19.617  1.00  0.00     0.364 C 
HETATM    4  O2  UNL     1      15.525  20.688  18.449  1.00  0.00    -0.238 OA
HETATM    5  N1  UNL     1      15.550  21.344  20.690  1.00  0.00    -0.318 N 
HETATM    6  C17 UNL     1      15.277  22.634  20.034  1.00  0.00     0.163 C 
HETATM    7  C18 UNL     1      14.833  23.585  21.124  1.00  0.00     0.167 C 
HETATM    8  C19 UNL     1      13.327  23.602  21.269  1.00  0.00     0.179 C 
HETATM    9  C20 UNL     1      12.821  22.495  22.132  1.00  0.00     0.178 C 
HETATM   10  C21 UNL     1      13.010  21.119  21.554  1.00  0.00     0.151 C 
HETATM   11  C22 UNL     1      14.054  20.385  22.312  1.00  0.00     0.062 C 
HETATM   12  C23 UNL     1      15.475  20.744  21.991  1.00  0.00     0.123 C 
HETATM   13  C24 UNL     1      16.357  19.524  22.109  1.00  0.00     0.176 C 
ENDROOT
BRANCH   1  14
HETATM   14  C4  UNL     1      18.424  20.686  21.451  1.00  0.00     0.041 C 
BRANCH  14  15
HETATM   15  C3  UNL     1      19.897  20.452  21.240  1.00  0.00     0.003 C 
BRANCH  15  16
HETATM   16  C2  UNL     1      20.319  21.577  20.263  1.00  0.00    -0.004 C 
HETATM   17  C1  UNL     1      20.157  21.131  18.842  1.00  0.00     0.005 C 
ENDBRANCH  15  16
ENDBRANCH  14  15
ENDBRANCH   1  14
BRANCH   1  18
HETATM   18  C6  UNL     1      18.289  18.209  21.216  1.00  0.00     0.041 C 
BRANCH  18  19
HETATM   19  C7  UNL     1      17.541  17.129  21.947  1.00  0.00     0.003 C 
BRANCH  19  20
HETATM   20  C8  UNL     1      18.457  16.420  22.923  1.00  0.00     0.000 C 
BRANCH  20  21
HETATM   21  C9  UNL     1      19.702  17.169  23.227  1.00  0.00     0.000 C 
BRANCH  21  22
HETATM   22  C10 UNL     1      19.657  17.686  24.641  1.00  0.00     0.001 C 
BRANCH  22  23
HETATM   23  C11 UNL     1      19.841  19.162  24.684  1.00  0.00     0.008 C 
BRANCH  23  24
HETATM   24  C12 UNL     1      21.147  19.569  25.340  1.00  0.00    -0.051 C 
HETATM   25  C13 UNL     1      22.136  19.871  24.231  1.00  0.00     0.014 C 
HETATM   26  C14 UNL     1      21.708  18.417  26.148  1.00  0.00     0.014 C 
HETATM   27  C15 UNL     1      20.986  20.777  26.228  1.00  0.00     0.014 C 
ENDBRANCH  23  24
ENDBRANCH  22  23
ENDBRANCH  21  22
ENDBRANCH  20  21
ENDBRANCH  19  20
ENDBRANCH  18  19
ENDBRANCH   1  18
BRANCH  13  28
HETATM   28  O7  UNL     1      16.734  19.275  23.415  1.00  0.00    -0.390 OA
ATOM     29  H7  UNL     1      16.515  18.385  23.665  1.00  0.00     0.210 HD
ENDBRANCH  13  28
BRANCH  10  30
HETATM   30  O6  UNL     1      11.801  20.412  21.761  1.00  0.00    -0.393 OA
ATOM     31  H6  UNL     1      11.841  20.040  22.634  1.00  0.00     0.210 HD
ENDBRANCH  10  30
BRANCH   7  32
HETATM   32  O3  UNL     1      15.246  24.864  20.791  1.00  0.00    -0.391 OA
ATOM     33  H3  UNL     1      14.479  25.398  20.624  1.00  0.00     0.210 HD
ENDBRANCH   7  32
BRANCH   9  34
HETATM   34  O5  UNL     1      11.466  22.744  22.377  1.00  0.00    -0.390 OA
ATOM     35  H5  UNL     1      11.046  21.905  22.527  1.00  0.00     0.210 HD
ENDBRANCH   9  34
BRANCH   8  36
HETATM   36  O4  UNL     1      12.706  23.574  20.029  1.00  0.00    -0.390 OA
ATOM     37  H4  UNL     1      11.771  23.718  20.111  1.00  0.00     0.210 HD
ENDBRANCH   8  36
TORSDOF 15
ENDMDL
MODEL 2
REMARK VINA RESULT: -8.066546342      0.676      1.138
REMARK  15 active torsions:
REMARK  status: ('A' for Active; 'I' for Inactive)
REMARK    1  A    between atoms: C2_2  and  C3_3 
REMARK    2  A    between atoms: C3_3  and  C4_4 
REMARK    3  A    between atoms: C4_4  and  C5_5 
REMARK    4  A    between atoms: C5_5  and  C6_6 
REMARK    5  A    between atoms: C6_6  and  C7_7 
REMARK    6  A    between atoms: C7_7  and  C8_8 
REMARK    7  A    between atoms: C8_8  and  C9_9 
REMARK    8  A    between atoms: C9_9  and  C10_10 
REMARK    9  A    between atoms: C10_10  and  C11_11 
REMARK   10  A    between atoms: C11_11  and  C12_12 
REMARK   11  A    between atoms: C18_21  and  O3_22 
REMARK   12  A    between atoms: C19_24  and  O4_25 
REMARK   13  A    between atoms: C20_27  and  O5_28 
REMARK   14  A    between atoms: C21_30  and  O6_31 
REMARK   15  A    between atoms: C24_35  and  O7_36 
ROOT
HETATM    1  C5  UNL     1      17.300  19.461  21.020  1.00  0.00     0.100 C 
HETATM    2  O1  UNL     1      16.743  19.666  19.705  1.00  0.00    -0.290 OA
HETATM    3  C16 UNL     1      15.722  20.579  19.567  1.00  0.00     0.364 C 
HETATM    4  O2  UNL     1      15.135  20.769  18.442  1.00  0.00    -0.238 OA
HETATM    5  N1  UNL     1      15.314  21.324  20.704  1.00  0.00    -0.318 N 
HETATM    6  C17 UNL     1      15.018  22.645  20.124  1.00  0.00     0.163 C 
HETATM    7  C18 UNL     1      14.658  23.551  21.281  1.00  0.00     0.167 C 
HETATM    8  C19 UNL     1      13.165  23.578  21.524  1.00  0.00     0.179 C 
HETATM    9  C20 UNL     1      12.700  22.439  22.369  1.00  0.00     0.178 C 
HETATM   10  C21 UNL     1      12.832  21.089  21.720  1.00  0.00     0.151 C 
HETATM   11  C22 UNL     1      13.912  20.310  22.376  1.00  0.00     0.062 C 
HETATM   12  C23 UNL     1      15.315  20.667  21.978  1.00  0.00     0.123 C 
HETATM   13  C24 UNL     1      16.185  19.433  21.985  1.00  0.00     0.176 C 
ENDROOT
BRANCH   1  14
HETATM   14  C4  UNL     1      18.222  20.601  21.246  1.00  0.00     0.041 C 
BRANCH  14  15
HETATM   15  C3  UNL     1      18.546  21.449  20.044  1.00  0.00     0.003 C 
BRANCH  15  16
HETATM   16  C2  UNL     1      20.086  21.345  19.917  1.00  0.00    -0.004 C 
HETATM   17  C1  UNL     1      20.502  21.391  18.479  1.00  0.00     0.005 C 
ENDBRANCH  15  16
ENDBRANCH  14  15
ENDBRANCH   1  14
BRANCH   1  18
HETATM   18  C6  UNL     1      18.038  18.138  20.912  1.00  0.00     0.041 C 
BRANCH  18  19
HETATM   19  C7  UNL     1      19.487  18.271  21.288  1.00  0.00     0.003 C 
BRANCH  19  20
HETATM   20  C8  UNL     1      19.889  17.165  22.241  1.00  0.00     0.000 C 
BRANCH  20  21
HETATM   21  C9  UNL     1      19.863  17.567  23.670  1.00  0.00     0.000 C 
BRANCH  21  22
HETATM   22  C10 UNL     1      20.217  19.025  23.798  1.00  0.00     0.001 C 
BRANCH  22  23
HETATM   23  C11 UNL     1      19.972  19.523  25.179  1.00  0.00     0.008 C 
BRANCH  23  24
HETATM   24  C12 UNL     1      21.253  19.693  25.974  1.00  0.00    -0.051 C 
HETATM   25  C13 UNL     1      20.934  20.585  27.159  1.00  0.00     0.014 C 
HETATM   26  C14 UNL     1      22.297  20.402  25.139  1.00  0.00     0.014 C 
HETATM   27  C15 UNL     1      21.803  18.375  26.458  1.00  0.00     0.014 C 
ENDBRANCH  23  24
ENDBRANCH  22  23
ENDBRANCH  21  22
ENDBRANCH  20  21
ENDBRANCH  19  20
ENDBRANCH  18  19
ENDBRANCH   1  18
BRANCH  13  28
HETATM   28  O7  UNL     1      16.642  19.122  23.252  1.00  0.00    -0.390 OA
ATOM     29  H7  UNL     1      16.009  18.588  23.716  1.00  0.00     0.210 HD
ENDBRANCH  13  28
BRANCH  10  30
HETATM   30  O6  UNL     1      11.629  20.386  21.973  1.00  0.00    -0.393 OA
ATOM     31  H6  UNL     1      11.681  19.564  21.501  1.00  0.00     0.210 HD
ENDBRANCH  10  30
BRANCH   7  32
HETATM   32  O3  UNL     1      15.067  24.839  20.979  1.00  0.00    -0.391 OA
ATOM     33  H3  UNL     1      14.297  25.379  20.845  1.00  0.00     0.210 HD
ENDBRANCH   7  32
BRANCH   9  34
HETATM   34  O5  UNL     1      11.367  22.692  22.712  1.00  0.00    -0.390 OA
ATOM     35  H5  UNL     1      10.988  21.870  23.001  1.00  0.00     0.210 HD
ENDBRANCH   9  34
BRANCH   8  36
HETATM   36  O4  UNL     1      12.465  23.613  20.327  1.00  0.00    -0.390 OA
ATOM     37  H4  UNL     1      11.671  24.128  20.410  1.00  0.00     0.210 HD
ENDBRANCH   8  36
TORSDOF 15
ENDMDL
MODEL 3
REMARK VINA RESULT: -7.978092565      0.804      1.152
REMARK  15 active torsions:
REMARK  status: ('A' for Active; 'I' for Inactive)
REMARK    1  A    between atoms: C2_2  and  C3_3 
REMARK    2  A    between atoms: C3_3  and  C4_4 
REMARK    3  A    between atoms: C4_4  and  C5_5 
REMARK    4  A    between atoms: C5_5  and  C6_6 
REMARK    5  A    between atoms: C6_6  and  C7_7 
REMARK    6  A    between atoms: C7_7  and  C8_8 
REMARK    7  A    between atoms: C8_8  and  C9_9 
REMARK    8  A    between atoms: C9_9  and  C10_10 
REMARK    9  A    between atoms: C10_10  and  C11_11 
REMARK   10  A    between atoms: C11_11  and  C12_12 
REMARK   11  A    between atoms: C18_21  and  O3_22 
REMARK   12  A    between atoms: C19_24  and  O4_25 
REMARK   13  A    between atoms: C20_27  and  O5_28 
REMARK   14  A    between atoms: C21_30  and  O6_31 
REMARK   15  A    between atoms: C24_35  and  O7_36 
ROOT
HETATM    1  C5  UNL     1      17.509  19.605  21.185  1.00  0.00     0.100 C 
HETATM    2  O1  UNL     1      17.029  19.761  19.833  1.00  0.00    -0.290 OA
HETATM    3  C16 UNL     1      16.003  20.651  19.607  1.00  0.00     0.364 C 
HETATM    4  O2  UNL     1      15.482  20.797  18.443  1.00  0.00    -0.238 OA
HETATM    5  N1  UNL     1      15.514  21.420  20.695  1.00  0.00    -0.318 N 
HETATM    6  C17 UNL     1      15.231  22.718  20.059  1.00  0.00     0.163 C 
HETATM    7  C18 UNL     1      14.786  23.649  21.165  1.00  0.00     0.167 C 
HETATM    8  C19 UNL     1      13.281  23.655  21.317  1.00  0.00     0.179 C 
HETATM    9  C20 UNL     1      12.785  22.532  22.166  1.00  0.00     0.178 C 
HETATM   10  C21 UNL     1      12.979  21.167  21.566  1.00  0.00     0.151 C 
HETATM   11  C22 UNL     1      14.031  20.428  22.309  1.00  0.00     0.062 C 
HETATM   12  C23 UNL     1      15.449  20.800  21.986  1.00  0.00     0.123 C 
HETATM   13  C24 UNL     1      16.338  19.583  22.082  1.00  0.00     0.176 C 
ENDROOT
BRANCH   1  14
HETATM   14  C4  UNL     1      18.396  20.768  21.432  1.00  0.00     0.041 C 
BRANCH  14  15
HETATM   15  C3  UNL     1      18.751  21.606  20.232  1.00  0.00     0.003 C 
BRANCH  15  16
HETATM   16  C2  UNL     1      20.218  21.217  19.924  1.00  0.00    -0.004 C 
HETATM   17  C1  UNL     1      20.505  21.354  18.460  1.00  0.00     0.005 C 
ENDBRANCH  15  16
ENDBRANCH  14  15
ENDBRANCH   1  14
BRANCH   1  18
HETATM   18  C6  UNL     1      18.274  18.294  21.161  1.00  0.00     0.041 C 
BRANCH  18  19
HETATM   19  C7  UNL     1      19.608  18.409  21.845  1.00  0.00     0.003 C 
BRANCH  19  20
HETATM   20  C8  UNL     1      20.145  17.035  22.190  1.00  0.00     0.000 C 
BRANCH  20  21
HETATM   21  C9  UNL     1      20.621  16.913  23.591  1.00  0.00     0.000 C 
BRANCH  21  22
HETATM   22  C10 UNL     1      21.368  18.158  23.988  1.00  0.00     0.001 C 
BRANCH  22  23
HETATM   23  C11 UNL     1      21.452  18.290  25.468  1.00  0.00     0.008 C 
BRANCH  23  24
HETATM   24  C12 UNL     1      20.425  19.256  26.028  1.00  0.00    -0.051 C 
HETATM   25  C13 UNL     1      21.109  20.063  27.115  1.00  0.00     0.014 C 
HETATM   26  C14 UNL     1      19.287  18.495  26.674  1.00  0.00     0.014 C 
HETATM   27  C15 UNL     1      19.878  20.181  24.969  1.00  0.00     0.014 C 
ENDBRANCH  23  24
ENDBRANCH  22  23
ENDBRANCH  21  22
ENDBRANCH  20  21
ENDBRANCH  19  20
ENDBRANCH  18  19
ENDBRANCH   1  18
BRANCH  13  28
HETATM   28  O7  UNL     1      16.723  19.318  23.382  1.00  0.00    -0.390 OA
ATOM     29  H7  UNL     1      17.663  19.417  23.482  1.00  0.00     0.210 HD
ENDBRANCH  13  28
BRANCH  10  30
HETATM   30  O6  UNL     1      11.776  20.449  21.768  1.00  0.00    -0.393 OA
ATOM     31  H6  UNL     1      12.015  19.583  22.075  1.00  0.00     0.210 HD
ENDBRANCH  10  30
BRANCH   7  32
HETATM   32  O3  UNL     1      15.190  24.936  20.850  1.00  0.00    -0.391 OA
ATOM     33  H3  UNL     1      14.706  25.229  20.087  1.00  0.00     0.210 HD
ENDBRANCH   7  32
BRANCH   9  34
HETATM   34  O5  UNL     1      11.429  22.769  22.420  1.00  0.00    -0.390 OA
ATOM     35  H5  UNL     1      11.135  22.103  23.030  1.00  0.00     0.210 HD
ENDBRANCH   9  34
BRANCH   8  36
HETATM   36  O4  UNL     1      12.654  23.643  20.080  1.00  0.00    -0.390 OA
ATOM     37  H4  UNL     1      11.923  23.036  20.072  1.00  0.00     0.210 HD
ENDBRANCH   8  36
TORSDOF 15
ENDMDL
MODEL 4
REMARK VINA RESULT: -7.401372973      1.091      1.873
REMARK  15 active torsions:
REMARK  status: ('A' for Active; 'I' for Inactive)
REMARK    1  A    between atoms: C2_2  and  C3_3 
REMARK    2  A    between atoms: C3_3  and  C4_4 
REMARK    3  A    between atoms: C4_4  and  C5_5 
REMARK    4  A    between atoms: C5_5  and  C6_6 
REMARK    5  A    between atoms: C6_6  and  C7_7 
REMARK    6  A    between atoms: C7_7  and  C8_8 
REMARK    7  A    between atoms: C8_8  and  C9_9 
REMARK    8  A    between atoms: C9_9  and  C10_10 
REMARK    9  A    between atoms: C10_10  and  C11_11 
REMARK   10  A    between atoms: C11_11  and  C12_12 
REMARK   11  A    between atoms: C18_21  and  O3_22 
REMARK   12  A    between atoms: C19_24  and  O4_25 
REMARK   13  A    between atoms: C20_27  and  O5_28 
REMARK   14  A    between atoms: C21_30  and  O6_31 
REMARK   15  A    between atoms: C24_35  and  O7_36 
ROOT
HETATM    1  C5  UNL     1      17.424  19.474  21.125  1.00  0.00     0.100 C 
HETATM    2  O1  UNL     1      16.883  19.641  19.798  1.00  0.00    -0.290 OA
HETATM    3  C16 UNL     1      15.847  20.532  19.627  1.00  0.00     0.364 C 
HETATM    4  O2  UNL     1      15.273  20.687  18.489  1.00  0.00    -0.238 OA
HETATM    5  N1  UNL     1      15.409  21.292  20.741  1.00  0.00    -0.318 N 
HETATM    6  C17 UNL     1      15.096  22.594  20.129  1.00  0.00     0.163 C 
HETATM    7  C18 UNL     1      14.702  23.518  21.261  1.00  0.00     0.167 C 
HETATM    8  C19 UNL     1      13.206  23.521  21.483  1.00  0.00     0.179 C 
HETATM    9  C20 UNL     1      12.750  22.392  22.345  1.00  0.00     0.178 C 
HETATM   10  C21 UNL     1      12.917  21.031  21.727  1.00  0.00     0.151 C 
HETATM   11  C22 UNL     1      14.002  20.287  22.415  1.00  0.00     0.062 C 
HETATM   12  C23 UNL     1      15.403  20.662  22.030  1.00  0.00     0.123 C 
HETATM   13  C24 UNL     1      16.296  19.446  22.075  1.00  0.00     0.176 C 
ENDROOT
BRANCH   1  14
HETATM   14  C4  UNL     1      18.321  20.637  21.340  1.00  0.00     0.041 C 
BRANCH  14  15
HETATM   15  C3  UNL     1      18.607  21.494  20.134  1.00  0.00     0.003 C 
BRANCH  15  16
HETATM   16  C2  UNL     1      20.137  21.365  19.938  1.00  0.00    -0.004 C 
HETATM   17  C1  UNL     1      20.486  21.372  18.481  1.00  0.00     0.005 C 
ENDBRANCH  15  16
ENDBRANCH  14  15
ENDBRANCH   1  14
BRANCH   1  18
HETATM   18  C6  UNL     1      18.188  18.164  21.056  1.00  0.00     0.041 C 
BRANCH  18  19
HETATM   19  C7  UNL     1      19.639  18.341  21.408  1.00  0.00     0.003 C 
BRANCH  19  20
HETATM   20  C8  UNL     1      19.908  17.830  22.808  1.00  0.00     0.000 C 
BRANCH  20  21
HETATM   21  C9  UNL     1      20.504  18.846  23.712  1.00  0.00     0.000 C 
BRANCH  21  22
HETATM   22  C10 UNL     1      20.247  18.467  25.147  1.00  0.00     0.001 C 
BRANCH  22  23
HETATM   23  C11 UNL     1      19.999  17.006  25.285  1.00  0.00     0.008 C 
BRANCH  23  24
HETATM   24  C12 UNL     1      18.799  16.698  26.161  1.00  0.00    -0.051 C 
HETATM   25  C13 UNL     1      18.497  17.944  26.970  1.00  0.00     0.014 C 
HETATM   26  C14 UNL     1      19.134  15.591  27.137  1.00  0.00     0.014 C 
HETATM   27  C15 UNL     1      17.589  16.306  25.350  1.00  0.00     0.014 C 
ENDBRANCH  23  24
ENDBRANCH  22  23
ENDBRANCH  21  22
ENDBRANCH  20  21
ENDBRANCH  19  20
ENDBRANCH  18  19
ENDBRANCH   1  18
BRANCH  13  28
HETATM   28  O7  UNL     1      16.741  19.170  23.354  1.00  0.00    -0.390 OA
ATOM     29  H7  UNL     1      16.691  18.239  23.535  1.00  0.00     0.210 HD
ENDBRANCH  13  28
BRANCH  10  30
HETATM   30  O6  UNL     1      11.724  20.311  21.979  1.00  0.00    -0.393 OA
ATOM     31  H6  UNL     1      11.822  19.896  22.827  1.00  0.00     0.210 HD
ENDBRANCH  10  30
BRANCH   7  32
HETATM   32  O3  UNL     1      15.091  24.807  20.938  1.00  0.00    -0.391 OA
ATOM     33  H3  UNL     1      16.040  24.850  20.948  1.00  0.00     0.210 HD
ENDBRANCH   7  32
BRANCH   9  34
HETATM   34  O5  UNL     1      11.407  22.626  22.664  1.00  0.00    -0.390 OA
ATOM     35  H5  UNL     1      11.390  23.078  23.499  1.00  0.00     0.210 HD
ENDBRANCH   9  34
BRANCH   8  36
HETATM   36  O4  UNL     1      12.522  23.518  20.276  1.00  0.00    -0.390 OA
ATOM     37  H4  UNL     1      12.258  22.638  20.035  1.00  0.00     0.210 HD
ENDBRANCH   8  36
TORSDOF 15
ENDMDL
MODEL 5
REMARK VINA RESULT: -7.374899568      2.195      4.347
REMARK  15 active torsions:
REMARK  status: ('A' for Active; 'I' for Inactive)
REMARK    1  A    between atoms: C2_2  and  C3_3 
REMARK    2  A    between atoms: C3_3  and  C4_4 
REMARK    3  A    between atoms: C4_4  and  C5_5 
REMARK    4  A    between atoms: C5_5  and  C6_6 
REMARK    5  A    between atoms: C6_6  and  C7_7 
REMARK    6  A    between atoms: C7_7  and  C8_8 
REMARK    7  A    between atoms: C8_8  and  C9_9 
REMARK    8  A    between atoms: C9_9  and  C10_10 
REMARK    9  A    between atoms: C10_10  and  C11_11 
REMARK   10  A    between atoms: C11_11  and  C12_12 
REMARK   11  A    between atoms: C18_21  and  O3_22 
REMARK   12  A    between atoms: C19_24  and  O4_25 
REMARK   13  A    between atoms: C20_27  and  O5_28 
REMARK   14  A    between atoms: C21_30  and  O6_31 
REMARK   15  A    between atoms: C24_35  and  O7_36 
ROOT
HETATM    1  C5  UNL     1      17.487  19.433  21.236  1.00  0.00     0.100 C 
HETATM    2  O1  UNL     1      17.010  19.569  19.881  1.00  0.00    -0.290 OA
HETATM    3  C16 UNL     1      16.000  20.472  19.637  1.00  0.00     0.364 C 
HETATM    4  O2  UNL     1      15.481  20.602  18.470  1.00  0.00    -0.238 OA
HETATM    5  N1  UNL     1      15.526  21.273  20.707  1.00  0.00    -0.318 N 
HETATM    6  C17 UNL     1      15.266  22.562  20.043  1.00  0.00     0.163 C 
HETATM    7  C18 UNL     1      14.839  23.525  21.128  1.00  0.00     0.167 C 
HETATM    8  C19 UNL     1      13.334  23.562  21.281  1.00  0.00     0.179 C 
HETATM    9  C20 UNL     1      12.819  22.468  22.154  1.00  0.00     0.178 C 
HETATM   10  C21 UNL     1      12.988  21.086  21.585  1.00  0.00     0.151 C 
HETATM   11  C22 UNL     1      14.027  20.344  22.343  1.00  0.00     0.062 C 
HETATM   12  C23 UNL     1      15.450  20.683  22.012  1.00  0.00     0.123 C 
HETATM   13  C24 UNL     1      16.318  19.453  22.134  1.00  0.00     0.176 C 
ENDROOT
BRANCH   1  14
HETATM   14  C4  UNL     1      18.396  20.585  21.457  1.00  0.00     0.041 C 
BRANCH  14  15
HETATM   15  C3  UNL     1      19.852  20.359  21.146  1.00  0.00     0.003 C 
BRANCH  15  16
HETATM   16  C2  UNL     1      20.231  21.554  20.237  1.00  0.00    -0.004 C 
HETATM   17  C1  UNL     1      20.176  21.158  18.793  1.00  0.00     0.005 C 
ENDBRANCH  15  16
ENDBRANCH  14  15
ENDBRANCH   1  14
BRANCH   1  18
HETATM   18  C6  UNL     1      18.229  18.108  21.241  1.00  0.00     0.041 C 
BRANCH  18  19
HETATM   19  C7  UNL     1      17.326  16.958  20.891  1.00  0.00     0.003 C 
BRANCH  19  20
HETATM   20  C8  UNL     1      17.428  15.869  21.939  1.00  0.00     0.000 C 
BRANCH  20  21
HETATM   21  C9  UNL     1      16.184  15.677  22.727  1.00  0.00     0.000 C 
BRANCH  21  22
HETATM   22  C10 UNL     1      14.991  16.088  21.907  1.00  0.00     0.001 C 
BRANCH  22  23
HETATM   23  C11 UNL     1      13.733  15.512  22.455  1.00  0.00     0.008 C 
BRANCH  23  24
HETATM   24  C12 UNL     1      12.972  14.689  21.432  1.00  0.00    -0.051 C 
HETATM   25  C13 UNL     1      13.016  13.245  21.891  1.00  0.00     0.014 C 
HETATM   26  C14 UNL     1      13.662  14.760  20.086  1.00  0.00     0.014 C 
HETATM   27  C15 UNL     1      11.540  15.140  21.290  1.00  0.00     0.014 C 
ENDBRANCH  23  24
ENDBRANCH  22  23
ENDBRANCH  21  22
ENDBRANCH  20  21
ENDBRANCH  19  20
ENDBRANCH  18  19
ENDBRANCH   1  18
BRANCH  13  28
HETATM   28  O7  UNL     1      16.699  19.209  23.440  1.00  0.00    -0.390 OA
ATOM     29  H7  UNL     1      16.005  19.449  24.043  1.00  0.00     0.210 HD
ENDBRANCH  13  28
BRANCH  10  30
HETATM   30  O6  UNL     1      11.771  20.395  21.803  1.00  0.00    -0.393 OA
ATOM     31  H6  UNL     1      11.307  20.380  20.974  1.00  0.00     0.210 HD
ENDBRANCH  10  30
BRANCH   7  32
HETATM   32  O3  UNL     1      15.266  24.797  20.785  1.00  0.00    -0.391 OA
ATOM     33  H3  UNL     1      15.413  24.826  19.847  1.00  0.00     0.210 HD
ENDBRANCH   7  32
BRANCH   9  34
HETATM   34  O5  UNL     1      11.468  22.735  22.404  1.00  0.00    -0.390 OA
ATOM     35  H5  UNL     1      11.394  23.662  22.596  1.00  0.00     0.210 HD
ENDBRANCH   9  34
BRANCH   8  36
HETATM   36  O4  UNL     1      12.707  23.534  20.044  1.00  0.00    -0.390 OA
ATOM     37  H4  UNL     1      11.870  23.087  20.096  1.00  0.00     0.210 HD
ENDBRANCH   8  36
TORSDOF 15
ENDMDL
