MODEL 1
REMARK VINA RESULT: -7.388622192      0.000      0.000
REMARK  15 active torsions:
REMARK  status: ('A' for Active; 'I' for Inactive)
REMARK    1  A    between atoms: C2_2  and  C3_3 
REMARK    2  A    between atoms: C4_4  and  C5_5 
REMARK    3  A    between atoms: C5_5  and  C6_6 
REMARK    4  A    between atoms: C5_5  and  C8_8 
REMARK    5  A    between atoms: C5_5  and  C13_13 
REMARK    6  A    between atoms: C8_8  and  C9_9 
REMARK    7  A    between atoms: C13_13  and  C14_14 
REMARK    8  A    between atoms: C14_14  and  O2_16 
REMARK    9  A    between atoms: O2_16  and  C15_17 
REMARK   10  A    between atoms: C15_17  and  C16_18 
REMARK   11  A    between atoms: C18_20  and  N1_21 
REMARK       I    between atoms: N1_21  and  C19_23 
REMARK   12  A    between atoms: C21_26  and  O4_27 
REMARK   13  A    between atoms: C22_29  and  O5_30 
REMARK   14  A    between atoms: C23_32  and  O6_33 
REMARK   15  A    between atoms: C24_35  and  O7_36 
ROOT
HETATM    1  C16 UNL     1      16.603  19.451  20.843  1.00  0.00     0.043 C 
HETATM    2  C17 UNL     1      15.590  19.360  19.755  1.00  0.00     0.037 C 
HETATM    3  C18 UNL     1      15.311  20.633  19.008  1.00  0.00     0.116 C 
HETATM    4  C21 UNL     1      14.307  21.479  19.747  1.00  0.00     0.172 C 
HETATM    5  C22 UNL     1      14.735  21.954  21.084  1.00  0.00     0.180 C 
HETATM    6  C23 UNL     1      14.910  20.853  22.106  1.00  0.00     0.178 C 
HETATM    7  C24 UNL     1      16.293  20.304  21.996  1.00  0.00     0.155 C 
ENDROOT
BRANCH   1   8
HETATM    8  C15 UNL     1      16.993  18.027  21.192  1.00  0.00     0.185 C 
BRANCH   8   9
HETATM    9  O2  UNL     1      18.385  17.858  21.278  1.00  0.00    -0.321 OA
BRANCH   9  10
HETATM   10  C14 UNL     1      18.942  17.536  22.540  1.00  0.00     0.259 C 
HETATM   11  O1  UNL     1      18.119  16.988  23.308  1.00  0.00    -0.265 OA
BRANCH  10  12
HETATM   12  C13 UNL     1      20.328  17.834  22.855  1.00  0.00     0.124 C 
BRANCH  12  13
HETATM   13  C5  UNL     1      20.714  19.257  23.141  1.00  0.00    -0.011 C 
BRANCH  13  14
HETATM   14  C4  UNL     1      20.404  19.934  21.782  1.00  0.00    -0.020 C 
HETATM   15  C3  UNL     1      19.744  21.045  21.650  1.00  0.00    -0.030 C 
BRANCH  15  16
HETATM   16  C2  UNL     1      19.475  21.654  20.300  1.00  0.00     0.022 C 
HETATM   17  C1  UNL     1      20.356  21.013  19.253  1.00  0.00     0.009 C 
ENDBRANCH  15  16
ENDBRANCH  13  14
BRANCH  13  18
HETATM   18  C6  UNL     1      22.145  19.523  23.383  1.00  0.00     0.010 C 
HETATM   19  C7  UNL     1      22.983  18.625  24.182  1.00  0.00     0.006 C 
ENDBRANCH  13  18
BRANCH  13  20
HETATM   20  C8  UNL     1      19.726  19.882  24.069  1.00  0.00     0.041 C 
BRANCH  20  21
HETATM   21  C9  UNL     1      20.329  20.462  25.265  1.00  0.00    -0.024 C 
HETATM   22  C10 UNL     1      20.316  19.841  26.424  1.00  0.00    -0.091 C 
HETATM   23  C11 UNL     1      20.955  20.472  27.648  1.00  0.00     0.042 C 
HETATM   24  C12 UNL     1      19.663  18.521  26.589  1.00  0.00     0.042 C 
ENDBRANCH  20  21
ENDBRANCH  13  20
ENDBRANCH  12  13
ENDBRANCH  10  12
ENDBRANCH   9  10
ENDBRANCH   8   9
ENDBRANCH   1   8
BRANCH   7  25
HETATM   25  O7  UNL     1      16.569  19.646  23.218  1.00  0.00    -0.392 OA
ATOM     26  H7  UNL     1      17.256  20.086  23.704  1.00  0.00     0.210 HD
ENDBRANCH   7  25
BRANCH   3  27
HETATM   27  N1  UNL     1      16.465  21.323  18.550  1.00  0.00    -0.354 N 
HETATM   28  C19 UNL     1      16.750  21.476  17.188  1.00  0.00     0.214 C 
HETATM   29  C20 UNL     1      17.926  22.179  16.639  1.00  0.00     0.117 C 
HETATM   30  O3  UNL     1      15.946  20.977  16.339  1.00  0.00    -0.274 OA
ATOM     31  H1  UNL     1      17.107  21.721  19.236  1.00  0.00     0.162 HD
ENDBRANCH   3  27
BRANCH   6  32
HETATM   32  O6  UNL     1      13.899  19.934  22.134  1.00  0.00    -0.390 OA
ATOM     33  H6  UNL     1      13.251  20.077  22.814  1.00  0.00     0.210 HD
ENDBRANCH   6  32
BRANCH   4  34
HETATM   34  O4  UNL     1      13.937  22.582  18.982  1.00  0.00    -0.391 OA
ATOM     35  H4  UNL     1      12.997  22.716  19.021  1.00  0.00     0.210 HD
ENDBRANCH   4  34
BRANCH   5  36
HETATM   36  O5  UNL     1      15.853  22.751  21.062  1.00  0.00    -0.390 OA
ATOM     37  H5  UNL     1      16.374  22.708  21.854  1.00  0.00     0.210 HD
ENDBRANCH   5  36
TORSDOF 15
ENDMDL
MODEL 2
REMARK VINA RESULT: -7.105125316      2.602      7.529
REMARK  15 active torsions:
REMARK  status: ('A' for Active; 'I' for Inactive)
REMARK    1  A    between atoms: C2_2  and  C3_3 
REMARK    2  A    between atoms: C4_4  and  C5_5 
REMARK    3  A    between atoms: C5_5  and  C6_6 
REMARK    4  A    between atoms: C5_5  and  C8_8 
REMARK    5  A    between atoms: C5_5  and  C13_13 
REMARK    6  A    between atoms: C8_8  and  C9_9 
REMARK    7  A    between atoms: C13_13  and  C14_14 
REMARK    8  A    between atoms: C14_14  and  O2_16 
REMARK    9  A    between atoms: O2_16  and  C15_17 
REMARK   10  A    between atoms: C15_17  and  C16_18 
REMARK   11  A    between atoms: C18_20  and  N1_21 
REMARK       I    between atoms: N1_21  and  C19_23 
REMARK   12  A    between atoms: C21_26  and  O4_27 
REMARK   13  A    between atoms: C22_29  and  O5_30 
REMARK   14  A    between atoms: C23_32  and  O6_33 
REMARK   15  A    between atoms: C24_35  and  O7_36 
ROOT
HETATM    1  C16 UNL     1      19.386  18.257  23.414  1.00  0.00     0.043 C 
HETATM    2  C17 UNL     1      19.841  19.614  23.825  1.00  0.00     0.037 C 
HETATM    3  C18 UNL     1      20.983  19.660  24.799  1.00  0.00     0.116 C 
HETATM    4  C21 UNL     1      20.487  19.499  26.213  1.00  0.00     0.172 C 
HETATM    5  C22 UNL     1      19.831  18.204  26.515  1.00  0.00     0.180 C 
HETATM    6  C23 UNL     1      18.525  17.987  25.783  1.00  0.00     0.178 C 
HETATM    7  C24 UNL     1      18.812  17.387  24.447  1.00  0.00     0.155 C 
ENDROOT
BRANCH   1   8
HETATM    8  C15 UNL     1      18.519  18.443  22.184  1.00  0.00     0.185 C 
BRANCH   8   9
HETATM    9  O2  UNL     1      17.320  19.117  22.469  1.00  0.00    -0.321 OA
BRANCH   9  10
HETATM   10  C14 UNL     1      16.269  19.039  21.523  1.00  0.00     0.259 C 
HETATM   11  O1  UNL     1      15.196  18.631  22.023  1.00  0.00    -0.265 OA
BRANCH  10  12
HETATM   12  C13 UNL     1      16.470  19.406  20.132  1.00  0.00     0.124 C 
BRANCH  12  13
HETATM   13  C5  UNL     1      16.504  20.862  19.767  1.00  0.00    -0.011 C 
BRANCH  13  14
HETATM   14  C4  UNL     1      17.999  21.050  19.407  1.00  0.00    -0.020 C 
HETATM   15  C3  UNL     1      18.940  21.274  20.274  1.00  0.00    -0.030 C 
BRANCH  15  16
HETATM   16  C2  UNL     1      20.377  21.448  19.861  1.00  0.00     0.022 C 
HETATM   17  C1  UNL     1      20.492  21.440  18.354  1.00  0.00     0.009 C 
ENDBRANCH  15  16
ENDBRANCH  13  14
BRANCH  13  18
HETATM   18  C6  UNL     1      16.247  21.827  20.852  1.00  0.00     0.010 C 
HETATM   19  C7  UNL     1      14.960  22.512  21.001  1.00  0.00     0.006 C 
ENDBRANCH  13  18
BRANCH  13  20
HETATM   20  C8  UNL     1      15.808  21.081  18.464  1.00  0.00     0.041 C 
BRANCH  20  21
HETATM   21  C9  UNL     1      16.703  21.469  17.378  1.00  0.00    -0.024 C 
HETATM   22  C10 UNL     1      16.353  21.362  16.115  1.00  0.00    -0.091 C 
HETATM   23  C11 UNL     1      17.308  21.777  15.010  1.00  0.00     0.042 C 
HETATM   24  C12 UNL     1      15.034  20.817  15.719  1.00  0.00     0.042 C 
ENDBRANCH  20  21
ENDBRANCH  13  20
ENDBRANCH  12  13
ENDBRANCH  10  12
ENDBRANCH   9  10
ENDBRANCH   8   9
ENDBRANCH   1   8
BRANCH   7  25
HETATM   25  O7  UNL     1      17.612  16.781  24.006  1.00  0.00    -0.392 OA
ATOM     26  H7  UNL     1      17.532  15.891  24.327  1.00  0.00     0.210 HD
ENDBRANCH   7  25
BRANCH   3  27
HETATM   27  N1  UNL     1      22.098  18.851  24.452  1.00  0.00    -0.354 N 
HETATM   28  C19 UNL     1      23.415  19.316  24.554  1.00  0.00     0.214 C 
HETATM   29  C20 UNL     1      24.621  18.535  24.213  1.00  0.00     0.117 C 
HETATM   30  O3  UNL     1      23.612  20.501  24.970  1.00  0.00    -0.274 OA
ATOM     31  H1  UNL     1      21.935  17.901  24.118  1.00  0.00     0.162 HD
ENDBRANCH   3  27
BRANCH   6  32
HETATM   32  O6  UNL     1      17.680  19.059  25.792  1.00  0.00    -0.390 OA
ATOM     33  H6  UNL     1      16.825  18.894  25.413  1.00  0.00     0.210 HD
ENDBRANCH   6  32
BRANCH   4  34
HETATM   34  O4  UNL     1      21.524  19.692  27.122  1.00  0.00    -0.391 OA
ATOM     35  H4  UNL     1      22.126  18.958  27.104  1.00  0.00     0.210 HD
ENDBRANCH   4  34
BRANCH   5  36
HETATM   36  O5  UNL     1      20.647  17.112  26.347  1.00  0.00    -0.390 OA
ATOM     37  H5  UNL     1      20.187  16.282  26.358  1.00  0.00     0.210 HD
ENDBRANCH   5  36
TORSDOF 15
ENDMDL
MODEL 3
REMARK VINA RESULT: -6.994486971      1.316      2.741
REMARK  15 active torsions:
REMARK  status: ('A' for Active; 'I' for Inactive)
REMARK    1  A    between atoms: C2_2  and  C3_3 
REMARK    2  A    between atoms: C4_4  and  C5_5 
REMARK    3  A    between atoms: C5_5  and  C6_6 
REMARK    4  A    between atoms: C5_5  and  C8_8 
REMARK    5  A    between atoms: C5_5  and  C13_13 
REMARK    6  A    between atoms: C8_8  and  C9_9 
REMARK    7  A    between atoms: C13_13  and  C14_14 
REMARK    8  A    between atoms: C14_14  and  O2_16 
REMARK    9  A    between atoms: O2_16  and  C15_17 
REMARK   10  A    between atoms: C15_17  and  C16_18 
REMARK   11  A    between atoms: C18_20  and  N1_21 
REMARK       I    between atoms: N1_21  and  C19_23 
REMARK   12  A    between atoms: C21_26  and  O4_27 
REMARK   13  A    between atoms: C22_29  and  O5_30 
REMARK   14  A    between atoms: C23_32  and  O6_33 
REMARK   15  A    between atoms: C24_35  and  O7_36 
ROOT
HETATM    1  C16 UNL     1      16.711  19.681  20.798  1.00  0.00     0.043 C 
HETATM    2  C17 UNL     1      15.775  19.412  19.672  1.00  0.00     0.037 C 
HETATM    3  C18 UNL     1      15.525  20.559  18.734  1.00  0.00     0.116 C 
HETATM    4  C21 UNL     1      14.461  21.475  19.279  1.00  0.00     0.172 C 
HETATM    5  C22 UNL     1      14.791  22.145  20.559  1.00  0.00     0.180 C 
HETATM    6  C23 UNL     1      14.915  21.204  21.737  1.00  0.00     0.178 C 
HETATM    7  C24 UNL     1      16.312  20.681  21.795  1.00  0.00     0.155 C 
ENDROOT
BRANCH   1   8
HETATM    8  C15 UNL     1      17.101  18.332  21.371  1.00  0.00     0.185 C 
BRANCH   8   9
HETATM    9  O2  UNL     1      18.379  17.923  20.958  1.00  0.00    -0.321 OA
BRANCH   9  10
HETATM   10  C14 UNL     1      19.489  18.722  21.329  1.00  0.00     0.259 C 
HETATM   11  O1  UNL     1      20.241  18.984  20.363  1.00  0.00    -0.265 OA
BRANCH  10  12
HETATM   12  C13 UNL     1      19.683  19.161  22.700  1.00  0.00     0.124 C 
BRANCH  12  13
HETATM   13  C5  UNL     1      20.020  18.138  23.745  1.00  0.00    -0.011 C 
BRANCH  13  14
HETATM   14  C4  UNL     1      20.689  19.021  24.829  1.00  0.00    -0.020 C 
HETATM   15  C3  UNL     1      20.335  20.240  25.103  1.00  0.00    -0.030 C 
BRANCH  15  16
HETATM   16  C2  UNL     1      21.024  21.048  26.170  1.00  0.00     0.022 C 
HETATM   17  C1  UNL     1      21.047  20.281  27.472  1.00  0.00     0.009 C 
ENDBRANCH  15  16
ENDBRANCH  13  14
BRANCH  13  18
HETATM   18  C6  UNL     1      21.038  17.132  23.389  1.00  0.00     0.010 C 
HETATM   19  C7  UNL     1      22.307  17.013  24.113  1.00  0.00     0.006 C 
ENDBRANCH  13  18
BRANCH  13  20
HETATM   20  C8  UNL     1      18.775  17.658  24.415  1.00  0.00     0.041 C 
BRANCH  20  21
HETATM   21  C9  UNL     1      18.959  16.432  25.187  1.00  0.00    -0.024 C 
HETATM   22  C10 UNL     1      18.811  16.403  26.494  1.00  0.00    -0.091 C 
HETATM   23  C11 UNL     1      19.007  15.111  27.266  1.00  0.00     0.042 C 
HETATM   24  C12 UNL     1      18.473  17.622  27.263  1.00  0.00     0.042 C 
ENDBRANCH  20  21
ENDBRANCH  13  20
ENDBRANCH  12  13
ENDBRANCH  10  12
ENDBRANCH   9  10
ENDBRANCH   8   9
ENDBRANCH   1   8
BRANCH   7  25
HETATM   25  O7  UNL     1      16.516  20.210  23.113  1.00  0.00    -0.392 OA
ATOM     26  H7  UNL     1      15.860  20.550  23.711  1.00  0.00     0.210 HD
ENDBRANCH   7  25
BRANCH   3  27
HETATM   27  N1  UNL     1      16.696  21.207  18.257  1.00  0.00    -0.354 N 
HETATM   28  C19 UNL     1      16.850  21.571  16.914  1.00  0.00     0.214 C 
HETATM   29  C20 UNL     1      18.035  22.246  16.347  1.00  0.00     0.117 C 
HETATM   30  O3  UNL     1      15.909  21.309  16.100  1.00  0.00    -0.274 OA
ATOM     31  H1  UNL     1      17.449  21.414  18.914  1.00  0.00     0.162 HD
ENDBRANCH   3  27
BRANCH   6  32
HETATM   32  O6  UNL     1      13.920  20.273  21.832  1.00  0.00    -0.390 OA
ATOM     33  H6  UNL     1      13.052  20.598  21.627  1.00  0.00     0.210 HD
ENDBRANCH   6  32
BRANCH   4  34
HETATM   34  O4  UNL     1      14.124  22.449  18.343  1.00  0.00    -0.391 OA
ATOM     35  H4  UNL     1      13.285  22.841  18.554  1.00  0.00     0.210 HD
ENDBRANCH   4  34
BRANCH   5  36
HETATM   36  O5  UNL     1      15.895  22.959  20.495  1.00  0.00    -0.390 OA
ATOM     37  H5  UNL     1      16.698  22.504  20.274  1.00  0.00     0.210 HD
ENDBRANCH   5  36
TORSDOF 15
ENDMDL
MODEL 4
REMARK VINA RESULT: -6.930872525      1.762      3.230
REMARK  15 active torsions:
REMARK  status: ('A' for Active; 'I' for Inactive)
REMARK    1  A    between atoms: C2_2  and  C3_3 
REMARK    2  A    between atoms: C4_4  and  C5_5 
REMARK    3  A    between atoms: C5_5  and  C6_6 
REMARK    4  A    between atoms: C5_5  and  C8_8 
REMARK    5  A    between atoms: C5_5  and  C13_13 
REMARK    6  A    between atoms: C8_8  and  C9_9 
REMARK    7  A    between atoms: C13_13  and  C14_14 
REMARK    8  A    between atoms: C14_14  and  O2_16 
REMARK    9  A    between atoms: O2_16  and  C15_17 
REMARK   10  A    between atoms: C15_17  and  C16_18 
REMARK   11  A    between atoms: C18_20  and  N1_21 
REMARK       I    between atoms: N1_21  and  C19_23 
REMARK   12  A    between atoms: C21_26  and  O4_27 
REMARK   13  A    between atoms: C22_29  and  O5_30 
REMARK   14  A    between atoms: C23_32  and  O6_33 
REMARK   15  A    between atoms: C24_35  and  O7_36 
ROOT
HETATM    1  C16 UNL     1      17.034  19.906  20.406  1.00  0.00     0.043 C 
HETATM    2  C17 UNL     1      15.777  19.643  19.651  1.00  0.00     0.037 C 
HETATM    3  C18 UNL     1      15.231  20.796  18.859  1.00  0.00     0.116 C 
HETATM    4  C21 UNL     1      14.406  21.704  19.734  1.00  0.00     0.172 C 
HETATM    5  C22 UNL     1      15.141  22.365  20.839  1.00  0.00     0.180 C 
HETATM    6  C23 UNL     1      15.649  21.415  21.901  1.00  0.00     0.178 C 
HETATM    7  C24 UNL     1      16.986  20.896  21.488  1.00  0.00     0.155 C 
ENDROOT
BRANCH   1   8
HETATM    8  C15 UNL     1      17.592  18.554  20.806  1.00  0.00     0.185 C 
BRANCH   8   9
HETATM    9  O2  UNL     1      18.985  18.578  20.981  1.00  0.00    -0.321 OA
BRANCH   9  10
HETATM   10  C14 UNL     1      19.563  17.632  21.863  1.00  0.00     0.259 C 
HETATM   11  O1  UNL     1      19.402  16.451  21.481  1.00  0.00    -0.265 OA
BRANCH  10  12
HETATM   12  C13 UNL     1      20.259  18.045  23.070  1.00  0.00     0.124 C 
BRANCH  12  13
HETATM   13  C5  UNL     1      19.765  17.543  24.396  1.00  0.00    -0.011 C 
BRANCH  13  14
HETATM   14  C4  UNL     1      20.253  18.665  25.346  1.00  0.00    -0.020 C 
HETATM   15  C3  UNL     1      20.505  19.884  24.973  1.00  0.00    -0.030 C 
BRANCH  15  16
HETATM   16  C2  UNL     1      20.978  20.931  25.946  1.00  0.00     0.022 C 
HETATM   17  C1  UNL     1      20.973  20.378  27.352  1.00  0.00     0.009 C 
ENDBRANCH  15  16
ENDBRANCH  13  14
BRANCH  13  18
HETATM   18  C6  UNL     1      20.383  16.308  24.912  1.00  0.00     0.010 C 
HETATM   19  C7  UNL     1      21.315  16.314  26.044  1.00  0.00     0.006 C 
ENDBRANCH  13  18
BRANCH  13  20
HETATM   20  C8  UNL     1      18.278  17.657  24.467  1.00  0.00     0.041 C 
BRANCH  20  21
HETATM   21  C9  UNL     1      17.642  16.576  25.214  1.00  0.00    -0.024 C 
HETATM   22  C10 UNL     1      16.705  15.819  24.684  1.00  0.00    -0.091 C 
HETATM   23  C11 UNL     1      16.067  14.701  25.487  1.00  0.00     0.042 C 
HETATM   24  C12 UNL     1      16.223  16.038  23.301  1.00  0.00     0.042 C 
ENDBRANCH  20  21
ENDBRANCH  13  20
ENDBRANCH  12  13
ENDBRANCH  10  12
ENDBRANCH   9  10
ENDBRANCH   8   9
ENDBRANCH   1   8
BRANCH   7  25
HETATM   25  O7  UNL     1      17.615  20.414  22.660  1.00  0.00    -0.392 OA
ATOM     26  H7  UNL     1      18.021  21.118  23.153  1.00  0.00     0.210 HD
ENDBRANCH   7  25
BRANCH   3  27
HETATM   27  N1  UNL     1      16.177  21.452  18.027  1.00  0.00    -0.354 N 
HETATM   28  C19 UNL     1      15.880  21.820  16.709  1.00  0.00     0.214 C 
HETATM   29  C20 UNL     1      16.810  22.504  15.788  1.00  0.00     0.117 C 
HETATM   30  O3  UNL     1      14.726  21.555  16.248  1.00  0.00    -0.274 OA
ATOM     31  H1  UNL     1      17.102  21.662  18.401  1.00  0.00     0.162 HD
ENDBRANCH   3  27
BRANCH   6  32
HETATM   32  O6  UNL     1      14.742  20.479  22.311  1.00  0.00    -0.390 OA
ATOM     33  H6  UNL     1      15.120  19.721  22.740  1.00  0.00     0.210 HD
ENDBRANCH   6  32
BRANCH   4  34
HETATM   34  O4  UNL     1      13.778  22.684  18.970  1.00  0.00    -0.391 OA
ATOM     35  H4  UNL     1      13.781  23.517  19.427  1.00  0.00     0.210 HD
ENDBRANCH   4  34
BRANCH   5  36
HETATM   36  O5  UNL     1      16.161  23.183  20.419  1.00  0.00    -0.390 OA
ATOM     37  H5  UNL     1      16.960  23.093  20.924  1.00  0.00     0.210 HD
ENDBRANCH   5  36
TORSDOF 15
ENDMDL
MODEL 5
REMARK VINA RESULT: -6.904424596      3.267      7.455
REMARK  15 active torsions:
REMARK  status: ('A' for Active; 'I' for Inactive)
REMARK    1  A    between atoms: C2_2  and  C3_3 
REMARK    2  A    between atoms: C4_4  and  C5_5 
REMARK    3  A    between atoms: C5_5  and  C6_6 
REMARK    4  A    between atoms: C5_5  and  C8_8 
REMARK    5  A    between atoms: C5_5  and  C13_13 
REMARK    6  A    between atoms: C8_8  and  C9_9 
REMARK    7  A    between atoms: C13_13  and  C14_14 
REMARK    8  A    between atoms: C14_14  and  O2_16 
REMARK    9  A    between atoms: O2_16  and  C15_17 
REMARK   10  A    between atoms: C15_17  and  C16_18 
REMARK   11  A    between atoms: C18_20  and  N1_21 
REMARK       I    between atoms: N1_21  and  C19_23 
REMARK   12  A    between atoms: C21_26  and  O4_27 
REMARK   13  A    between atoms: C22_29  and  O5_30 
REMARK   14  A    between atoms: C23_32  and  O6_33 
REMARK   15  A    between atoms: C24_35  and  O7_36 
ROOT
HETATM    1  C16 UNL     1      20.553  17.529  24.834  1.00  0.00     0.043 C 
HETATM    2  C17 UNL     1      21.381  18.182  23.782  1.00  0.00     0.037 C 
HETATM    3  C18 UNL     1      22.755  18.616  24.201  1.00  0.00     0.116 C 
HETATM    4  C21 UNL     1      22.711  19.964  24.874  1.00  0.00     0.172 C 
HETATM    5  C22 UNL     1      21.935  20.021  26.135  1.00  0.00     0.180 C 
HETATM    6  C23 UNL     1      20.449  19.798  25.959  1.00  0.00     0.178 C 
HETATM    7  C24 UNL     1      20.169  18.333  26.000  1.00  0.00     0.155 C 
ENDROOT
BRANCH   1   8
HETATM    8  C15 UNL     1      19.398  16.853  24.120  1.00  0.00     0.185 C 
BRANCH   8   9
HETATM    9  O2  UNL     1      18.930  17.601  23.027  1.00  0.00    -0.321 OA
BRANCH   9  10
HETATM   10  C14 UNL     1      17.585  18.045  23.048  1.00  0.00     0.259 C 
HETATM   11  O1  UNL     1      16.765  17.103  23.141  1.00  0.00    -0.265 OA
BRANCH  10  12
HETATM   12  C13 UNL     1      17.250  19.456  22.968  1.00  0.00     0.124 C 
BRANCH  12  13
HETATM   13  C5  UNL     1      17.024  20.069  21.616  1.00  0.00    -0.011 C 
BRANCH  13  14
HETATM   14  C4  UNL     1      15.545  20.516  21.729  1.00  0.00    -0.020 C 
HETATM   15  C3  UNL     1      15.148  21.753  21.697  1.00  0.00    -0.030 C 
BRANCH  15  16
HETATM   16  C2  UNL     1      13.694  22.124  21.811  1.00  0.00     0.022 C 
HETATM   17  C1  UNL     1      12.885  20.932  22.268  1.00  0.00     0.009 C 
ENDBRANCH  15  16
ENDBRANCH  13  14
BRANCH  13  18
HETATM   18  C6  UNL     1      17.062  19.158  20.457  1.00  0.00     0.010 C 
HETATM   19  C7  UNL     1      15.918  18.990  19.557  1.00  0.00     0.006 C 
ENDBRANCH  13  18
BRANCH  13  20
HETATM   20  C8  UNL     1      17.765  21.361  21.508  1.00  0.00     0.041 C 
BRANCH  20  21
HETATM   21  C9  UNL     1      18.464  21.531  20.237  1.00  0.00    -0.024 C 
HETATM   22  C10 UNL     1      19.710  21.144  20.070  1.00  0.00    -0.091 C 
HETATM   23  C11 UNL     1      20.406  21.333  18.734  1.00  0.00     0.042 C 
HETATM   24  C12 UNL     1      20.487  20.532  21.173  1.00  0.00     0.042 C 
ENDBRANCH  20  21
ENDBRANCH  13  20
ENDBRANCH  12  13
ENDBRANCH  10  12
ENDBRANCH   9  10
ENDBRANCH   8   9
ENDBRANCH   1   8
BRANCH   7  25
HETATM   25  O7  UNL     1      18.795  18.188  26.301  1.00  0.00    -0.392 OA
ATOM     26  H7  UNL     1      18.664  17.832  27.172  1.00  0.00     0.210 HD
ENDBRANCH   7  25
BRANCH   3  27
HETATM   27  N1  UNL     1      23.515  17.625  24.880  1.00  0.00    -0.354 N 
HETATM   28  C19 UNL     1      24.674  17.068  24.327  1.00  0.00     0.214 C 
HETATM   29  C20 UNL     1      25.513  16.038  24.972  1.00  0.00     0.117 C 
HETATM   30  O3  UNL     1      25.054  17.465  23.181  1.00  0.00    -0.274 OA
ATOM     31  H1  UNL     1      23.205  17.310  25.799  1.00  0.00     0.162 HD
ENDBRANCH   3  27
BRANCH   6  32
HETATM   32  O6  UNL     1      19.887  20.488  24.922  1.00  0.00    -0.390 OA
ATOM     33  H6  UNL     1      19.091  20.104  24.574  1.00  0.00     0.210 HD
ENDBRANCH   6  32
BRANCH   4  34
HETATM   34  O4  UNL     1      23.998  20.431  25.124  1.00  0.00    -0.391 OA
ATOM     35  H4  UNL     1      24.028  21.378  25.063  1.00  0.00     0.210 HD
ENDBRANCH   4  34
BRANCH   5  36
HETATM   36  O5  UNL     1      22.415  19.199  27.124  1.00  0.00    -0.390 OA
ATOM     37  H5  UNL     1      21.993  18.349  27.158  1.00  0.00     0.210 HD
ENDBRANCH   5  36
TORSDOF 15
ENDMDL
