MODEL 1
REMARK VINA RESULT: -7.227261640      0.000      0.000
REMARK  12 active torsions:
REMARK  status: ('A' for Active; 'I' for Inactive)
REMARK    1  A    between atoms: O1_2  and  C2_3 
REMARK       I    between atoms: C2_3  and  N1_5 
REMARK    2  A    between atoms: N1_5  and  O3_7 
REMARK    3  A    between atoms: O3_7  and  N2_8 
REMARK    4  A    between atoms: N2_8  and  O4_9 
REMARK    5  A    between atoms: N2_8  and  N3_11 
REMARK    6  A    between atoms: N3_11  and  C3_12 
REMARK    7  A    between atoms: C3_12  and  C4_13 
REMARK    8  A    between atoms: C7_20  and  N6_21 
REMARK    9  A    between atoms: N6_21  and  O6_22 
REMARK   10  A    between atoms: N6_21  and  O7_24 
REMARK   11  A    between atoms: N7_27  and  O8_29 
REMARK   12  A    between atoms: C12_36  and  O11_37 
ROOT
HETATM    1  C4  UNL     1      37.269   7.112  17.060  1.00  0.00     0.145 A 
HETATM    2  O5  UNL     1      36.960   7.063  18.377  1.00  0.00    -0.287 OA
HETATM    3  C5  UNL     1      37.213   5.984  19.067  1.00  0.00     0.168 A 
HETATM    4  N4  UNL     1      36.829   6.100  20.376  1.00  0.00    -0.323 N 
ATOM      5  H4  UNL     1      36.923   7.022  20.802  1.00  0.00     0.169 HD
HETATM    6  C6  UNL     1      36.338   5.112  21.160  1.00  0.00     0.146 C 
HETATM    7  N5  UNL     1      35.494   5.477  22.225  1.00  0.00    -0.080 NA
HETATM    8  C7  UNL     1      36.542   3.735  21.051  1.00  0.00     0.139 C 
HETATM    9  C8  UNL     1      37.516   3.101  20.275  1.00  0.00     0.134 C 
HETATM   10  N7  UNL     1      37.912   1.964  20.659  1.00  0.00    -0.263 N 
ATOM     11  H7  UNL     1      37.536   1.535  21.505  1.00  0.00     0.194 HD
HETATM   12  C9  UNL     1      38.083   3.642  19.114  1.00  0.00     0.221 C 
HETATM   13  O9  UNL     1      38.937   2.955  18.543  1.00  0.00    -0.285 OA
HETATM   14  C10 UNL     1      37.797   4.858  18.541  1.00  0.00     0.121 A 
HETATM   15  C11 UNL     1      38.148   4.851  17.197  1.00  0.00     0.226 A 
HETATM   16  O10 UNL     1      38.677   3.896  16.643  1.00  0.00    -0.284 OA
HETATM   17  C12 UNL     1      37.859   6.026  16.489  1.00  0.00     0.154 A 
ENDROOT
BRANCH   1  18
HETATM   18  C3  UNL     1      36.947   8.303  16.258  1.00  0.00     0.254 C 
BRANCH  18  19
HETATM   19  N3  UNL     1      36.264   8.196  15.102  1.00  0.00    -0.284 NA
BRANCH  19  20
HETATM   20  N2  UNL     1      35.616   7.913  14.153  1.00  0.00     0.041 N 
BRANCH  20  21
HETATM   21  O3  UNL     1      35.854   6.867  13.212  1.00  0.00    -0.096 OA
BRANCH  21  22
HETATM   22  N1  UNL     1      35.372   5.619  13.612  1.00  0.00    -0.180 N 
HETATM   23  C2  UNL     1      36.066   4.431  13.320  1.00  0.00     0.386 C 
HETATM   24  O2  UNL     1      37.162   4.404  12.680  1.00  0.00    -0.236 OA
ATOM     25  H1  UNL     1      34.495   5.568  14.129  1.00  0.00     0.202 HD
BRANCH  23  26
HETATM   26  O1  UNL     1      35.587   3.183  13.724  1.00  0.00    -0.307 OA
HETATM   27  C1  UNL     1      35.946   1.924  13.244  1.00  0.00     0.215 C 
ENDBRANCH  23  26
ENDBRANCH  21  22
ENDBRANCH  20  21
BRANCH  20  28
HETATM   28  O4  UNL     1      34.448   8.629  13.849  1.00  0.00    -0.236 OA
ATOM     29  H4  UNL     1      34.374   9.419  14.372  1.00  0.00     0.250 HD
ENDBRANCH  20  28
ENDBRANCH  19  20
ENDBRANCH  18  19
ENDBRANCH   1  18
BRANCH  17  30
HETATM   30  O11 UNL     1      38.202   6.055  15.111  1.00  0.00    -0.355 OA
ATOM     31  H11 UNL     1      38.209   5.247  14.611  1.00  0.00     0.218 HD
ENDBRANCH  17  30
BRANCH   8  32
HETATM   32  N6  UNL     1      35.705   2.852  21.759  1.00  0.00    -0.030 NA
BRANCH  32  33
HETATM   33  O6  UNL     1      35.646   1.617  21.135  1.00  0.00    -0.284 OA
ATOM     34  H6  UNL     1      35.561   0.918  21.773  1.00  0.00     0.240 HD
ENDBRANCH  32  33
BRANCH  32  35
HETATM   35  O7  UNL     1      36.010   2.720  23.059  1.00  0.00    -0.284 OA
ATOM     36  H7  UNL     1      36.936   2.808  23.256  1.00  0.00     0.240 HD
ENDBRANCH  32  35
ENDBRANCH   8  32
BRANCH  10  37
HETATM   37  O8  UNL     1      38.870   1.319  19.897  1.00  0.00    -0.289 OA
ATOM     38  H8  UNL     1      39.733   1.197  20.276  1.00  0.00     0.244 HD
ENDBRANCH  10  37
TORSDOF 12
ENDMDL
MODEL 2
REMARK VINA RESULT: -6.983654581      6.948      8.846
REMARK  12 active torsions:
REMARK  status: ('A' for Active; 'I' for Inactive)
REMARK    1  A    between atoms: O1_2  and  C2_3 
REMARK       I    between atoms: C2_3  and  N1_5 
REMARK    2  A    between atoms: N1_5  and  O3_7 
REMARK    3  A    between atoms: O3_7  and  N2_8 
REMARK    4  A    between atoms: N2_8  and  O4_9 
REMARK    5  A    between atoms: N2_8  and  N3_11 
REMARK    6  A    between atoms: N3_11  and  C3_12 
REMARK    7  A    between atoms: C3_12  and  C4_13 
REMARK    8  A    between atoms: C7_20  and  N6_21 
REMARK    9  A    between atoms: N6_21  and  O6_22 
REMARK   10  A    between atoms: N6_21  and  O7_24 
REMARK   11  A    between atoms: N7_27  and  O8_29 
REMARK   12  A    between atoms: C12_36  and  O11_37 
ROOT
HETATM    1  C4  UNL     1      38.682   1.838  12.870  1.00  0.00     0.145 A 
HETATM    2  O5  UNL     1      37.509   1.351  12.403  1.00  0.00    -0.287 OA
HETATM    3  C5  UNL     1      37.088   0.177  12.791  1.00  0.00     0.168 A 
HETATM    4  N4  UNL     1      35.894  -0.165  12.217  1.00  0.00    -0.323 N 
ATOM      5  H4  UNL     1      35.233   0.592  12.045  1.00  0.00     0.169 HD
HETATM    6  C6  UNL     1      35.504  -1.410  11.853  1.00  0.00     0.146 C 
HETATM    7  N5  UNL     1      34.565  -1.526  10.813  1.00  0.00    -0.080 NA
HETATM    8  C7  UNL     1      35.926  -2.636  12.371  1.00  0.00     0.139 C 
HETATM    9  C8  UNL     1      36.637  -2.834  13.557  1.00  0.00     0.134 C 
HETATM   10  N7  UNL     1      36.493  -3.947  14.138  1.00  0.00    -0.263 N 
ATOM     11  H7  UNL     1      35.877  -4.665  13.755  1.00  0.00     0.194 HD
HETATM   12  C9  UNL     1      37.484  -1.886  14.143  1.00  0.00     0.221 C 
HETATM   13  O9  UNL     1      38.037  -2.216  15.198  1.00  0.00    -0.285 OA
HETATM   14  C10 UNL     1      37.765  -0.624  13.677  1.00  0.00     0.121 A 
HETATM   15  C11 UNL     1      38.971  -0.174  14.201  1.00  0.00     0.226 A 
HETATM   16  O10 UNL     1      39.640  -0.817  14.999  1.00  0.00    -0.284 OA
HETATM   17  C12 UNL     1      39.390   1.088  13.759  1.00  0.00     0.154 A 
ENDROOT
BRANCH   1  18
HETATM   18  C3  UNL     1      39.192   3.137  12.405  1.00  0.00     0.254 C 
BRANCH  18  19
HETATM   19  N3  UNL     1      40.409   3.240  11.836  1.00  0.00    -0.284 NA
BRANCH  19  20
HETATM   20  N2  UNL     1      41.519   3.153  11.433  1.00  0.00     0.041 N 
BRANCH  20  21
HETATM   21  O3  UNL     1      41.956   3.114  10.075  1.00  0.00    -0.096 OA
BRANCH  21  22
HETATM   22  N1  UNL     1      41.492   4.176   9.296  1.00  0.00    -0.180 N 
HETATM   23  C2  UNL     1      42.022   4.442   8.021  1.00  0.00     0.386 C 
HETATM   24  O2  UNL     1      42.947   3.752   7.493  1.00  0.00    -0.236 OA
ATOM     25  H1  UNL     1      40.750   4.772   9.660  1.00  0.00     0.202 HD
BRANCH  23  26
HETATM   26  O1  UNL     1      41.554   5.500   7.237  1.00  0.00    -0.307 OA
HETATM   27  C1  UNL     1      40.408   5.545   6.444  1.00  0.00     0.215 C 
ENDBRANCH  23  26
ENDBRANCH  21  22
ENDBRANCH  20  21
BRANCH  20  28
HETATM   28  O4  UNL     1      42.598   3.091  12.329  1.00  0.00    -0.236 OA
ATOM     29  H4  UNL     1      42.474   2.412  12.981  1.00  0.00     0.250 HD
ENDBRANCH  20  28
ENDBRANCH  19  20
ENDBRANCH  18  19
ENDBRANCH   1  18
BRANCH  17  30
HETATM   30  O11 UNL     1      40.620   1.580  14.271  1.00  0.00    -0.355 OA
ATOM     31  H11 UNL     1      41.160   1.019  14.815  1.00  0.00     0.218 HD
ENDBRANCH  17  30
BRANCH   8  32
HETATM   32  N6  UNL     1      35.648  -3.819  11.660  1.00  0.00    -0.030 NA
BRANCH  32  33
HETATM   33  O6  UNL     1      34.334  -4.215  11.851  1.00  0.00    -0.284 OA
ATOM     34  H6  UNL     1      33.874  -4.276  11.022  1.00  0.00     0.240 HD
ENDBRANCH  32  33
BRANCH  32  35
HETATM   35  O7  UNL     1      35.948  -3.766  10.353  1.00  0.00    -0.284 OA
ATOM     36  H7  UNL     1      35.530  -4.437   9.826  1.00  0.00     0.240 HD
ENDBRANCH  32  35
ENDBRANCH   8  32
BRANCH  10  37
HETATM   37  O8  UNL     1      37.196  -4.163  15.311  1.00  0.00    -0.289 OA
ATOM     38  H8  UNL     1      37.853  -4.849  15.316  1.00  0.00     0.244 HD
ENDBRANCH  10  37
TORSDOF 12
ENDMDL
MODEL 3
REMARK VINA RESULT: -6.858142600      5.010      8.880
REMARK  12 active torsions:
REMARK  status: ('A' for Active; 'I' for Inactive)
REMARK    1  A    between atoms: O1_2  and  C2_3 
REMARK       I    between atoms: C2_3  and  N1_5 
REMARK    2  A    between atoms: N1_5  and  O3_7 
REMARK    3  A    between atoms: O3_7  and  N2_8 
REMARK    4  A    between atoms: N2_8  and  O4_9 
REMARK    5  A    between atoms: N2_8  and  N3_11 
REMARK    6  A    between atoms: N3_11  and  C3_12 
REMARK    7  A    between atoms: C3_12  and  C4_13 
REMARK    8  A    between atoms: C7_20  and  N6_21 
REMARK    9  A    between atoms: N6_21  and  O6_22 
REMARK   10  A    between atoms: N6_21  and  O7_24 
REMARK   11  A    between atoms: N7_27  and  O8_29 
REMARK   12  A    between atoms: C12_36  and  O11_37 
ROOT
HETATM    1  C4  UNL     1      37.858   0.065  12.248  1.00  0.00     0.145 A 
HETATM    2  O5  UNL     1      38.932   0.884  12.342  1.00  0.00    -0.287 OA
HETATM    3  C5  UNL     1      38.784   2.108  12.773  1.00  0.00     0.168 A 
HETATM    4  N4  UNL     1      39.965   2.799  12.795  1.00  0.00    -0.323 N 
ATOM      5  H4  UNL     1      40.805   2.266  13.023  1.00  0.00     0.169 HD
HETATM    6  C6  UNL     1      40.129   4.119  12.544  1.00  0.00     0.146 C 
HETATM    7  N5  UNL     1      41.379   4.545  12.059  1.00  0.00    -0.080 NA
HETATM    8  C7  UNL     1      39.200   5.151  12.689  1.00  0.00     0.139 C 
HETATM    9  C8  UNL     1      37.988   5.084  13.381  1.00  0.00     0.134 C 
HETATM   10  N7  UNL     1      37.533   6.163  13.857  1.00  0.00    -0.263 N 
ATOM     11  H7  UNL     1      38.038   7.042  13.742  1.00  0.00     0.194 HD
HETATM   12  C9  UNL     1      37.255   3.909  13.586  1.00  0.00     0.221 C 
HETATM   13  O9  UNL     1      36.202   4.018  14.224  1.00  0.00    -0.285 OA
HETATM   14  C10 UNL     1      37.581   2.643  13.160  1.00  0.00     0.121 A 
HETATM   15  C11 UNL     1      36.443   1.848  13.098  1.00  0.00     0.226 A 
HETATM   16  O10 UNL     1      35.330   2.238  13.426  1.00  0.00    -0.284 OA
HETATM   17  C12 UNL     1      36.641   0.543  12.628  1.00  0.00     0.154 A 
ENDROOT
BRANCH   1  18
HETATM   18  C3  UNL     1      38.000  -1.300  11.719  1.00  0.00     0.254 C 
BRANCH  18  19
HETATM   19  N3  UNL     1      37.451  -2.351  12.358  1.00  0.00    -0.284 NA
BRANCH  19  20
HETATM   20  N2  UNL     1      36.793  -3.167  12.907  1.00  0.00     0.041 N 
BRANCH  20  21
HETATM   21  O3  UNL     1      36.062  -3.027  14.124  1.00  0.00    -0.096 OA
BRANCH  21  22
HETATM   22  N1  UNL     1      36.667  -2.186  15.060  1.00  0.00    -0.180 N 
HETATM   23  C2  UNL     1      37.692  -2.642  15.908  1.00  0.00     0.386 C 
HETATM   24  O2  UNL     1      38.135  -3.831  15.889  1.00  0.00    -0.236 OA
ATOM     25  H1  UNL     1      36.359  -1.217  15.130  1.00  0.00     0.202 HD
BRANCH  23  26
HETATM   26  O1  UNL     1      38.303  -1.800  16.840  1.00  0.00    -0.307 OA
HETATM   27  C1  UNL     1      38.889  -2.142  18.059  1.00  0.00     0.215 C 
ENDBRANCH  23  26
ENDBRANCH  21  22
ENDBRANCH  20  21
BRANCH  20  28
HETATM   28  O4  UNL     1      36.645  -4.450  12.357  1.00  0.00    -0.236 OA
ATOM     29  H4  UNL     1      37.367  -4.670  11.781  1.00  0.00     0.250 HD
ENDBRANCH  20  28
ENDBRANCH  19  20
ENDBRANCH  18  19
ENDBRANCH   1  18
BRANCH  17  30
HETATM   30  O11 UNL     1      35.500  -0.298  12.548  1.00  0.00    -0.355 OA
ATOM     31  H11 UNL     1      34.631   0.084  12.579  1.00  0.00     0.218 HD
ENDBRANCH  17  30
BRANCH   8  32
HETATM   32  N6  UNL     1      39.452   6.399  12.086  1.00  0.00    -0.030 NA
BRANCH  32  33
HETATM   33  O6  UNL     1      40.440   7.088  12.769  1.00  0.00    -0.284 OA
ATOM     34  H6  UNL     1      40.958   7.618  12.174  1.00  0.00     0.240 HD
ENDBRANCH  32  33
BRANCH  32  35
HETATM   35  O7  UNL     1      39.729   6.336  10.774  1.00  0.00    -0.284 OA
ATOM     36  H7  UNL     1      38.969   6.412  10.209  1.00  0.00     0.240 HD
ENDBRANCH  32  35
ENDBRANCH   8  32
BRANCH  10  37
HETATM   37  O8  UNL     1      36.330   6.115  14.538  1.00  0.00    -0.289 OA
ATOM     38  H8  UNL     1      36.345   6.244  15.479  1.00  0.00     0.244 HD
ENDBRANCH  10  37
TORSDOF 12
ENDMDL
MODEL 4
REMARK VINA RESULT: -6.855373827      4.932      8.046
REMARK  12 active torsions:
REMARK  status: ('A' for Active; 'I' for Inactive)
REMARK    1  A    between atoms: O1_2  and  C2_3 
REMARK       I    between atoms: C2_3  and  N1_5 
REMARK    2  A    between atoms: N1_5  and  O3_7 
REMARK    3  A    between atoms: O3_7  and  N2_8 
REMARK    4  A    between atoms: N2_8  and  O4_9 
REMARK    5  A    between atoms: N2_8  and  N3_11 
REMARK    6  A    between atoms: N3_11  and  C3_12 
REMARK    7  A    between atoms: C3_12  and  C4_13 
REMARK    8  A    between atoms: C7_20  and  N6_21 
REMARK    9  A    between atoms: N6_21  and  O6_22 
REMARK   10  A    between atoms: N6_21  and  O7_24 
REMARK   11  A    between atoms: N7_27  and  O8_29 
REMARK   12  A    between atoms: C12_36  and  O11_37 
ROOT
HETATM    1  C4  UNL     1      38.187   1.910  12.981  1.00  0.00     0.145 A 
HETATM    2  O5  UNL     1      37.052   1.336  12.519  1.00  0.00    -0.287 OA
HETATM    3  C5  UNL     1      36.753   0.111  12.858  1.00  0.00     0.168 A 
HETATM    4  N4  UNL     1      35.581  -0.315  12.297  1.00  0.00    -0.323 N 
ATOM      5  H4  UNL     1      34.847   0.384  12.178  1.00  0.00     0.169 HD
HETATM    6  C6  UNL     1      35.299  -1.572  11.881  1.00  0.00     0.146 C 
HETATM    7  N5  UNL     1      34.344  -1.728  10.859  1.00  0.00    -0.080 NA
HETATM    8  C7  UNL     1      35.847  -2.776  12.327  1.00  0.00     0.139 C 
HETATM    9  C8  UNL     1      36.607  -2.962  13.485  1.00  0.00     0.134 C 
HETATM   10  N7  UNL     1      36.584  -4.110  14.014  1.00  0.00    -0.263 N 
ATOM     11  H7  UNL     1      36.027  -4.864  13.611  1.00  0.00     0.194 HD
HETATM   12  C9  UNL     1      37.378  -1.967  14.097  1.00  0.00     0.221 C 
HETATM   13  O9  UNL     1      37.990  -2.292  15.120  1.00  0.00    -0.285 OA
HETATM   14  C10 UNL     1      37.528  -0.663  13.687  1.00  0.00     0.121 A 
HETATM   15  C11 UNL     1      38.700  -0.127  14.203  1.00  0.00     0.226 A 
HETATM   16  O10 UNL     1      39.450  -0.740  14.952  1.00  0.00    -0.284 OA
HETATM   17  C12 UNL     1      38.987   1.189  13.814  1.00  0.00     0.154 A 
ENDROOT
BRANCH   1  18
HETATM   18  C3  UNL     1      38.561   3.271  12.569  1.00  0.00     0.254 C 
BRANCH  18  19
HETATM   19  N3  UNL     1      37.891   4.344  13.032  1.00  0.00    -0.284 NA
BRANCH  19  20
HETATM   20  N2  UNL     1      37.200   5.150  13.556  1.00  0.00     0.041 N 
BRANCH  20  21
HETATM   21  O3  UNL     1      36.852   6.448  13.075  1.00  0.00    -0.096 OA
BRANCH  21  22
HETATM   22  N1  UNL     1      36.195   7.247  14.014  1.00  0.00    -0.180 N 
HETATM   23  C2  UNL     1      36.814   8.372  14.587  1.00  0.00     0.386 C 
HETATM   24  O2  UNL     1      37.994   8.739  14.301  1.00  0.00    -0.236 OA
ATOM     25  H1  UNL     1      35.243   7.008  14.290  1.00  0.00     0.202 HD
BRANCH  23  26
HETATM   26  O1  UNL     1      36.156   9.175  15.521  1.00  0.00    -0.307 OA
HETATM   27  C1  UNL     1      36.384   9.266  16.894  1.00  0.00     0.215 C 
ENDBRANCH  23  26
ENDBRANCH  21  22
ENDBRANCH  20  21
BRANCH  20  28
HETATM   28  O4  UNL     1      36.598   4.876  14.793  1.00  0.00    -0.236 OA
ATOM     29  H4  UNL     1      36.101   4.067  14.770  1.00  0.00     0.250 HD
ENDBRANCH  20  28
ENDBRANCH  19  20
ENDBRANCH  18  19
ENDBRANCH   1  18
BRANCH  17  30
HETATM   30  O11 UNL     1      40.180   1.770  14.321  1.00  0.00    -0.355 OA
ATOM     31  H11 UNL     1      40.135   2.575  14.822  1.00  0.00     0.218 HD
ENDBRANCH  17  30
BRANCH   8  32
HETATM   32  N6  UNL     1      35.661  -3.946  11.566  1.00  0.00    -0.030 NA
BRANCH  32  33
HETATM   33  O6  UNL     1      34.386  -4.457  11.747  1.00  0.00    -0.284 OA
ATOM     34  H6  UNL     1      34.265  -5.255  11.247  1.00  0.00     0.240 HD
ENDBRANCH  32  33
BRANCH  32  35
HETATM   35  O7  UNL     1      35.942  -3.810  10.261  1.00  0.00    -0.284 OA
ATOM     36  H7  UNL     1      35.760  -2.947   9.907  1.00  0.00     0.240 HD
ENDBRANCH  32  35
ENDBRANCH   8  32
BRANCH  10  37
HETATM   37  O8  UNL     1      37.337  -4.313  15.157  1.00  0.00    -0.289 OA
ATOM     38  H8  UNL     1      36.928  -4.140  15.997  1.00  0.00     0.244 HD
ENDBRANCH  10  37
TORSDOF 12
ENDMDL
MODEL 5
REMARK VINA RESULT: -6.848256376      4.209      7.595
REMARK  12 active torsions:
REMARK  status: ('A' for Active; 'I' for Inactive)
REMARK    1  A    between atoms: O1_2  and  C2_3 
REMARK       I    between atoms: C2_3  and  N1_5 
REMARK    2  A    between atoms: N1_5  and  O3_7 
REMARK    3  A    between atoms: O3_7  and  N2_8 
REMARK    4  A    between atoms: N2_8  and  O4_9 
REMARK    5  A    between atoms: N2_8  and  N3_11 
REMARK    6  A    between atoms: N3_11  and  C3_12 
REMARK    7  A    between atoms: C3_12  and  C4_13 
REMARK    8  A    between atoms: C7_20  and  N6_21 
REMARK    9  A    between atoms: N6_21  and  O6_22 
REMARK   10  A    between atoms: N6_21  and  O7_24 
REMARK   11  A    between atoms: N7_27  and  O8_29 
REMARK   12  A    between atoms: C12_36  and  O11_37 
ROOT
HETATM    1  C4  UNL     1      38.546   1.959  13.866  1.00  0.00     0.145 A 
HETATM    2  O5  UNL     1      38.755   2.939  14.777  1.00  0.00    -0.287 OA
HETATM    3  C5  UNL     1      38.026   4.022  14.750  1.00  0.00     0.168 A 
HETATM    4  N4  UNL     1      38.375   4.910  15.730  1.00  0.00    -0.323 N 
ATOM      5  H4  UNL     1      38.685   4.516  16.619  1.00  0.00     0.169 HD
HETATM    6  C6  UNL     1      38.350   6.261  15.638  1.00  0.00     0.146 C 
HETATM    7  N5  UNL     1      39.229   6.992  16.457  1.00  0.00    -0.080 NA
HETATM    8  C7  UNL     1      37.560   7.058  14.808  1.00  0.00     0.139 C 
HETATM    9  C8  UNL     1      36.434   6.646  14.090  1.00  0.00     0.134 C 
HETATM   10  N7  UNL     1      35.562   7.524  13.829  1.00  0.00    -0.263 N 
ATOM     11  H7  UNL     1      35.678   8.489  14.138  1.00  0.00     0.194 HD
HETATM   12  C9  UNL     1      36.207   5.336  13.652  1.00  0.00     0.221 C 
HETATM   13  O9  UNL     1      35.157   5.135  13.031  1.00  0.00    -0.285 OA
HETATM   14  C10 UNL     1      37.022   4.246  13.840  1.00  0.00     0.121 A 
HETATM   15  C11 UNL     1      36.752   3.272  12.887  1.00  0.00     0.226 A 
HETATM   16  O10 UNL     1      35.874   3.382  12.041  1.00  0.00    -0.284 OA
HETATM   17  C12 UNL     1      37.556   2.126  12.947  1.00  0.00     0.154 A 
ENDROOT
BRANCH   1  18
HETATM   18  C3  UNL     1      39.391   0.755  13.855  1.00  0.00     0.254 C 
BRANCH  18  19
HETATM   19  N3  UNL     1      38.850  -0.470  13.713  1.00  0.00    -0.284 NA
BRANCH  19  20
HETATM   20  N2  UNL     1      38.201  -1.445  13.536  1.00  0.00     0.041 N 
BRANCH  20  21
HETATM   21  O3  UNL     1      36.782  -1.542  13.421  1.00  0.00    -0.096 OA
BRANCH  21  22
HETATM   22  N1  UNL     1      36.348  -2.509  12.511  1.00  0.00    -0.180 N 
HETATM   23  C2  UNL     1      35.642  -2.163  11.346  1.00  0.00     0.386 C 
HETATM   24  O2  UNL     1      35.349  -0.966  11.039  1.00  0.00    -0.236 OA
ATOM     25  H1  UNL     1      36.550  -3.491  12.697  1.00  0.00     0.202 HD
BRANCH  23  26
HETATM   26  O1  UNL     1      35.213  -3.128  10.433  1.00  0.00    -0.307 OA
HETATM   27  C1  UNL     1      35.622  -4.457  10.326  1.00  0.00     0.215 C 
ENDBRANCH  23  26
ENDBRANCH  21  22
ENDBRANCH  20  21
BRANCH  20  28
HETATM   28  O4  UNL     1      38.821  -2.696  13.397  1.00  0.00    -0.236 OA
ATOM     29  H4  UNL     1      38.276  -3.397  13.735  1.00  0.00     0.250 HD
ENDBRANCH  20  28
ENDBRANCH  19  20
ENDBRANCH  18  19
ENDBRANCH   1  18
BRANCH  17  30
HETATM   30  O11 UNL     1      37.311   1.110  11.986  1.00  0.00    -0.355 OA
ATOM     31  H11 UNL     1      37.858   1.051  11.213  1.00  0.00     0.218 HD
ENDBRANCH  17  30
BRANCH   8  32
HETATM   32  N6  UNL     1      37.894   8.414  14.629  1.00  0.00    -0.030 NA
BRANCH  32  33
HETATM   33  O6  UNL     1      37.593   9.152  15.761  1.00  0.00    -0.284 OA
ATOM     34  H6  UNL     1      38.327   9.163  16.365  1.00  0.00     0.240 HD
ENDBRANCH  32  33
BRANCH  32  35
HETATM   35  O7  UNL     1      39.160   8.628  14.239  1.00  0.00    -0.284 OA
ATOM     36  H7  UNL     1      39.432   9.538  14.266  1.00  0.00     0.240 HD
ENDBRANCH  32  35
ENDBRANCH   8  32
BRANCH  10  37
HETATM   37  O8  UNL     1      34.444   7.134  13.112  1.00  0.00    -0.289 OA
ATOM     38  H8  UNL     1      34.464   7.233  12.168  1.00  0.00     0.244 HD
ENDBRANCH  10  37
TORSDOF 12
ENDMDL
