MODEL 1
REMARK VINA RESULT: -7.120554522      0.000      0.000
REMARK  12 active torsions:
REMARK  status: ('A' for Active; 'I' for Inactive)
REMARK    1  A    between atoms: C3_3  and  C4_4 
REMARK    2  A    between atoms: C4_4  and  N1_5 
REMARK    3  A    between atoms: C4_4  and  N2_8 
REMARK    4  A    between atoms: N2_8  and  C5_10 
REMARK    5  A    between atoms: C6_13  and  C7_14 
REMARK    6  A    between atoms: N6_19  and  N7_20 
REMARK    7  A    between atoms: C8_23  and  N8_24 
REMARK    8  A    between atoms: N8_24  and  O2_26 
REMARK    9  A    between atoms: O2_26  and  C9_27 
REMARK       I    between atoms: C9_27  and  N9_29 
REMARK   10  A    between atoms: N9_29  and  O4_31 
REMARK   11  A    between atoms: N12_37  and  C10_38 
REMARK   12  A    between atoms: C11_44  and  N15_45 
ROOT
HETATM    1  N2  UNL     1      38.500   3.009  13.796  1.00  0.00    -0.324 N 
ATOM      2  H2  UNL     1      37.863   3.236  14.560  1.00  0.00     0.169 HD
ENDROOT
BRANCH   1   3
HETATM    3  C4  UNL     1      39.546   3.923  13.502  1.00  0.00     0.131 C 
BRANCH   3   4
HETATM    4  C3  UNL     1      39.485   4.758  12.336  1.00  0.00     0.117 A 
HETATM    5  C2  UNL     1      40.130   4.741  11.124  1.00  0.00     0.066 A 
HETATM    6  C1  UNL     1      41.142   3.737  10.725  1.00  0.00     0.073 C 
HETATM    7  N12 UNL     1      39.702   5.779  10.351  1.00  0.00    -0.223 N 
HETATM    8  N11 UNL     1      38.807   6.427  11.073  1.00  0.00    -0.234 N 
HETATM    9  N10 UNL     1      38.660   5.846  12.246  1.00  0.00    -0.280 N 
ATOM     10  H11 UNL     1      38.300   7.258  10.766  1.00  0.00     0.209 HD
ATOM     11  H10 UNL     1      38.025   6.161  12.980  1.00  0.00     0.188 HD
BRANCH   7  12
HETATM   12  C10 UNL     1      40.153   6.072   9.036  1.00  0.00     0.196 A 
HETATM   13  N13 UNL     1      39.616   5.760   7.845  1.00  0.00    -0.220 N 
HETATM   14  O5  UNL     1      40.367   6.229   6.895  1.00  0.00    -0.153 OA
ATOM     15  H13 UNL     1      38.752   5.235   7.708  1.00  0.00     0.198 HD
HETATM   16  N14 UNL     1      41.400   6.853   7.376  1.00  0.00    -0.222 N 
HETATM   17  C11 UNL     1      41.311   6.781   8.717  1.00  0.00     0.169 A 
ATOM     18  H14 UNL     1      42.139   7.309   6.840  1.00  0.00     0.198 HD
BRANCH  17  19
HETATM   19  N15 UNL     1      42.165   7.290   9.532  1.00  0.00    -0.381 N 
ATOM     20 2H15 UNL     1      41.956   8.034  10.197  1.00  0.00     0.157 HD
ATOM     21 1H15 UNL     1      43.147   7.038   9.637  1.00  0.00     0.157 HD
ENDBRANCH  17  19
ENDBRANCH   7  12
ENDBRANCH   3   4
BRANCH   3  22
HETATM   22  N1  UNL     1      40.541   3.985  14.299  1.00  0.00    -0.383 N 
ATOM     23  H12 UNL     1      41.162   4.792  14.239  1.00  0.00     0.157 HD
ATOM     24  H11 UNL     1      40.712   3.244  14.980  1.00  0.00     0.157 HD
ENDBRANCH   3  22
ENDBRANCH   1   3
BRANCH   1  25
HETATM   25  C5  UNL     1      38.295   1.816  13.097  1.00  0.00     0.159 A 
HETATM   26  N3  UNL     1      39.399   1.148  12.631  1.00  0.00    -0.320 N 
HETATM   27  C6  UNL     1      39.299  -0.003  11.949  1.00  0.00     0.189 A 
ATOM     28  H3  UNL     1      40.324   1.539  12.807  1.00  0.00     0.169 HD
HETATM   29  N5  UNL     1      38.064  -0.485  11.738  1.00  0.00    -0.258 N 
HETATM   30  N6  UNL     1      36.973   0.117  12.164  1.00  0.00    -0.179 N 
ATOM     31  H5  UNL     1      37.966  -1.360  11.224  1.00  0.00     0.191 HD
HETATM   32  C8  UNL     1      37.063   1.302  12.866  1.00  0.00     0.209 A 
BRANCH  27  33
HETATM   33  C7  UNL     1      40.496  -0.708  11.456  1.00  0.00     0.300 C 
HETATM   34  N4  UNL     1      41.034  -0.297  10.212  1.00  0.00    -0.054 NA
HETATM   35  O1  UNL     1      41.028  -1.634  12.096  1.00  0.00    -0.268 OA
ENDBRANCH  27  33
BRANCH  30  36
HETATM   36  N7  UNL     1      35.714  -0.441  11.909  1.00  0.00    -0.322 N 
ATOM     37  H72 UNL     1      35.116  -0.026  11.196  1.00  0.00     0.179 HD
ATOM     38  H71 UNL     1      35.398  -1.256  12.433  1.00  0.00     0.179 HD
ENDBRANCH  30  36
BRANCH  32  39
HETATM   39  N8  UNL     1      36.000   1.801  13.229  1.00  0.00    -0.234 N 
ATOM     40  H8  UNL     1      35.292   1.068  13.278  1.00  0.00     0.197 HD
BRANCH  39  41
HETATM   41  O2  UNL     1      35.455   2.937  13.575  1.00  0.00    -0.178 OA
BRANCH  41  42
HETATM   42  C9  UNL     1      35.673   4.189  13.063  1.00  0.00     0.406 C 
HETATM   43  O3  UNL     1      36.063   4.249  11.849  1.00  0.00    -0.234 OA
HETATM   44  N9  UNL     1      35.490   5.380  13.801  1.00  0.00    -0.211 N 
ATOM     45  H9  UNL     1      35.177   5.327  14.770  1.00  0.00     0.199 HD
BRANCH  44  46
HETATM   46  O4  UNL     1      35.721   6.577  13.244  1.00  0.00    -0.285 OA
ATOM     47  H4  UNL     1      35.234   6.862  12.479  1.00  0.00     0.244 HD
ENDBRANCH  44  46
ENDBRANCH  41  42
ENDBRANCH  39  41
ENDBRANCH  32  39
ENDBRANCH   1  25
TORSDOF 12
ENDMDL
MODEL 2
REMARK VINA RESULT: -7.087098615      2.459      6.418
REMARK  12 active torsions:
REMARK  status: ('A' for Active; 'I' for Inactive)
REMARK    1  A    between atoms: C3_3  and  C4_4 
REMARK    2  A    between atoms: C4_4  and  N1_5 
REMARK    3  A    between atoms: C4_4  and  N2_8 
REMARK    4  A    between atoms: N2_8  and  C5_10 
REMARK    5  A    between atoms: C6_13  and  C7_14 
REMARK    6  A    between atoms: N6_19  and  N7_20 
REMARK    7  A    between atoms: C8_23  and  N8_24 
REMARK    8  A    between atoms: N8_24  and  O2_26 
REMARK    9  A    between atoms: O2_26  and  C9_27 
REMARK       I    between atoms: C9_27  and  N9_29 
REMARK   10  A    between atoms: N9_29  and  O4_31 
REMARK   11  A    between atoms: N12_37  and  C10_38 
REMARK   12  A    between atoms: C11_44  and  N15_45 
ROOT
HETATM    1  N2  UNL     1      39.724   2.333  14.259  1.00  0.00    -0.324 N 
ATOM      2  H2  UNL     1      39.751   2.806  15.162  1.00  0.00     0.169 HD
ENDROOT
BRANCH   1   3
HETATM    3  C4  UNL     1      39.452   0.940  14.239  1.00  0.00     0.131 C 
BRANCH   3   4
HETATM    4  C3  UNL     1      38.272   0.432  13.598  1.00  0.00     0.117 A 
HETATM    5  C2  UNL     1      37.952  -0.773  13.021  1.00  0.00     0.066 A 
HETATM    6  C1  UNL     1      38.870  -1.931  12.932  1.00  0.00     0.073 C 
HETATM    7  N12 UNL     1      36.675  -0.740  12.547  1.00  0.00    -0.223 N 
HETATM    8  N11 UNL     1      36.212   0.464  12.826  1.00  0.00    -0.234 N 
HETATM    9  N10 UNL     1      37.133   1.174  13.445  1.00  0.00    -0.280 N 
ATOM     10  H11 UNL     1      35.275   0.797  12.595  1.00  0.00     0.209 HD
ATOM     11  H10 UNL     1      37.014   2.135  13.764  1.00  0.00     0.188 HD
BRANCH   7  12
HETATM   12  C10 UNL     1      36.010  -1.810  11.889  1.00  0.00     0.196 A 
HETATM   13  N13 UNL     1      35.811  -2.033  10.579  1.00  0.00    -0.220 N 
HETATM   14  O5  UNL     1      35.149  -3.140  10.424  1.00  0.00    -0.153 OA
ATOM     15  H13 UNL     1      36.129  -1.427   9.824  1.00  0.00     0.198 HD
HETATM   16  N14 UNL     1      34.882  -3.693  11.569  1.00  0.00    -0.222 N 
HETATM   17  C11 UNL     1      35.402  -2.894  12.519  1.00  0.00     0.169 A 
ATOM     18  H14 UNL     1      34.374  -4.565  11.719  1.00  0.00     0.198 HD
BRANCH  17  19
HETATM   19  N15 UNL     1      35.331  -3.124  13.783  1.00  0.00    -0.381 N 
ATOM     20 2H15 UNL     1      35.434  -2.412  14.506  1.00  0.00     0.157 HD
ATOM     21 1H15 UNL     1      35.168  -4.020  14.241  1.00  0.00     0.157 HD
ENDBRANCH  17  19
ENDBRANCH   7  12
ENDBRANCH   3   4
BRANCH   3  22
HETATM   22  N1  UNL     1      40.280   0.151  14.805  1.00  0.00    -0.383 N 
ATOM     23  H12 UNL     1      41.246   0.144  14.476  1.00  0.00     0.157 HD
ATOM     24  H11 UNL     1      39.984  -0.459  15.566  1.00  0.00     0.157 HD
ENDBRANCH   3  22
ENDBRANCH   1   3
BRANCH   1  25
HETATM   25  C5  UNL     1      39.958   3.093  13.109  1.00  0.00     0.159 A 
HETATM   26  N3  UNL     1      40.982   2.705  12.282  1.00  0.00    -0.320 N 
HETATM   27  C6  UNL     1      41.280   3.373  11.157  1.00  0.00     0.189 A 
ATOM     28  H3  UNL     1      41.534   1.884  12.529  1.00  0.00     0.169 HD
HETATM   29  N5  UNL     1      40.530   4.448  10.866  1.00  0.00    -0.258 N 
HETATM   30  N6  UNL     1      39.538   4.861  11.626  1.00  0.00    -0.179 N 
ATOM     31  H5  UNL     1      40.739   4.970  10.015  1.00  0.00     0.191 HD
HETATM   32  C8  UNL     1      39.221   4.183  12.785  1.00  0.00     0.209 A 
BRANCH  27  33
HETATM   33  C7  UNL     1      42.383   2.943  10.280  1.00  0.00     0.300 C 
HETATM   34  N4  UNL     1      42.807   3.840   9.270  1.00  0.00    -0.054 NA
HETATM   35  O1  UNL     1      42.934   1.833  10.408  1.00  0.00    -0.268 OA
ENDBRANCH  27  33
BRANCH  30  36
HETATM   36  N7  UNL     1      38.795   5.992  11.264  1.00  0.00    -0.322 N 
ATOM     37  H72 UNL     1      37.982   5.887  10.657  1.00  0.00     0.179 HD
ATOM     38  H71 UNL     1      39.066   6.915  11.603  1.00  0.00     0.179 HD
ENDBRANCH  30  36
BRANCH  32  39
HETATM   39  N8  UNL     1      38.282   4.632  13.439  1.00  0.00    -0.234 N 
ATOM     40  H8  UNL     1      38.408   5.638  13.549  1.00  0.00     0.197 HD
BRANCH  39  41
HETATM   41  O2  UNL     1      37.180   4.277  14.044  1.00  0.00    -0.178 OA
BRANCH  41  42
HETATM   42  C9  UNL     1      35.884   4.402  13.617  1.00  0.00     0.406 C 
HETATM   43  O3  UNL     1      35.218   3.319  13.489  1.00  0.00    -0.234 OA
HETATM   44  N9  UNL     1      35.271   5.640  13.323  1.00  0.00    -0.211 N 
ATOM     45  H9  UNL     1      35.805   6.503  13.427  1.00  0.00     0.199 HD
BRANCH  44  46
HETATM   46  O4  UNL     1      33.998   5.697  12.908  1.00  0.00    -0.285 OA
ATOM     47  H4  UNL     1      33.519   4.905  12.693  1.00  0.00     0.244 HD
ENDBRANCH  44  46
ENDBRANCH  41  42
ENDBRANCH  39  41
ENDBRANCH  32  39
ENDBRANCH   1  25
TORSDOF 12
ENDMDL
MODEL 3
REMARK VINA RESULT: -6.695142273      5.046      8.354
REMARK  12 active torsions:
REMARK  status: ('A' for Active; 'I' for Inactive)
REMARK    1  A    between atoms: C3_3  and  C4_4 
REMARK    2  A    between atoms: C4_4  and  N1_5 
REMARK    3  A    between atoms: C4_4  and  N2_8 
REMARK    4  A    between atoms: N2_8  and  C5_10 
REMARK    5  A    between atoms: C6_13  and  C7_14 
REMARK    6  A    between atoms: N6_19  and  N7_20 
REMARK    7  A    between atoms: C8_23  and  N8_24 
REMARK    8  A    between atoms: N8_24  and  O2_26 
REMARK    9  A    between atoms: O2_26  and  C9_27 
REMARK       I    between atoms: C9_27  and  N9_29 
REMARK   10  A    between atoms: N9_29  and  O4_31 
REMARK   11  A    between atoms: N12_37  and  C10_38 
REMARK   12  A    between atoms: C11_44  and  N15_45 
ROOT
HETATM    1  N2  UNL     1      38.848   5.431  15.893  1.00  0.00    -0.324 N 
ATOM      2  H2  UNL     1      38.999   6.437  15.967  1.00  0.00     0.169 HD
ENDROOT
BRANCH   1   3
HETATM    3  C4  UNL     1      39.575   4.578  16.765  1.00  0.00     0.131 C 
BRANCH   3   4
HETATM    4  C3  UNL     1      38.973   4.072  17.966  1.00  0.00     0.117 A 
HETATM    5  C2  UNL     1      38.044   4.574  18.844  1.00  0.00     0.066 A 
HETATM    6  C1  UNL     1      37.396   5.898  18.715  1.00  0.00     0.073 C 
HETATM    7  N12 UNL     1      37.812   3.676  19.843  1.00  0.00    -0.223 N 
HETATM    8  N11 UNL     1      38.583   2.636  19.587  1.00  0.00    -0.234 N 
HETATM    9  N10 UNL     1      39.278   2.844  18.486  1.00  0.00    -0.280 N 
ATOM     10  H11 UNL     1      38.634   1.792  20.159  1.00  0.00     0.209 HD
ATOM     11  H10 UNL     1      39.944   2.186  18.082  1.00  0.00     0.188 HD
BRANCH   7  12
HETATM   12  C10 UNL     1      36.910   3.859  20.926  1.00  0.00     0.196 A 
HETATM   13  N13 UNL     1      36.471   4.988  21.508  1.00  0.00    -0.220 N 
HETATM   14  O5  UNL     1      35.652   4.689  22.469  1.00  0.00    -0.153 OA
ATOM     15  H13 UNL     1      36.740   5.933  21.236  1.00  0.00     0.198 HD
HETATM   16  N14 UNL     1      35.504   3.402  22.580  1.00  0.00    -0.222 N 
HETATM   17  C11 UNL     1      36.275   2.838  21.631  1.00  0.00     0.169 A 
ATOM     18  H14 UNL     1      34.917   2.913  23.255  1.00  0.00     0.198 HD
BRANCH  17  19
HETATM   19  N15 UNL     1      36.382   1.572  21.439  1.00  0.00    -0.381 N 
ATOM     20 2H15 UNL     1      36.743   0.911  22.127  1.00  0.00     0.157 HD
ATOM     21 1H15 UNL     1      36.134   1.049  20.599  1.00  0.00     0.157 HD
ENDBRANCH  17  19
ENDBRANCH   7  12
ENDBRANCH   3   4
BRANCH   3  22
HETATM   22  N1  UNL     1      40.774   4.272  16.454  1.00  0.00    -0.383 N 
ATOM     23  H12 UNL     1      41.414   3.998  17.200  1.00  0.00     0.157 HD
ATOM     24  H11 UNL     1      41.086   4.300  15.484  1.00  0.00     0.157 HD
ENDBRANCH   3  22
ENDBRANCH   1   3
BRANCH   1  25
HETATM   25  C5  UNL     1      37.937   4.969  14.939  1.00  0.00     0.159 A 
HETATM   26  N3  UNL     1      38.224   3.793  14.295  1.00  0.00    -0.320 N 
HETATM   27  C6  UNL     1      37.409   3.273  13.365  1.00  0.00     0.189 A 
ATOM     28  H3  UNL     1      39.084   3.298  14.530  1.00  0.00     0.169 HD
HETATM   29  N5  UNL     1      36.287   3.954  13.084  1.00  0.00    -0.258 N 
HETATM   30  N6  UNL     1      35.965   5.087  13.673  1.00  0.00    -0.179 N 
ATOM     31  H5  UNL     1      35.653   3.576  12.381  1.00  0.00     0.191 HD
HETATM   32  C8  UNL     1      36.795   5.632  14.631  1.00  0.00     0.209 A 
BRANCH  27  33
HETATM   33  C7  UNL     1      37.733   2.008  12.683  1.00  0.00     0.300 C 
HETATM   34  N4  UNL     1      36.671   1.303  12.066  1.00  0.00    -0.054 NA
HETATM   35  O1  UNL     1      38.895   1.559  12.639  1.00  0.00    -0.268 OA
ENDBRANCH  27  33
BRANCH  30  36
HETATM   36  N7  UNL     1      34.778   5.747  13.332  1.00  0.00    -0.322 N 
ATOM     37  H72 UNL     1      34.473   5.762  12.360  1.00  0.00     0.179 HD
ATOM     38  H71 UNL     1      34.223   6.210  14.051  1.00  0.00     0.179 HD
ENDBRANCH  30  36
BRANCH  32  39
HETATM   39  N8  UNL     1      36.425   6.691  15.134  1.00  0.00    -0.234 N 
ATOM     40  H8  UNL     1      35.407   6.740  15.084  1.00  0.00     0.197 HD
BRANCH  39  41
HETATM   41  O2  UNL     1      36.871   7.775  15.710  1.00  0.00    -0.178 OA
BRANCH  41  42
HETATM   42  C9  UNL     1      36.167   8.783  16.315  1.00  0.00     0.406 C 
HETATM   43  O3  UNL     1      35.564   9.601  15.542  1.00  0.00    -0.234 OA
HETATM   44  N9  UNL     1      36.083   8.949  17.715  1.00  0.00    -0.211 N 
ATOM     45  H9  UNL     1      36.565   8.293  18.329  1.00  0.00     0.199 HD
BRANCH  44  46
HETATM   46  O4  UNL     1      35.377   9.958  18.247  1.00  0.00    -0.285 OA
ATOM     47  H4  UNL     1      35.765  10.536  18.893  1.00  0.00     0.244 HD
ENDBRANCH  44  46
ENDBRANCH  41  42
ENDBRANCH  39  41
ENDBRANCH  32  39
ENDBRANCH   1  25
TORSDOF 12
ENDMDL
MODEL 4
REMARK VINA RESULT: -6.674519602      2.907      6.667
REMARK  12 active torsions:
REMARK  status: ('A' for Active; 'I' for Inactive)
REMARK    1  A    between atoms: C3_3  and  C4_4 
REMARK    2  A    between atoms: C4_4  and  N1_5 
REMARK    3  A    between atoms: C4_4  and  N2_8 
REMARK    4  A    between atoms: N2_8  and  C5_10 
REMARK    5  A    between atoms: C6_13  and  C7_14 
REMARK    6  A    between atoms: N6_19  and  N7_20 
REMARK    7  A    between atoms: C8_23  and  N8_24 
REMARK    8  A    between atoms: N8_24  and  O2_26 
REMARK    9  A    between atoms: O2_26  and  C9_27 
REMARK       I    between atoms: C9_27  and  N9_29 
REMARK   10  A    between atoms: N9_29  and  O4_31 
REMARK   11  A    between atoms: N12_37  and  C10_38 
REMARK   12  A    between atoms: C11_44  and  N15_45 
ROOT
HETATM    1  N2  UNL     1      39.986   1.201  14.584  1.00  0.00    -0.324 N 
ATOM      2  H2  UNL     1      39.719   1.824  15.347  1.00  0.00     0.169 HD
ENDROOT
BRANCH   1   3
HETATM    3  C4  UNL     1      39.820  -0.196  14.771  1.00  0.00     0.131 C 
BRANCH   3   4
HETATM    4  C3  UNL     1      38.614  -0.854  14.355  1.00  0.00     0.117 A 
HETATM    5  C2  UNL     1      38.033  -1.081  13.131  1.00  0.00     0.066 A 
HETATM    6  C1  UNL     1      38.599  -0.638  11.837  1.00  0.00     0.073 C 
HETATM    7  N12 UNL     1      36.866  -1.768  13.287  1.00  0.00    -0.223 N 
HETATM    8  N11 UNL     1      36.728  -1.964  14.585  1.00  0.00    -0.234 N 
HETATM    9  N10 UNL     1      37.745  -1.435  15.236  1.00  0.00    -0.280 N 
ATOM     10  H11 UNL     1      35.947  -2.454  15.021  1.00  0.00     0.209 HD
ATOM     11  H10 UNL     1      37.866  -1.457  16.249  1.00  0.00     0.188 HD
BRANCH   7  12
HETATM   12  C10 UNL     1      35.999  -2.174  12.237  1.00  0.00     0.196 A 
HETATM   13  N13 UNL     1      35.146  -1.454  11.489  1.00  0.00    -0.220 N 
HETATM   14  O5  UNL     1      34.550  -2.235  10.640  1.00  0.00    -0.153 OA
ATOM     15  H13 UNL     1      34.991  -0.450  11.575  1.00  0.00     0.198 HD
HETATM   16  N14 UNL     1      34.952  -3.464  10.767  1.00  0.00    -0.222 N 
HETATM   17  C11 UNL     1      35.863  -3.476  11.758  1.00  0.00     0.169 A 
ATOM     18  H14 UNL     1      34.638  -4.267  10.222  1.00  0.00     0.198 HD
BRANCH  17  19
HETATM   19  N15 UNL     1      36.481  -4.527  12.167  1.00  0.00    -0.381 N 
ATOM     20 2H15 UNL     1      37.445  -4.537  12.499  1.00  0.00     0.157 HD
ATOM     21 1H15 UNL     1      36.117  -5.478  12.220  1.00  0.00     0.157 HD
ENDBRANCH  17  19
ENDBRANCH   7  12
ENDBRANCH   3   4
BRANCH   3  22
HETATM   22  N1  UNL     1      40.769  -0.853  15.316  1.00  0.00    -0.383 N 
ATOM     23  H12 UNL     1      40.557  -1.765  15.723  1.00  0.00     0.157 HD
ATOM     24  H11 UNL     1      41.717  -0.477  15.345  1.00  0.00     0.157 HD
ENDBRANCH   3  22
ENDBRANCH   1   3
BRANCH   1  25
HETATM   25  C5  UNL     1      40.495   1.771  13.413  1.00  0.00     0.159 A 
HETATM   26  N3  UNL     1      41.492   1.098  12.753  1.00  0.00    -0.320 N 
HETATM   27  C6  UNL     1      42.040   1.569  11.623  1.00  0.00     0.189 A 
ATOM     28  H3  UNL     1      41.826   0.214  13.133  1.00  0.00     0.169 HD
HETATM   29  N5  UNL     1      41.572   2.737  11.155  1.00  0.00    -0.258 N 
HETATM   30  N6  UNL     1      40.617   3.422  11.751  1.00  0.00    -0.179 N 
ATOM     31  H5  UNL     1      41.974   3.113  10.296  1.00  0.00     0.191 HD
HETATM   32  C8  UNL     1      40.045   2.948  12.914  1.00  0.00     0.209 A 
BRANCH  27  33
HETATM   33  C7  UNL     1      43.110   0.834  10.927  1.00  0.00     0.300 C 
HETATM   34  N4  UNL     1      44.120   1.592  10.287  1.00  0.00    -0.054 NA
HETATM   35  O1  UNL     1      43.141  -0.411  10.891  1.00  0.00    -0.268 OA
ENDBRANCH  27  33
BRANCH  30  36
HETATM   36  N7  UNL     1      40.175   4.635  11.208  1.00  0.00    -0.322 N 
ATOM     37  H72 UNL     1      40.627   5.505  11.488  1.00  0.00     0.179 HD
ATOM     38  H71 UNL     1      39.407   4.648  10.538  1.00  0.00     0.179 HD
ENDBRANCH  30  36
BRANCH  32  39
HETATM   39  N8  UNL     1      39.161   3.645  13.408  1.00  0.00    -0.234 N 
ATOM     40  H8  UNL     1      39.507   4.045  14.281  1.00  0.00     0.197 HD
BRANCH  39  41
HETATM   41  O2  UNL     1      37.937   4.055  13.213  1.00  0.00    -0.178 OA
BRANCH  41  42
HETATM   42  C9  UNL     1      36.837   3.334  12.825  1.00  0.00     0.406 C 
HETATM   43  O3  UNL     1      36.092   3.866  11.934  1.00  0.00    -0.234 OA
HETATM   44  N9  UNL     1      36.504   2.067  13.352  1.00  0.00    -0.211 N 
ATOM     45  H9  UNL     1      37.102   1.645  14.063  1.00  0.00     0.199 HD
BRANCH  44  46
HETATM   46  O4  UNL     1      35.413   1.411  12.931  1.00  0.00    -0.285 OA
ATOM     47  H4  UNL     1      35.101   0.639  13.389  1.00  0.00     0.244 HD
ENDBRANCH  44  46
ENDBRANCH  41  42
ENDBRANCH  39  41
ENDBRANCH  32  39
ENDBRANCH   1  25
TORSDOF 12
ENDMDL
MODEL 5
REMARK VINA RESULT: -6.608831534      2.538      6.675
REMARK  12 active torsions:
REMARK  status: ('A' for Active; 'I' for Inactive)
REMARK    1  A    between atoms: C3_3  and  C4_4 
REMARK    2  A    between atoms: C4_4  and  N1_5 
REMARK    3  A    between atoms: C4_4  and  N2_8 
REMARK    4  A    between atoms: N2_8  and  C5_10 
REMARK    5  A    between atoms: C6_13  and  C7_14 
REMARK    6  A    between atoms: N6_19  and  N7_20 
REMARK    7  A    between atoms: C8_23  and  N8_24 
REMARK    8  A    between atoms: N8_24  and  O2_26 
REMARK    9  A    between atoms: O2_26  and  C9_27 
REMARK       I    between atoms: C9_27  and  N9_29 
REMARK   10  A    between atoms: N9_29  and  O4_31 
REMARK   11  A    between atoms: N12_37  and  C10_38 
REMARK   12  A    between atoms: C11_44  and  N15_45 
ROOT
HETATM    1  N2  UNL     1      40.034   2.261  13.832  1.00  0.00    -0.324 N 
ATOM      2  H2  UNL     1      40.062   2.661  14.769  1.00  0.00     0.169 HD
ENDROOT
BRANCH   1   3
HETATM    3  C4  UNL     1      39.894   0.854  13.708  1.00  0.00     0.131 C 
BRANCH   3   4
HETATM    4  C3  UNL     1      38.614   0.265  13.430  1.00  0.00     0.117 A 
HETATM    5  C2  UNL     1      38.168  -1.031  13.336  1.00  0.00     0.066 A 
HETATM    6  C1  UNL     1      39.019  -2.227  13.523  1.00  0.00     0.073 C 
HETATM    7  N12 UNL     1      36.837  -1.047  13.045  1.00  0.00    -0.223 N 
HETATM    8  N11 UNL     1      36.464   0.216  12.963  1.00  0.00    -0.234 N 
HETATM    9  N10 UNL     1      37.493   1.009  13.185  1.00  0.00    -0.280 N 
ATOM     10  H11 UNL     1      35.517   0.533  12.756  1.00  0.00     0.209 HD
ATOM     11  H10 UNL     1      37.458   2.028  13.176  1.00  0.00     0.188 HD
BRANCH   7  12
HETATM   12  C10 UNL     1      36.043  -2.214  12.875  1.00  0.00     0.196 A 
HETATM   13  N13 UNL     1      35.504  -3.038  13.788  1.00  0.00    -0.220 N 
HETATM   14  O5  UNL     1      34.850  -3.984  13.185  1.00  0.00    -0.153 OA
ATOM     15  H13 UNL     1      35.594  -2.936  14.799  1.00  0.00     0.198 HD
HETATM   16  N14 UNL     1      34.912  -3.852  11.894  1.00  0.00    -0.222 N 
HETATM   17  C11 UNL     1      35.651  -2.753  11.650  1.00  0.00     0.169 A 
ATOM     18  H14 UNL     1      34.484  -4.462  11.199  1.00  0.00     0.198 HD
BRANCH  17  19
HETATM   19  N15 UNL     1      35.928  -2.308  10.476  1.00  0.00    -0.381 N 
ATOM     20 2H15 UNL     1      36.247  -1.360  10.278  1.00  0.00     0.157 HD
ATOM     21 1H15 UNL     1      35.873  -2.815   9.592  1.00  0.00     0.157 HD
ENDBRANCH  17  19
ENDBRANCH   7  12
ENDBRANCH   3   4
BRANCH   3  22
HETATM   22  N1  UNL     1      40.932   0.125  13.848  1.00  0.00    -0.383 N 
ATOM     23  H12 UNL     1      41.840   0.522  13.607  1.00  0.00     0.157 HD
ATOM     24  H11 UNL     1      40.856  -0.832  14.192  1.00  0.00     0.157 HD
ENDBRANCH   3  22
ENDBRANCH   1   3
BRANCH   1  25
HETATM   25  C5  UNL     1      40.134   3.128  12.740  1.00  0.00     0.159 A 
HETATM   26  N3  UNL     1      41.104   2.871  11.804  1.00  0.00    -0.320 N 
HETATM   27  C6  UNL     1      41.276   3.649  10.725  1.00  0.00     0.189 A 
ATOM     28  H3  UNL     1      41.714   2.064  11.933  1.00  0.00     0.169 HD
HETATM   29  N5  UNL     1      40.453   4.701  10.591  1.00  0.00    -0.258 N 
HETATM   30  N6  UNL     1      39.507   4.991  11.460  1.00  0.00    -0.179 N 
ATOM     31  H5  UNL     1      40.565   5.305   9.777  1.00  0.00     0.191 HD
HETATM   32  C8  UNL     1      39.321   4.199  12.575  1.00  0.00     0.209 A 
BRANCH  27  33
HETATM   33  C7  UNL     1      42.322   3.358   9.729  1.00  0.00     0.300 C 
HETATM   34  N4  UNL     1      42.395   4.195   8.589  1.00  0.00    -0.054 NA
HETATM   35  O1  UNL     1      43.123   2.414   9.869  1.00  0.00    -0.268 OA
ENDBRANCH  27  33
BRANCH  30  36
HETATM   36  N7  UNL     1      38.682   6.106  11.260  1.00  0.00    -0.322 N 
ATOM     37  H72 UNL     1      38.916   6.991  11.708  1.00  0.00     0.179 HD
ATOM     38  H71 UNL     1      37.854   6.032  10.669  1.00  0.00     0.179 HD
ENDBRANCH  30  36
BRANCH  32  39
HETATM   39  N8  UNL     1      38.418   4.536  13.337  1.00  0.00    -0.234 N 
ATOM     40  H8  UNL     1      38.547   5.517  13.586  1.00  0.00     0.197 HD
BRANCH  39  41
HETATM   41  O2  UNL     1      37.351   4.085  13.942  1.00  0.00    -0.178 OA
BRANCH  41  42
HETATM   42  C9  UNL     1      36.035   4.218  13.584  1.00  0.00     0.406 C 
HETATM   43  O3  UNL     1      35.358   3.139  13.492  1.00  0.00    -0.234 OA
HETATM   44  N9  UNL     1      35.416   5.459  13.320  1.00  0.00    -0.211 N 
ATOM     45  H9  UNL     1      35.960   6.318  13.395  1.00  0.00     0.199 HD
BRANCH  44  46
HETATM   46  O4  UNL     1      34.123   5.524  12.973  1.00  0.00    -0.285 OA
ATOM     47  H4  UNL     1      33.454   5.105  13.503  1.00  0.00     0.244 HD
ENDBRANCH  44  46
ENDBRANCH  41  42
ENDBRANCH  39  41
ENDBRANCH  32  39
ENDBRANCH   1  25
TORSDOF 12
ENDMDL
