MODEL 1
REMARK VINA RESULT: -6.701514677      0.000      0.000
REMARK  4 active torsions:
REMARK  status: ('A' for Active; 'I' for Inactive)
REMARK    1  A    between atoms: C2_2  and  N1_3 
REMARK    2  A    between atoms: C2_2  and  C10_17 
REMARK       I    between atoms: N1_3  and  C3_5 
REMARK       I    between atoms: C3_5  and  N2_7 
REMARK    3  A    between atoms: N2_7  and  C4_9 
REMARK    4  A    between atoms: C4_9  and  C5_10 
ROOT
HETATM    1  N1  UNL     1      48.332  -0.079  35.937  1.00  0.00    -0.313 N 
ATOM      2  H1  UNL     1      48.845   0.799  35.854  1.00  0.00     0.170 HD
HETATM    3  C3  UNL     1      46.947   0.047  36.030  1.00  0.00     0.321 C 
HETATM    4  O1  UNL     1      46.171  -0.902  36.136  1.00  0.00    -0.247 OA
HETATM    5  N2  UNL     1      46.363   1.357  36.003  1.00  0.00    -0.323 N 
ATOM      6  H2  UNL     1      46.991   2.156  35.918  1.00  0.00     0.165 HD
ENDROOT
BRANCH   1   7
HETATM    7  C2  UNL     1      49.131  -1.249  35.941  1.00  0.00     0.013 C 
HETATM    8  C1  UNL     1      49.425  -1.901  34.852  1.00  0.00     0.039 C 
BRANCH   7   9
HETATM    9  C10 UNL     1      49.663  -1.762  37.256  1.00  0.00     0.003 C 
HETATM   10  C11 UNL     1      48.890  -2.948  37.688  1.00  0.00     0.020 C 
HETATM   11  C12 UNL     1      49.457  -3.492  39.016  1.00  0.00    -0.013 C 
HETATM   12  C13 UNL     1      50.874  -3.868  38.737  1.00  0.00     0.009 C 
HETATM   13  C17 UNL     1      49.272  -2.435  40.048  1.00  0.00     0.009 C 
HETATM   14  C14 UNL     1      51.660  -2.654  38.374  1.00  0.00    -0.013 C 
HETATM   15  C15 UNL     1      51.499  -1.617  39.489  1.00  0.00     0.009 C 
HETATM   16  C19 UNL     1      51.133  -2.005  37.112  1.00  0.00     0.020 C 
HETATM   17  C16 UNL     1      50.068  -1.207  39.598  1.00  0.00    -0.013 C 
HETATM   18  C18 UNL     1      49.501  -0.670  38.321  1.00  0.00     0.020 C 
ENDBRANCH   7   9
ENDBRANCH   1   7
BRANCH   5  19
HETATM   19  C4  UNL     1      44.949   1.619  36.088  1.00  0.00     0.122 C 
HETATM   20  C6  UNL     1      44.586   3.029  36.355  1.00  0.00     0.042 C 
HETATM   21  C7  UNL     1      43.694   3.040  37.541  1.00  0.00     0.003 C 
HETATM   22  C8  UNL     1      43.114   1.657  37.627  1.00  0.00     0.003 C 
HETATM   23  C9  UNL     1      44.286   0.804  37.211  1.00  0.00     0.042 C 
BRANCH  19  24
HETATM   24  C5  UNL     1      44.314   1.189  34.799  1.00  0.00     0.202 C 
HETATM   25  O2  UNL     1      44.540   1.847  33.762  1.00  0.00    -0.646 OA
HETATM   26  O3  UNL     1      43.495   0.083  34.760  1.00  0.00    -0.646 OA
ENDBRANCH  19  24
ENDBRANCH   5  19
TORSDOF 4
ENDMDL
MODEL 2
REMARK VINA RESULT: -6.696115835      0.091      1.501
REMARK  4 active torsions:
REMARK  status: ('A' for Active; 'I' for Inactive)
REMARK    1  A    between atoms: C2_2  and  N1_3 
REMARK    2  A    between atoms: C2_2  and  C10_17 
REMARK       I    between atoms: N1_3  and  C3_5 
REMARK       I    between atoms: C3_5  and  N2_7 
REMARK    3  A    between atoms: N2_7  and  C4_9 
REMARK    4  A    between atoms: C4_9  and  C5_10 
ROOT
HETATM    1  N1  UNL     1      48.331  -0.082  35.997  1.00  0.00    -0.313 N 
ATOM      2  H1  UNL     1      48.839   0.801  35.942  1.00  0.00     0.170 HD
HETATM    3  C3  UNL     1      46.945   0.034  36.086  1.00  0.00     0.321 C 
HETATM    4  O1  UNL     1      46.173  -0.922  36.161  1.00  0.00    -0.247 OA
HETATM    5  N2  UNL     1      46.354   1.341  36.093  1.00  0.00    -0.323 N 
ATOM      6  H2  UNL     1      46.978   2.146  36.034  1.00  0.00     0.165 HD
ENDROOT
BRANCH   1   7
HETATM    7  C2  UNL     1      49.136  -1.248  35.974  1.00  0.00     0.013 C 
HETATM    8  C1  UNL     1      49.420  -1.881  34.872  1.00  0.00     0.039 C 
BRANCH   7   9
HETATM    9  C10 UNL     1      49.688  -1.777  37.274  1.00  0.00     0.003 C 
HETATM   10  C11 UNL     1      49.569  -0.748  38.331  1.00  0.00     0.020 C 
HETATM   11  C12 UNL     1      50.102  -1.303  39.669  1.00  0.00    -0.013 C 
HETATM   12  C13 UNL     1      49.250  -2.485  39.995  1.00  0.00     0.009 C 
HETATM   13  C17 UNL     1      51.550  -1.596  39.487  1.00  0.00     0.009 C 
HETATM   14  C14 UNL     1      49.434  -3.544  38.961  1.00  0.00    -0.013 C 
HETATM   15  C15 UNL     1      50.926  -3.865  38.850  1.00  0.00     0.009 C 
HETATM   16  C19 UNL     1      48.999  -3.068  37.592  1.00  0.00     0.020 C 
HETATM   17  C16 UNL     1      51.672  -2.657  38.390  1.00  0.00    -0.013 C 
HETATM   18  C18 UNL     1      51.174  -2.107  37.089  1.00  0.00     0.020 C 
ENDBRANCH   7   9
ENDBRANCH   1   7
BRANCH   5  19
HETATM   19  C4  UNL     1      44.937   1.593  36.177  1.00  0.00     0.122 C 
HETATM   20  C6  UNL     1      44.565   2.998  36.455  1.00  0.00     0.042 C 
HETATM   21  C7  UNL     1      43.670   2.994  37.639  1.00  0.00     0.003 C 
HETATM   22  C8  UNL     1      43.099   1.606  37.712  1.00  0.00     0.003 C 
HETATM   23  C9  UNL     1      44.278   0.764  37.291  1.00  0.00     0.042 C 
BRANCH  19  24
HETATM   24  C5  UNL     1      44.308   1.170  34.882  1.00  0.00     0.202 C 
HETATM   25  O2  UNL     1      44.528   1.842  33.853  1.00  0.00    -0.646 OA
HETATM   26  O3  UNL     1      43.501   0.055  34.831  1.00  0.00    -0.646 OA
ENDBRANCH  19  24
ENDBRANCH   5  19
TORSDOF 4
ENDMDL
MODEL 3
REMARK VINA RESULT: -6.631924514      8.913     10.017
REMARK  4 active torsions:
REMARK  status: ('A' for Active; 'I' for Inactive)
REMARK    1  A    between atoms: C2_2  and  N1_3 
REMARK    2  A    between atoms: C2_2  and  C10_17 
REMARK       I    between atoms: N1_3  and  C3_5 
REMARK       I    between atoms: C3_5  and  N2_7 
REMARK    3  A    between atoms: N2_7  and  C4_9 
REMARK    4  A    between atoms: C4_9  and  C5_10 
ROOT
HETATM    1  N1  UNL     1      43.796  -5.610  31.473  1.00  0.00    -0.313 N 
ATOM      2  H1  UNL     1      44.474  -5.038  31.977  1.00  0.00     0.170 HD
HETATM    3  C3  UNL     1      43.295  -5.044  30.302  1.00  0.00     0.321 C 
HETATM    4  O1  UNL     1      42.471  -5.588  29.567  1.00  0.00    -0.247 OA
HETATM    5  N2  UNL     1      43.753  -3.744  29.904  1.00  0.00    -0.323 N 
ATOM      6  H2  UNL     1      44.435  -3.276  30.502  1.00  0.00     0.165 HD
ENDROOT
BRANCH   1   7
HETATM    7  C2  UNL     1      43.500  -6.863  32.064  1.00  0.00     0.013 C 
HETATM    8  C1  UNL     1      42.439  -7.061  32.792  1.00  0.00     0.039 C 
BRANCH   7   9
HETATM    9  C10 UNL     1      44.450  -8.014  31.843  1.00  0.00     0.003 C 
HETATM   10  C11 UNL     1      44.432  -8.918  33.015  1.00  0.00     0.020 C 
HETATM   11  C12 UNL     1      45.378 -10.113  32.773  1.00  0.00    -0.013 C 
HETATM   12  C13 UNL     1      44.855 -10.817  31.564  1.00  0.00     0.009 C 
HETATM   13  C17 UNL     1      46.759  -9.572  32.644  1.00  0.00     0.009 C 
HETATM   14  C14 UNL     1      44.946  -9.920  30.376  1.00  0.00    -0.013 C 
HETATM   15  C15 UNL     1      46.392  -9.438  30.238  1.00  0.00     0.009 C 
HETATM   16  C19 UNL     1      44.099  -8.678  30.548  1.00  0.00     0.020 C 
HETATM   17  C16 UNL     1      46.775  -8.633  31.435  1.00  0.00    -0.013 C 
HETATM   18  C18 UNL     1      45.873  -7.464  31.683  1.00  0.00     0.020 C 
ENDBRANCH   7   9
ENDBRANCH   1   7
BRANCH   5  19
HETATM   19  C4  UNL     1      43.315  -3.055  28.717  1.00  0.00     0.122 C 
HETATM   20  C6  UNL     1      43.252  -3.888  27.495  1.00  0.00     0.042 C 
HETATM   21  C7  UNL     1      44.050  -3.201  26.448  1.00  0.00     0.003 C 
HETATM   22  C8  UNL     1      44.116  -1.760  26.868  1.00  0.00     0.003 C 
HETATM   23  C9  UNL     1      44.242  -1.879  28.367  1.00  0.00     0.042 C 
BRANCH  19  24
HETATM   24  C5  UNL     1      41.956  -2.479  28.983  1.00  0.00     0.202 C 
HETATM   25  O2  UNL     1      40.951  -3.058  28.522  1.00  0.00    -0.646 OA
HETATM   26  O3  UNL     1      41.821  -1.329  29.729  1.00  0.00    -0.646 OA
ENDBRANCH  19  24
ENDBRANCH   5  19
TORSDOF 4
ENDMDL
MODEL 4
REMARK VINA RESULT: -6.599818662      0.106      1.498
REMARK  4 active torsions:
REMARK  status: ('A' for Active; 'I' for Inactive)
REMARK    1  A    between atoms: C2_2  and  N1_3 
REMARK    2  A    between atoms: C2_2  and  C10_17 
REMARK       I    between atoms: N1_3  and  C3_5 
REMARK       I    between atoms: C3_5  and  N2_7 
REMARK    3  A    between atoms: N2_7  and  C4_9 
REMARK    4  A    between atoms: C4_9  and  C5_10 
ROOT
HETATM    1  N1  UNL     1      48.337  -0.096  36.025  1.00  0.00    -0.313 N 
ATOM      2  H1  UNL     1      48.847   0.787  35.999  1.00  0.00     0.170 HD
HETATM    3  C3  UNL     1      46.949   0.020  36.089  1.00  0.00     0.321 C 
HETATM    4  O1  UNL     1      46.175  -0.936  36.127  1.00  0.00    -0.247 OA
HETATM    5  N2  UNL     1      46.360   1.328  36.114  1.00  0.00    -0.323 N 
ATOM      6  H2  UNL     1      46.986   2.133  36.086  1.00  0.00     0.165 HD
ENDROOT
BRANCH   1   7
HETATM    7  C2  UNL     1      49.141  -1.262  35.990  1.00  0.00     0.013 C 
HETATM    8  C1  UNL     1      49.436  -1.877  34.881  1.00  0.00     0.039 C 
BRANCH   7   9
HETATM    9  C10 UNL     1      49.677  -1.815  37.287  1.00  0.00     0.003 C 
HETATM   10  C11 UNL     1      51.086  -2.236  37.115  1.00  0.00     0.020 C 
HETATM   11  C12 UNL     1      51.643  -2.769  38.451  1.00  0.00    -0.013 C 
HETATM   12  C13 UNL     1      51.553  -1.636  39.419  1.00  0.00     0.009 C 
HETATM   13  C17 UNL     1      50.854  -3.978  38.815  1.00  0.00     0.009 C 
HETATM   14  C14 UNL     1      50.125  -1.269  39.640  1.00  0.00    -0.013 C 
HETATM   15  C15 UNL     1      49.361  -2.521  40.076  1.00  0.00     0.009 C 
HETATM   16  C19 UNL     1      49.467  -0.794  38.361  1.00  0.00     0.020 C 
HETATM   17  C16 UNL     1      49.397  -3.543  38.988  1.00  0.00    -0.013 C 
HETATM   18  C18 UNL     1      48.853  -3.046  37.684  1.00  0.00     0.020 C 
ENDBRANCH   7   9
ENDBRANCH   1   7
BRANCH   5  19
HETATM   19  C4  UNL     1      44.943   1.581  36.176  1.00  0.00     0.122 C 
HETATM   20  C6  UNL     1      44.566   2.985  36.454  1.00  0.00     0.042 C 
HETATM   21  C7  UNL     1      43.653   2.976  37.623  1.00  0.00     0.003 C 
HETATM   22  C8  UNL     1      43.080   1.589  37.681  1.00  0.00     0.003 C 
HETATM   23  C9  UNL     1      44.265   0.748  37.276  1.00  0.00     0.042 C 
BRANCH  19  24
HETATM   24  C5  UNL     1      44.334   1.163  34.870  1.00  0.00     0.202 C 
HETATM   25  O2  UNL     1      44.544   1.857  33.854  1.00  0.00    -0.646 OA
HETATM   26  O3  UNL     1      43.556   0.029  34.795  1.00  0.00    -0.646 OA
ENDBRANCH  19  24
ENDBRANCH   5  19
TORSDOF 4
ENDMDL
MODEL 5
REMARK VINA RESULT: -6.598230630      4.028      6.947
REMARK  4 active torsions:
REMARK  status: ('A' for Active; 'I' for Inactive)
REMARK    1  A    between atoms: C2_2  and  N1_3 
REMARK    2  A    between atoms: C2_2  and  C10_17 
REMARK       I    between atoms: N1_3  and  C3_5 
REMARK       I    between atoms: C3_5  and  N2_7 
REMARK    3  A    between atoms: N2_7  and  C4_9 
REMARK    4  A    between atoms: C4_9  and  C5_10 
ROOT
HETATM    1  N1  UNL     1      44.832   0.383  33.803  1.00  0.00    -0.313 N 
ATOM      2  H1  UNL     1      45.090   1.122  33.148  1.00  0.00     0.170 HD
HETATM    3  C3  UNL     1      43.989  -0.601  33.289  1.00  0.00     0.321 C 
HETATM    4  O1  UNL     1      43.576  -1.565  33.933  1.00  0.00    -0.247 OA
HETATM    5  N2  UNL     1      43.559  -0.506  31.923  1.00  0.00    -0.323 N 
ATOM      6  H2  UNL     1      43.889   0.288  31.375  1.00  0.00     0.165 HD
ENDROOT
BRANCH   1   7
HETATM    7  C2  UNL     1      45.383   0.506  35.103  1.00  0.00     0.013 C 
HETATM    8  C1  UNL     1      46.496  -0.075  35.450  1.00  0.00     0.039 C 
BRANCH   7   9
HETATM    9  C10 UNL     1      44.654   1.340  36.126  1.00  0.00     0.003 C 
HETATM   10  C11 UNL     1      43.682   0.502  36.864  1.00  0.00     0.020 C 
HETATM   11  C12 UNL     1      42.961   1.349  37.933  1.00  0.00    -0.013 C 
HETATM   12  C13 UNL     1      44.025   1.846  38.855  1.00  0.00     0.009 C 
HETATM   13  C17 UNL     1      42.193   2.409  37.223  1.00  0.00     0.009 C 
HETATM   14  C14 UNL     1      44.957   2.747  38.117  1.00  0.00    -0.013 C 
HETATM   15  C15 UNL     1      44.139   3.859  37.456  1.00  0.00     0.009 C 
HETATM   16  C19 UNL     1      45.666   2.018  36.996  1.00  0.00     0.020 C 
HETATM   17  C16 UNL     1      43.199   3.272  36.456  1.00  0.00    -0.013 C 
HETATM   18  C18 UNL     1      43.880   2.451  35.405  1.00  0.00     0.020 C 
ENDBRANCH   7   9
ENDBRANCH   1   7
BRANCH   5  19
HETATM   19  C4  UNL     1      42.693  -1.458  31.276  1.00  0.00     0.122 C 
HETATM   20  C6  UNL     1      43.085  -2.876  31.438  1.00  0.00     0.042 C 
HETATM   21  C7  UNL     1      43.176  -3.469  30.080  1.00  0.00     0.003 C 
HETATM   22  C8  UNL     1      42.335  -2.592  29.197  1.00  0.00     0.003 C 
HETATM   23  C9  UNL     1      42.622  -1.222  29.758  1.00  0.00     0.042 C 
BRANCH  19  24
HETATM   24  C5  UNL     1      41.306  -1.273  31.815  1.00  0.00     0.202 C 
HETATM   25  O2  UNL     1      40.730  -0.178  31.645  1.00  0.00    -0.646 OA
HETATM   26  O3  UNL     1      40.677  -2.297  32.488  1.00  0.00    -0.646 OA
ENDBRANCH  19  24
ENDBRANCH   5  19
TORSDOF 4
ENDMDL
