MODEL 1
REMARK VINA RESULT: -6.080999425      0.000      0.000
REMARK  9 active torsions:
REMARK  status: ('A' for Active; 'I' for Inactive)
REMARK    1  A    between atoms: N1_2  and  C2_4 
REMARK    2  A    between atoms: C2_4  and  N2_6 
REMARK    3  A    between atoms: N2_6  and  N3_8 
REMARK    4  A    between atoms: N3_8  and  C3_10 
REMARK    5  A    between atoms: C3_10  and  N4_12 
REMARK    6  A    between atoms: N4_12  and  C4_14 
REMARK    7  A    between atoms: C4_14  and  C5_15 
REMARK    8  A    between atoms: C5_15  and  C6_16 
REMARK    9  A    between atoms: C6_16  and  C8_18 
ROOT
HETATM    1  N4  UNL     1      43.478  -1.124  31.121  1.00  0.00    -0.366 N 
ATOM      2  H4  UNL     1      44.472  -1.355  31.135  1.00  0.00     0.161 HD
ENDROOT
BRANCH   1   3
HETATM    3  C3  UNL     1      42.880  -1.176  29.866  1.00  0.00     0.186 C 
HETATM    4  S2  UNL     1      41.316  -1.775  29.819  1.00  0.00    -0.040 SA
BRANCH   3   5
HETATM    5  N3  UNL     1      43.422  -0.793  28.657  1.00  0.00    -0.274 N 
ATOM      6  H3  UNL     1      43.043   0.039  28.204  1.00  0.00     0.189 HD
BRANCH   5   7
HETATM    7  N2  UNL     1      44.453  -1.470  28.019  1.00  0.00    -0.274 N 
ATOM      8  H2  UNL     1      45.416  -1.280  28.297  1.00  0.00     0.189 HD
BRANCH   7   9
HETATM    9  C2  UNL     1      44.209  -2.420  26.988  1.00  0.00     0.186 C 
HETATM   10  S1  UNL     1      43.507  -3.860  27.325  1.00  0.00    -0.040 SA
BRANCH   9  11
HETATM   11  N1  UNL     1      44.581  -2.113  25.663  1.00  0.00    -0.370 N 
HETATM   12  C1  UNL     1      44.252  -3.043  24.576  1.00  0.00     0.148 C 
ATOM     13  H1  UNL     1      45.078  -1.245  25.459  1.00  0.00     0.161 HD
ENDBRANCH   9  11
ENDBRANCH   7   9
ENDBRANCH   5   7
ENDBRANCH   3   5
ENDBRANCH   1   3
BRANCH   1  14
HETATM   14  C4  UNL     1      42.914  -0.797  32.393  1.00  0.00     0.122 C 
BRANCH  14  15
HETATM   15  C5  UNL     1      43.830  -0.846  33.547  1.00  0.00     0.024 C 
BRANCH  15  16
HETATM   16  C6  UNL     1      44.548   0.378  33.986  1.00  0.00    -0.012 C 
HETATM   17  C7  UNL     1      45.762   0.714  33.228  1.00  0.00     0.010 C 
BRANCH  16  18
HETATM   18  C8  UNL     1      44.736   0.232  35.471  1.00  0.00    -0.002 C 
HETATM   19  C9  UNL     1      46.189   0.073  35.884  1.00  0.00     0.010 C 
HETATM   20  C10 UNL     1      46.174   0.781  37.225  1.00  0.00    -0.010 C 
HETATM   21  C11 UNL     1      45.215   0.042  38.100  1.00  0.00     0.006 C 
HETATM   22  C15 UNL     1      45.333   2.013  36.844  1.00  0.00    -0.006 C 
HETATM   23  C12 UNL     1      43.821   0.498  37.696  1.00  0.00     0.010 C 
HETATM   24  C13 UNL     1      44.113   1.214  36.356  1.00  0.00    -0.036 C 
HETATM   25  C14 UNL     1      42.986   2.026  35.901  1.00  0.00     0.016 C 
HETATM   26  C16 UNL     1      45.012   2.855  38.035  1.00  0.00     0.011 C 
ENDBRANCH  16  18
ENDBRANCH  15  16
ENDBRANCH  14  15
ENDBRANCH   1  14
TORSDOF 9
ENDMDL
MODEL 2
REMARK VINA RESULT: -6.000317711      3.762      5.915
REMARK  9 active torsions:
REMARK  status: ('A' for Active; 'I' for Inactive)
REMARK    1  A    between atoms: N1_2  and  C2_4 
REMARK    2  A    between atoms: C2_4  and  N2_6 
REMARK    3  A    between atoms: N2_6  and  N3_8 
REMARK    4  A    between atoms: N3_8  and  C3_10 
REMARK    5  A    between atoms: C3_10  and  N4_12 
REMARK    6  A    between atoms: N4_12  and  C4_14 
REMARK    7  A    between atoms: C4_14  and  C5_15 
REMARK    8  A    between atoms: C5_15  and  C6_16 
REMARK    9  A    between atoms: C6_16  and  C8_18 
ROOT
HETATM    1  N4  UNL     1      40.534  -6.003  29.326  1.00  0.00    -0.366 N 
ATOM      2  H4  UNL     1      40.102  -6.779  28.824  1.00  0.00     0.161 HD
ENDROOT
BRANCH   1   3
HETATM    3  C3  UNL     1      41.853  -5.737  28.975  1.00  0.00     0.186 C 
HETATM    4  S2  UNL     1      43.030  -6.475  29.911  1.00  0.00    -0.040 SA
BRANCH   3   5
HETATM    5  N3  UNL     1      42.307  -4.936  27.947  1.00  0.00    -0.274 N 
ATOM      6  H3  UNL     1      41.641  -4.660  27.226  1.00  0.00     0.189 HD
BRANCH   5   7
HETATM    7  N2  UNL     1      43.615  -4.484  27.834  1.00  0.00    -0.274 N 
ATOM      8  H2  UNL     1      44.290  -4.744  28.552  1.00  0.00     0.189 HD
BRANCH   7   9
HETATM    9  C2  UNL     1      44.041  -3.668  26.749  1.00  0.00     0.186 C 
HETATM   10  S1  UNL     1      44.240  -2.054  26.942  1.00  0.00    -0.040 SA
BRANCH   9  11
HETATM   11  N1  UNL     1      44.291  -4.262  25.495  1.00  0.00    -0.370 N 
HETATM   12  C1  UNL     1      44.132  -3.472  24.267  1.00  0.00     0.148 C 
ATOM     13  H1  UNL     1      44.582  -5.238  25.440  1.00  0.00     0.161 HD
ENDBRANCH   9  11
ENDBRANCH   7   9
ENDBRANCH   5   7
ENDBRANCH   3   5
ENDBRANCH   1   3
BRANCH   1  14
HETATM   14  C4  UNL     1      39.691  -5.356  30.283  1.00  0.00     0.122 C 
BRANCH  14  15
HETATM   15  C5  UNL     1      39.088  -4.078  29.866  1.00  0.00     0.024 C 
BRANCH  15  16
HETATM   16  C6  UNL     1      39.353  -2.838  30.639  1.00  0.00    -0.012 C 
HETATM   17  C7  UNL     1      38.598  -1.649  30.222  1.00  0.00     0.010 C 
BRANCH  16  18
HETATM   18  C8  UNL     1      40.849  -2.677  30.654  1.00  0.00    -0.002 C 
HETATM   19  C9  UNL     1      41.347  -1.560  29.754  1.00  0.00     0.010 C 
HETATM   20  C10 UNL     1      42.548  -1.082  30.545  1.00  0.00    -0.010 C 
HETATM   21  C11 UNL     1      43.491  -2.235  30.651  1.00  0.00     0.006 C 
HETATM   22  C15 UNL     1      41.929  -1.078  31.955  1.00  0.00    -0.006 C 
HETATM   23  C12 UNL     1      42.955  -3.132  31.757  1.00  0.00     0.010 C 
HETATM   24  C13 UNL     1      41.529  -2.563  31.943  1.00  0.00    -0.036 C 
HETATM   25  C14 UNL     1      40.895  -3.040  33.171  1.00  0.00     0.016 C 
HETATM   26  C16 UNL     1      42.947  -0.780  33.007  1.00  0.00     0.011 C 
ENDBRANCH  16  18
ENDBRANCH  15  16
ENDBRANCH  14  15
ENDBRANCH   1  14
TORSDOF 9
ENDMDL
MODEL 3
REMARK VINA RESULT: -5.935841204      0.892      1.999
REMARK  9 active torsions:
REMARK  status: ('A' for Active; 'I' for Inactive)
REMARK    1  A    between atoms: N1_2  and  C2_4 
REMARK    2  A    between atoms: C2_4  and  N2_6 
REMARK    3  A    between atoms: N2_6  and  N3_8 
REMARK    4  A    between atoms: N3_8  and  C3_10 
REMARK    5  A    between atoms: C3_10  and  N4_12 
REMARK    6  A    between atoms: N4_12  and  C4_14 
REMARK    7  A    between atoms: C4_14  and  C5_15 
REMARK    8  A    between atoms: C5_15  and  C6_16 
REMARK    9  A    between atoms: C6_16  and  C8_18 
ROOT
HETATM    1  N4  UNL     1      43.796  -1.174  31.004  1.00  0.00    -0.366 N 
ATOM      2  H4  UNL     1      44.802  -1.083  30.867  1.00  0.00     0.161 HD
ENDROOT
BRANCH   1   3
HETATM    3  C3  UNL     1      43.039  -1.162  29.837  1.00  0.00     0.186 C 
HETATM    4  S2  UNL     1      41.450  -1.673  29.981  1.00  0.00    -0.040 SA
BRANCH   3   5
HETATM    5  N3  UNL     1      43.443  -0.779  28.574  1.00  0.00    -0.274 N 
ATOM      6  H3  UNL     1      42.953  -0.003  28.130  1.00  0.00     0.189 HD
BRANCH   5   7
HETATM    7  N2  UNL     1      44.476  -1.386  27.872  1.00  0.00    -0.274 N 
ATOM      8  H2  UNL     1      45.436  -1.103  28.064  1.00  0.00     0.189 HD
BRANCH   7   9
HETATM    9  C2  UNL     1      44.236  -2.389  26.892  1.00  0.00     0.186 C 
HETATM   10  S1  UNL     1      43.470  -3.781  27.288  1.00  0.00    -0.040 SA
BRANCH   9  11
HETATM   11  N1  UNL     1      44.668  -2.178  25.566  1.00  0.00    -0.370 N 
HETATM   12  C1  UNL     1      44.224  -3.083  24.499  1.00  0.00     0.148 C 
ATOM     13  H1  UNL     1      45.288  -1.397  25.349  1.00  0.00     0.161 HD
ENDBRANCH   9  11
ENDBRANCH   7   9
ENDBRANCH   5   7
ENDBRANCH   3   5
ENDBRANCH   1   3
BRANCH   1  14
HETATM   14  C4  UNL     1      43.378  -1.296  32.366  1.00  0.00     0.122 C 
BRANCH  14  15
HETATM   15  C5  UNL     1      43.962  -0.334  33.318  1.00  0.00     0.024 C 
BRANCH  15  16
HETATM   16  C6  UNL     1      43.769  -0.516  34.780  1.00  0.00    -0.012 C 
HETATM   17  C7  UNL     1      42.530  -1.195  35.183  1.00  0.00     0.010 C 
BRANCH  16  18
HETATM   18  C8  UNL     1      43.988   0.840  35.393  1.00  0.00    -0.002 C 
HETATM   19  C9  UNL     1      42.736   1.433  36.015  1.00  0.00     0.010 C 
HETATM   20  C10 UNL     1      43.340   2.202  37.173  1.00  0.00    -0.010 C 
HETATM   21  C11 UNL     1      44.263   3.221  36.590  1.00  0.00     0.006 C 
HETATM   22  C15 UNL     1      44.344   1.147  37.671  1.00  0.00    -0.006 C 
HETATM   23  C12 UNL     1      45.548   2.489  36.235  1.00  0.00     0.010 C 
HETATM   24  C13 UNL     1      45.093   1.014  36.334  1.00  0.00    -0.036 C 
HETATM   25  C14 UNL     1      46.220   0.083  36.349  1.00  0.00     0.016 C 
HETATM   26  C16 UNL     1      45.222   1.685  38.753  1.00  0.00     0.011 C 
ENDBRANCH  16  18
ENDBRANCH  15  16
ENDBRANCH  14  15
ENDBRANCH   1  14
TORSDOF 9
ENDMDL
MODEL 4
REMARK VINA RESULT: -5.924202718      2.113      3.447
REMARK  9 active torsions:
REMARK  status: ('A' for Active; 'I' for Inactive)
REMARK    1  A    between atoms: N1_2  and  C2_4 
REMARK    2  A    between atoms: C2_4  and  N2_6 
REMARK    3  A    between atoms: N2_6  and  N3_8 
REMARK    4  A    between atoms: N3_8  and  C3_10 
REMARK    5  A    between atoms: C3_10  and  N4_12 
REMARK    6  A    between atoms: N4_12  and  C4_14 
REMARK    7  A    between atoms: C4_14  and  C5_15 
REMARK    8  A    between atoms: C5_15  and  C6_16 
REMARK    9  A    between atoms: C6_16  and  C8_18 
ROOT
HETATM    1  N4  UNL     1      44.263   0.081  33.286  1.00  0.00    -0.366 N 
ATOM      2  H4  UNL     1      45.207   0.281  32.956  1.00  0.00     0.161 HD
ENDROOT
BRANCH   1   3
HETATM    3  C3  UNL     1      43.467  -0.631  32.395  1.00  0.00     0.186 C 
HETATM    4  S2  UNL     1      41.923  -1.012  32.925  1.00  0.00    -0.040 SA
BRANCH   3   5
HETATM    5  N3  UNL     1      43.798  -1.061  31.126  1.00  0.00    -0.274 N 
ATOM      6  H3  UNL     1      44.660  -1.592  31.011  1.00  0.00     0.189 HD
BRANCH   5   7
HETATM    7  N2  UNL     1      43.028  -0.815  29.997  1.00  0.00    -0.274 N 
ATOM      8  H2  UNL     1      42.226  -0.189  30.073  1.00  0.00     0.189 HD
BRANCH   7   9
HETATM    9  C2  UNL     1      43.321  -1.410  28.738  1.00  0.00     0.186 C 
HETATM   10  S1  UNL     1      42.792  -2.917  28.381  1.00  0.00    -0.040 SA
BRANCH   9  11
HETATM   11  N1  UNL     1      44.078  -0.688  27.793  1.00  0.00    -0.370 N 
HETATM   12  C1  UNL     1      44.458  -1.320  26.523  1.00  0.00     0.148 C 
ATOM     13  H1  UNL     1      44.362   0.272  27.991  1.00  0.00     0.161 HD
ENDBRANCH   9  11
ENDBRANCH   7   9
ENDBRANCH   5   7
ENDBRANCH   3   5
ENDBRANCH   1   3
BRANCH   1  14
HETATM   14  C4  UNL     1      43.961   0.573  34.594  1.00  0.00     0.122 C 
BRANCH  14  15
HETATM   15  C5  UNL     1      44.446  -0.235  35.727  1.00  0.00     0.024 C 
BRANCH  15  16
HETATM   16  C6  UNL     1      45.502   0.295  36.627  1.00  0.00    -0.012 C 
HETATM   17  C7  UNL     1      45.824   1.719  36.467  1.00  0.00     0.010 C 
BRANCH  16  18
HETATM   18  C8  UNL     1      46.666  -0.647  36.491  1.00  0.00    -0.002 C 
HETATM   19  C9  UNL     1      47.665  -0.226  35.426  1.00  0.00     0.010 C 
HETATM   20  C10 UNL     1      48.956  -0.721  36.047  1.00  0.00    -0.010 C 
HETATM   21  C11 UNL     1      48.829  -2.201  36.202  1.00  0.00     0.006 C 
HETATM   22  C15 UNL     1      48.727  -0.254  37.496  1.00  0.00    -0.006 C 
HETATM   23  C12 UNL     1      47.988  -2.435  37.447  1.00  0.00     0.010 C 
HETATM   24  C13 UNL     1      47.409  -1.022  37.692  1.00  0.00    -0.036 C 
HETATM   25  C14 UNL     1      46.809  -0.888  39.018  1.00  0.00     0.016 C 
HETATM   26  C16 UNL     1      49.801  -0.741  38.412  1.00  0.00     0.011 C 
ENDBRANCH  16  18
ENDBRANCH  15  16
ENDBRANCH  14  15
ENDBRANCH   1  14
TORSDOF 9
ENDMDL
MODEL 5
REMARK VINA RESULT: -5.910650872      1.151      1.372
REMARK  9 active torsions:
REMARK  status: ('A' for Active; 'I' for Inactive)
REMARK    1  A    between atoms: N1_2  and  C2_4 
REMARK    2  A    between atoms: C2_4  and  N2_6 
REMARK    3  A    between atoms: N2_6  and  N3_8 
REMARK    4  A    between atoms: N3_8  and  C3_10 
REMARK    5  A    between atoms: C3_10  and  N4_12 
REMARK    6  A    between atoms: N4_12  and  C4_14 
REMARK    7  A    between atoms: C4_14  and  C5_15 
REMARK    8  A    between atoms: C5_15  and  C6_16 
REMARK    9  A    between atoms: C6_16  and  C8_18 
ROOT
HETATM    1  N4  UNL     1      42.535  -0.904  31.548  1.00  0.00    -0.366 N 
ATOM      2  H4  UNL     1      41.738  -0.625  32.121  1.00  0.00     0.161 HD
ENDROOT
BRANCH   1   3
HETATM    3  C3  UNL     1      42.254  -1.085  30.198  1.00  0.00     0.186 C 
HETATM    4  S2  UNL     1      40.845  -1.919  29.842  1.00  0.00    -0.040 SA
BRANCH   3   5
HETATM    5  N3  UNL     1      42.999  -0.659  29.118  1.00  0.00    -0.274 N 
ATOM      6  H3  UNL     1      42.679   0.165  28.610  1.00  0.00     0.189 HD
BRANCH   5   7
HETATM    7  N2  UNL     1      44.159  -1.284  28.679  1.00  0.00    -0.274 N 
ATOM      8  H2  UNL     1      45.036  -1.095  29.165  1.00  0.00     0.189 HD
BRANCH   7   9
HETATM    9  C2  UNL     1      44.164  -2.180  27.574  1.00  0.00     0.186 C 
HETATM   10  S1  UNL     1      44.529  -1.651  26.069  1.00  0.00    -0.040 SA
BRANCH   9  11
HETATM   11  N1  UNL     1      43.846  -3.538  27.784  1.00  0.00    -0.370 N 
HETATM   12  C1  UNL     1      43.923  -4.107  29.136  1.00  0.00     0.148 C 
ATOM     13  H1  UNL     1      43.564  -4.125  26.998  1.00  0.00     0.161 HD
ENDBRANCH   9  11
ENDBRANCH   7   9
ENDBRANCH   5   7
ENDBRANCH   3   5
ENDBRANCH   1   3
BRANCH   1  14
HETATM   14  C4  UNL     1      43.768  -1.050  32.256  1.00  0.00     0.122 C 
BRANCH  14  15
HETATM   15  C5  UNL     1      43.759  -0.652  33.675  1.00  0.00     0.024 C 
BRANCH  15  16
HETATM   16  C6  UNL     1      44.566   0.508  34.133  1.00  0.00    -0.012 C 
HETATM   17  C7  UNL     1      45.749   0.826  33.322  1.00  0.00     0.010 C 
BRANCH  16  18
HETATM   18  C8  UNL     1      44.833   0.269  35.594  1.00  0.00    -0.002 C 
HETATM   19  C9  UNL     1      46.307   0.098  35.920  1.00  0.00     0.010 C 
HETATM   20  C10 UNL     1      46.358   0.718  37.302  1.00  0.00    -0.010 C 
HETATM   21  C11 UNL     1      45.451  -0.084  38.177  1.00  0.00     0.006 C 
HETATM   22  C15 UNL     1      45.491   1.964  37.045  1.00  0.00    -0.006 C 
HETATM   23  C12 UNL     1      44.035   0.383  37.876  1.00  0.00     0.010 C 
HETATM   24  C13 UNL     1      44.251   1.186  36.572  1.00  0.00    -0.036 C 
HETATM   25  C14 UNL     1      43.097   2.015  36.230  1.00  0.00     0.016 C 
HETATM   26  C16 UNL     1      45.228   2.726  38.304  1.00  0.00     0.011 C 
ENDBRANCH  16  18
ENDBRANCH  15  16
ENDBRANCH  14  15
ENDBRANCH   1  14
TORSDOF 9
ENDMDL
