MODEL 1
REMARK VINA RESULT: -6.861739190      0.000      0.000
REMARK  4 active torsions:
REMARK  status: ('A' for Active; 'I' for Inactive)
REMARK    1  A    between atoms: N1_1  and  C1_4 
REMARK    2  A    between atoms: C2_9  and  C3_10 
REMARK    3  A    between atoms: N4_13  and  C6_14 
REMARK    4  A    between atoms: C6_14  and  C7_15 
ROOT
HETATM    1  C3  UNL     1      42.959  -2.240  28.055  1.00  0.00     0.042 C 
HETATM    2  C4  UNL     1      41.752  -2.823  28.690  1.00  0.00     0.041 C 
HETATM    3  C5  UNL     1      41.643  -2.878  30.148  1.00  0.00     0.273 C 
HETATM    4  N4  UNL     1      42.510  -2.140  30.970  1.00  0.00     0.092 N 
HETATM    5  C14 UNL     1      43.485  -1.341  30.250  1.00  0.00     0.273 C 
HETATM    6  C15 UNL     1      44.078  -2.094  29.107  1.00  0.00     0.041 C 
ENDROOT
BRANCH   1   7
HETATM    7  C2  UNL     1      43.484  -2.997  26.899  1.00  0.00     0.051 A 
HETATM    8  N3  UNL     1      43.625  -4.319  26.747  1.00  0.00    -0.301 N 
HETATM    9  N2  UNL     1      44.161  -4.631  25.571  1.00  0.00    -0.284 N 
ATOM     10  H3  UNL     1      43.353  -5.006  27.451  1.00  0.00     0.186 HD
HETATM   11  C1  UNL     1      44.375  -3.464  24.939  1.00  0.00     0.133 A 
ATOM     12  H2  UNL     1      44.369  -5.566  25.220  1.00  0.00     0.188 HD
HETATM   13  C16 UNL     1      43.967  -2.420  25.732  1.00  0.00     0.080 A 
HETATM   14 BR1  UNL     1      43.997  -0.542  25.394  1.00  0.00    -0.045 Br
BRANCH  11  15
HETATM   15  N1  UNL     1      44.888  -3.314  23.743  1.00  0.00    -0.383 N 
ATOM     16  H12 UNL     1      45.820  -2.937  23.569  1.00  0.00     0.157 HD
ATOM     17  H11 UNL     1      44.434  -3.544  22.859  1.00  0.00     0.157 HD
ENDBRANCH  11  15
ENDBRANCH   1   7
BRANCH   4  18
HETATM   18  C6  UNL     1      41.901  -1.244  31.929  1.00  0.00     0.313 C 
BRANCH  18  19
HETATM   19  C7  UNL     1      42.573  -1.140  33.219  1.00  0.00    -0.006 A 
HETATM   20  C8  UNL     1      42.140  -1.870  34.333  1.00  0.00     0.097 A 
HETATM   21  N5  UNL     1      42.851  -1.553  35.393  1.00  0.00    -0.368 N 
HETATM   22  C9  UNL     1      43.752  -0.624  35.015  1.00  0.00     0.016 A 
ATOM     23  H5  UNL     1      42.741  -1.940  36.331  1.00  0.00     0.165 HD
HETATM   24  C10 UNL     1      43.601  -0.355  33.680  1.00  0.00    -0.026 A 
HETATM   25  C13 UNL     1      44.831   0.203  35.598  1.00  0.00     0.058 C 
HETATM   26  C11 UNL     1      44.590   0.630  33.228  1.00  0.00     0.041 C 
HETATM   27  C12 UNL     1      45.129   1.210  34.532  1.00  0.00     0.011 C 
ENDBRANCH  18  19
ENDBRANCH   4  18
TORSDOF 4
ENDMDL
MODEL 2
REMARK VINA RESULT: -6.765150042      2.573      3.314
REMARK  4 active torsions:
REMARK  status: ('A' for Active; 'I' for Inactive)
REMARK    1  A    between atoms: N1_1  and  C1_4 
REMARK    2  A    between atoms: C2_9  and  C3_10 
REMARK    3  A    between atoms: N4_13  and  C6_14 
REMARK    4  A    between atoms: C6_14  and  C7_15 
ROOT
HETATM    1  C3  UNL     1      42.661  -1.721  30.402  1.00  0.00     0.042 C 
HETATM    2  C4  UNL     1      43.756  -1.542  31.385  1.00  0.00     0.041 C 
HETATM    3  C5  UNL     1      43.609  -0.585  32.482  1.00  0.00     0.273 C 
HETATM    4  N4  UNL     1      42.357  -0.037  32.805  1.00  0.00     0.092 N 
HETATM    5  C14 UNL     1      41.263  -0.506  31.974  1.00  0.00     0.273 C 
HETATM    6  C15 UNL     1      41.650  -0.562  30.535  1.00  0.00     0.041 C 
ENDROOT
BRANCH   1   7
HETATM    7  C2  UNL     1      43.096  -1.817  28.992  1.00  0.00     0.051 A 
HETATM    8  N3  UNL     1      43.473  -0.843  28.156  1.00  0.00    -0.301 N 
HETATM    9  N2  UNL     1      43.773  -1.312  26.948  1.00  0.00    -0.284 N 
ATOM     10  H3  UNL     1      43.524   0.143  28.414  1.00  0.00     0.186 HD
HETATM   11  C1  UNL     1      43.582  -2.641  27.008  1.00  0.00     0.133 A 
ATOM     12  H2  UNL     1      44.085  -0.773  26.140  1.00  0.00     0.188 HD
HETATM   13  C16 UNL     1      43.159  -2.998  28.265  1.00  0.00     0.080 A 
HETATM   14 BR1  UNL     1      42.736  -4.719  28.971  1.00  0.00    -0.045 Br
BRANCH  11  15
HETATM   15  N1  UNL     1      43.768  -3.495  26.032  1.00  0.00    -0.383 N 
ATOM     16  H12 UNL     1      44.611  -3.527  25.459  1.00  0.00     0.157 HD
ATOM     17  H11 UNL     1      43.111  -4.213  25.727  1.00  0.00     0.157 HD
ENDBRANCH  11  15
ENDBRANCH   1   7
BRANCH   4  18
HETATM   18  C6  UNL     1      41.907  -0.192  34.172  1.00  0.00     0.313 C 
BRANCH  18  19
HETATM   19  C7  UNL     1      42.087   0.968  35.037  1.00  0.00    -0.006 A 
HETATM   20  C8  UNL     1      41.010   1.782  35.408  1.00  0.00     0.097 A 
HETATM   21  N5  UNL     1      41.431   2.802  36.123  1.00  0.00    -0.368 N 
HETATM   22  C9  UNL     1      42.770   2.691  36.240  1.00  0.00     0.016 A 
ATOM     23  H5  UNL     1      40.851   3.542  36.518  1.00  0.00     0.165 HD
HETATM   24  C10 UNL     1      43.197   1.568  35.580  1.00  0.00    -0.026 A 
HETATM   25  C13 UNL     1      43.913   3.415  36.837  1.00  0.00     0.058 C 
HETATM   26  C11 UNL     1      44.647   1.400  35.714  1.00  0.00     0.041 C 
HETATM   27  C12 UNL     1      45.112   2.759  36.228  1.00  0.00     0.011 C 
ENDBRANCH  18  19
ENDBRANCH   4  18
TORSDOF 4
ENDMDL
MODEL 3
REMARK VINA RESULT: -6.694952362      5.412      7.594
REMARK  4 active torsions:
REMARK  status: ('A' for Active; 'I' for Inactive)
REMARK    1  A    between atoms: N1_1  and  C1_4 
REMARK    2  A    between atoms: C2_9  and  C3_10 
REMARK    3  A    between atoms: N4_13  and  C6_14 
REMARK    4  A    between atoms: C6_14  and  C7_15 
ROOT
HETATM    1  C3  UNL     1      44.175  -7.134  32.341  1.00  0.00     0.042 C 
HETATM    2  C4  UNL     1      43.375  -6.171  33.136  1.00  0.00     0.041 C 
HETATM    3  C5  UNL     1      43.183  -4.802  32.655  1.00  0.00     0.273 C 
HETATM    4  N4  UNL     1      43.488  -4.448  31.331  1.00  0.00     0.092 N 
HETATM    5  C14 UNL     1      43.987  -5.541  30.516  1.00  0.00     0.273 C 
HETATM    6  C15 UNL     1      44.974  -6.376  31.260  1.00  0.00     0.041 C 
ENDROOT
BRANCH   1   7
HETATM    7  C2  UNL     1      45.106  -7.971  33.126  1.00  0.00     0.051 A 
HETATM    8  N3  UNL     1      45.619  -7.752  34.342  1.00  0.00    -0.301 N 
HETATM    9  N2  UNL     1      46.448  -8.723  34.715  1.00  0.00    -0.284 N 
ATOM     10  H3  UNL     1      45.401  -6.936  34.915  1.00  0.00     0.186 HD
HETATM   11  C1  UNL     1      46.469  -9.604  33.700  1.00  0.00     0.133 A 
ATOM     12  H2  UNL     1      46.962  -8.787  35.594  1.00  0.00     0.188 HD
HETATM   13  C16 UNL     1      45.646  -9.173  32.688  1.00  0.00     0.080 A 
HETATM   14 BR1  UNL     1      45.248  -9.982  31.007  1.00  0.00    -0.045 Br
BRANCH  11  15
HETATM   15  N1  UNL     1      47.157 -10.717  33.656  1.00  0.00    -0.383 N 
ATOM     16  H12 UNL     1      48.087 -10.827  34.062  1.00  0.00     0.157 HD
ATOM     17  H11 UNL     1      46.863 -11.591  33.219  1.00  0.00     0.157 HD
ENDBRANCH  11  15
ENDBRANCH   1   7
BRANCH   4  18
HETATM   18  C6  UNL     1      42.432  -3.832  30.557  1.00  0.00     0.313 C 
BRANCH  18  19
HETATM   19  C7  UNL     1      42.839  -2.745  29.675  1.00  0.00    -0.006 A 
HETATM   20  C8  UNL     1      42.636  -1.404  30.020  1.00  0.00     0.097 A 
HETATM   21  N5  UNL     1      43.013  -0.615  29.039  1.00  0.00    -0.368 N 
HETATM   22  C9  UNL     1      43.465  -1.398  28.039  1.00  0.00     0.016 A 
ATOM     23  H5  UNL     1      42.972   0.404  29.034  1.00  0.00     0.165 HD
HETATM   24  C10 UNL     1      43.369  -2.715  28.408  1.00  0.00    -0.026 A 
HETATM   25  C13 UNL     1      44.007  -1.276  26.668  1.00  0.00     0.058 C 
HETATM   26  C11 UNL     1      43.883  -3.594  27.353  1.00  0.00     0.041 C 
HETATM   27  C12 UNL     1      43.966  -2.676  26.139  1.00  0.00     0.011 C 
ENDBRANCH  18  19
ENDBRANCH   4  18
TORSDOF 4
ENDMDL
MODEL 4
REMARK VINA RESULT: -6.604155408      2.999      7.973
REMARK  4 active torsions:
REMARK  status: ('A' for Active; 'I' for Inactive)
REMARK    1  A    between atoms: N1_1  and  C1_4 
REMARK    2  A    between atoms: C2_9  and  C3_10 
REMARK    3  A    between atoms: N4_13  and  C6_14 
REMARK    4  A    between atoms: C6_14  and  C7_15 
ROOT
HETATM    1  C3  UNL     1      43.381  -0.669  33.329  1.00  0.00     0.042 C 
HETATM    2  C4  UNL     1      42.037  -0.191  32.927  1.00  0.00     0.041 C 
HETATM    3  C5  UNL     1      41.596  -0.321  31.538  1.00  0.00     0.273 C 
HETATM    4  N4  UNL     1      42.287  -1.140  30.630  1.00  0.00     0.092 N 
HETATM    5  C14 UNL     1      43.436  -1.825  31.193  1.00  0.00     0.273 C 
HETATM    6  C15 UNL     1      44.238  -0.925  32.072  1.00  0.00     0.041 C 
ENDROOT
BRANCH   1   7
HETATM    7  C2  UNL     1      44.120   0.236  34.236  1.00  0.00     0.051 A 
HETATM    8  N3  UNL     1      45.007   1.192  33.938  1.00  0.00    -0.301 N 
HETATM    9  N2  UNL     1      45.486   1.784  35.028  1.00  0.00    -0.284 N 
ATOM     10  H3  UNL     1      45.283   1.438  32.987  1.00  0.00     0.186 HD
HETATM   11  C1  UNL     1      44.885   1.186  36.071  1.00  0.00     0.133 A 
ATOM     12  H2  UNL     1      46.171   2.540  35.065  1.00  0.00     0.188 HD
HETATM   13  C16 UNL     1      44.025   0.214  35.621  1.00  0.00     0.080 A 
HETATM   14 BR1  UNL     1      42.886  -0.961  36.602  1.00  0.00    -0.045 Br
BRANCH  11  15
HETATM   15  N1  UNL     1      45.066   1.470  37.336  1.00  0.00    -0.383 N 
ATOM     16  H12 UNL     1      45.736   2.162  37.672  1.00  0.00     0.157 HD
ATOM     17  H11 UNL     1      44.579   1.044  38.125  1.00  0.00     0.157 HD
ENDBRANCH  11  15
ENDBRANCH   1   7
BRANCH   4  18
HETATM   18  C6  UNL     1      41.517  -2.158  29.949  1.00  0.00     0.313 C 
BRANCH  18  19
HETATM   19  C7  UNL     1      42.193  -2.840  28.852  1.00  0.00    -0.006 A 
HETATM   20  C8  UNL     1      42.086  -4.224  28.669  1.00  0.00     0.097 A 
HETATM   21  N5  UNL     1      42.841  -4.615  27.667  1.00  0.00    -0.368 N 
HETATM   22  C9  UNL     1      43.456  -3.522  27.171  1.00  0.00     0.016 A 
ATOM     23  H5  UNL     1      42.943  -5.570  27.326  1.00  0.00     0.165 HD
HETATM   24  C10 UNL     1      43.071  -2.416  27.884  1.00  0.00    -0.026 A 
HETATM   25  C13 UNL     1      44.427  -3.155  26.117  1.00  0.00     0.058 C 
HETATM   26  C11 UNL     1      43.698  -1.203  27.350  1.00  0.00     0.041 C 
HETATM   27  C12 UNL     1      44.805  -1.746  26.451  1.00  0.00     0.011 C 
ENDBRANCH  18  19
ENDBRANCH   4  18
TORSDOF 4
ENDMDL
MODEL 5
REMARK VINA RESULT: -6.572721609      2.270      3.090
REMARK  4 active torsions:
REMARK  status: ('A' for Active; 'I' for Inactive)
REMARK    1  A    between atoms: N1_1  and  C1_4 
REMARK    2  A    between atoms: C2_9  and  C3_10 
REMARK    3  A    between atoms: N4_13  and  C6_14 
REMARK    4  A    between atoms: C6_14  and  C7_15 
ROOT
HETATM    1  C3  UNL     1      42.735  -1.698  30.347  1.00  0.00     0.042 C 
HETATM    2  C4  UNL     1      43.846  -1.492  31.308  1.00  0.00     0.041 C 
HETATM    3  C5  UNL     1      43.692  -0.551  32.417  1.00  0.00     0.273 C 
HETATM    4  N4  UNL     1      42.430  -0.048  32.774  1.00  0.00     0.092 N 
HETATM    5  C14 UNL     1      41.334  -0.545  31.962  1.00  0.00     0.273 C 
HETATM    6  C15 UNL     1      41.691  -0.575  30.514  1.00  0.00     0.041 C 
ENDROOT
BRANCH   1   7
HETATM    7  C2  UNL     1      43.142  -1.767  28.927  1.00  0.00     0.051 A 
HETATM    8  N3  UNL     1      43.497  -0.776  28.101  1.00  0.00    -0.301 N 
HETATM    9  N2  UNL     1      43.774  -1.222  26.879  1.00  0.00    -0.284 N 
ATOM     10  H3  UNL     1      43.550   0.205  28.376  1.00  0.00     0.186 HD
HETATM   11  C1  UNL     1      43.590  -2.553  26.919  1.00  0.00     0.133 A 
ATOM     12  H2  UNL     1      44.067  -0.667  26.075  1.00  0.00     0.188 HD
HETATM   13  C16 UNL     1      43.195  -2.934  28.178  1.00  0.00     0.080 A 
HETATM   14 BR1  UNL     1      42.794  -4.670  28.861  1.00  0.00    -0.045 Br
BRANCH  11  15
HETATM   15  N1  UNL     1      43.760  -3.388  25.924  1.00  0.00    -0.383 N 
ATOM     16  H12 UNL     1      43.055  -3.570  25.209  1.00  0.00     0.157 HD
ATOM     17  H11 UNL     1      44.592  -3.950  25.744  1.00  0.00     0.157 HD
ENDBRANCH  11  15
ENDBRANCH   1   7
BRANCH   4  18
HETATM   18  C6  UNL     1      42.016  -0.230  34.148  1.00  0.00     0.313 C 
BRANCH  18  19
HETATM   19  C7  UNL     1      42.929   0.285  35.162  1.00  0.00    -0.006 A 
HETATM   20  C8  UNL     1      43.462  -0.543  36.158  1.00  0.00     0.097 A 
HETATM   21  N5  UNL     1      44.192   0.160  36.996  1.00  0.00    -0.368 N 
HETATM   22  C9  UNL     1      44.160   1.443  36.585  1.00  0.00     0.016 A 
ATOM     23  H5  UNL     1      44.692  -0.201  37.808  1.00  0.00     0.165 HD
HETATM   24  C10 UNL     1      43.389   1.545  35.456  1.00  0.00    -0.026 A 
HETATM   25  C13 UNL     1      44.678   2.769  36.987  1.00  0.00     0.058 C 
HETATM   26  C11 UNL     1      43.359   2.926  34.963  1.00  0.00     0.041 C 
HETATM   27  C12 UNL     1      43.905   3.730  36.139  1.00  0.00     0.011 C 
ENDBRANCH  18  19
ENDBRANCH   4  18
TORSDOF 4
ENDMDL
