MODEL 1
REMARK VINA RESULT: -7.173416323      0.000      0.000
REMARK  4 active torsions:
REMARK  status: ('A' for Active; 'I' for Inactive)
REMARK    1  A    between atoms: N1_1  and  C1_4 
REMARK    2  A    between atoms: C3_8  and  C4_9 
REMARK    3  A    between atoms: C7_12  and  C8_13 
REMARK       I    between atoms: C8_13  and  N3_15 
REMARK    4  A    between atoms: N3_15  and  C9_17 
ROOT
HETATM    1  C4  UNL     1      42.792  -2.810  29.010  1.00  0.00     0.018 C 
HETATM    2  C5  UNL     1      41.340  -2.358  28.839  1.00  0.00     0.018 C 
HETATM    3  C6  UNL     1      41.064  -1.887  30.270  1.00  0.00     0.020 C 
HETATM    4  C7  UNL     1      42.384  -1.665  30.923  1.00  0.00     0.043 C 
HETATM    5  C14 UNL     1      42.853  -3.024  31.428  1.00  0.00     0.036 C 
HETATM    6  C15 UNL     1      42.785  -3.808  30.102  1.00  0.00     0.073 C 
HETATM    7 BR1  UNL     1      44.142  -5.139  30.062  1.00  0.00    -0.090 Br
HETATM    8  C16 UNL     1      43.319  -1.553  29.716  1.00  0.00     0.036 C 
ENDROOT
BRANCH   1   9
HETATM    9  C3  UNL     1      43.438  -3.116  27.763  1.00  0.00     0.052 A 
HETATM   10  C2  UNL     1      44.414  -2.290  27.170  1.00  0.00     0.132 A 
HETATM   11  N2  UNL     1      44.809  -2.862  26.032  1.00  0.00    -0.200 N 
HETATM   12  C1  UNL     1      44.118  -4.014  25.890  1.00  0.00     0.675 A 
ATOM     13  H2  UNL     1      45.508  -2.495  25.386  1.00  0.00     0.183 HD
HETATM   14  N4  UNL     1      43.282  -4.151  26.965  1.00  0.00    -0.194 N 
ATOM     15  H4  UNL     1      42.641  -4.930  27.122  1.00  0.00     0.184 HD
BRANCH  12  16
HETATM   16  N1  UNL     1      44.250  -4.809  24.904  1.00  0.00    -0.234 N 
ATOM     17  H12 UNL     1      45.093  -5.305  24.615  1.00  0.00     0.174 HD
ATOM     18  H11 UNL     1      43.495  -5.056  24.264  1.00  0.00     0.174 HD
ENDBRANCH  12  16
ENDBRANCH   1   9
BRANCH   4  19
HETATM   19  C8  UNL     1      42.481  -0.602  31.881  1.00  0.00     0.226 C 
HETATM   20  O1  UNL     1      41.443  -0.009  32.271  1.00  0.00    -0.273 OA
HETATM   21  N3  UNL     1      43.709  -0.187  32.412  1.00  0.00    -0.356 N 
ATOM     22  H3  UNL     1      44.555  -0.662  32.097  1.00  0.00     0.162 HD
BRANCH  21  23
HETATM   23  C9  UNL     1      43.844   0.885  33.389  1.00  0.00     0.084 C 
HETATM   24  C10 UNL     1      45.250   1.353  33.553  1.00  0.00     0.025 C 
HETATM   25  C11 UNL     1      45.845   0.645  34.719  1.00  0.00     0.002 C 
HETATM   26  C12 UNL     1      44.734  -0.059  35.417  1.00  0.00     0.002 C 
HETATM   27  C13 UNL     1      43.451   0.437  34.777  1.00  0.00     0.025 C 
ENDBRANCH  21  23
ENDBRANCH   4  19
TORSDOF 4
ENDMDL
MODEL 2
REMARK VINA RESULT: -6.571319202      1.109      1.475
REMARK  4 active torsions:
REMARK  status: ('A' for Active; 'I' for Inactive)
REMARK    1  A    between atoms: N1_1  and  C1_4 
REMARK    2  A    between atoms: C3_8  and  C4_9 
REMARK    3  A    between atoms: C7_12  and  C8_13 
REMARK       I    between atoms: C8_13  and  N3_15 
REMARK    4  A    between atoms: N3_15  and  C9_17 
ROOT
HETATM    1  C4  UNL     1      42.819  -2.810  29.150  1.00  0.00     0.018 C 
HETATM    2  C5  UNL     1      41.381  -2.306  29.004  1.00  0.00     0.018 C 
HETATM    3  C6  UNL     1      41.126  -1.881  30.452  1.00  0.00     0.020 C 
HETATM    4  C7  UNL     1      42.455  -1.726  31.107  1.00  0.00     0.043 C 
HETATM    5  C14 UNL     1      42.881  -3.118  31.558  1.00  0.00     0.036 C 
HETATM    6  C15 UNL     1      42.783  -3.848  30.204  1.00  0.00     0.073 C 
HETATM    7 BR1  UNL     1      44.097  -5.219  30.106  1.00  0.00    -0.090 Br
HETATM    8  C16 UNL     1      43.389  -1.598  29.901  1.00  0.00     0.036 C 
ENDROOT
BRANCH   1   9
HETATM    9  C3  UNL     1      43.451  -3.088  27.889  1.00  0.00     0.052 A 
HETATM   10  C2  UNL     1      44.420  -2.251  27.304  1.00  0.00     0.132 A 
HETATM   11  N2  UNL     1      44.802  -2.797  26.149  1.00  0.00    -0.200 N 
HETATM   12  C1  UNL     1      44.109  -3.946  25.990  1.00  0.00     0.675 A 
ATOM     13  H2  UNL     1      45.494  -2.416  25.504  1.00  0.00     0.183 HD
HETATM   14  N4  UNL     1      43.284  -4.106  27.071  1.00  0.00    -0.194 N 
ATOM     15  H4  UNL     1      42.645  -4.887  27.218  1.00  0.00     0.184 HD
BRANCH  12  16
HETATM   16  N1  UNL     1      44.229  -4.719  24.985  1.00  0.00    -0.234 N 
ATOM     17  H12 UNL     1      43.744  -4.653  24.090  1.00  0.00     0.174 HD
ATOM     18  H11 UNL     1      44.853  -5.525  24.955  1.00  0.00     0.174 HD
ENDBRANCH  12  16
ENDBRANCH   1   9
BRANCH   4  19
HETATM   19  C8  UNL     1      42.589  -0.704  32.104  1.00  0.00     0.226 C 
HETATM   20  O1  UNL     1      43.090   0.409  31.802  1.00  0.00    -0.273 OA
HETATM   21  N3  UNL     1      42.177  -0.896  33.429  1.00  0.00    -0.356 N 
ATOM     22  H3  UNL     1      41.773  -1.799  33.681  1.00  0.00     0.162 HD
BRANCH  21  23
HETATM   23  C9  UNL     1      42.294   0.121  34.466  1.00  0.00     0.084 C 
HETATM   24  C10 UNL     1      43.547  -0.001  35.265  1.00  0.00     0.025 C 
HETATM   25  C11 UNL     1      43.238  -0.772  36.500  1.00  0.00     0.002 C 
HETATM   26  C12 UNL     1      41.757  -0.899  36.578  1.00  0.00     0.002 C 
HETATM   27  C13 UNL     1      41.197   0.005  35.497  1.00  0.00     0.025 C 
ENDBRANCH  21  23
ENDBRANCH   4  19
TORSDOF 4
ENDMDL
MODEL 3
REMARK VINA RESULT: -6.508508750      1.648      2.159
REMARK  4 active torsions:
REMARK  status: ('A' for Active; 'I' for Inactive)
REMARK    1  A    between atoms: N1_1  and  C1_4 
REMARK    2  A    between atoms: C3_8  and  C4_9 
REMARK    3  A    between atoms: C7_12  and  C8_13 
REMARK       I    between atoms: C8_13  and  N3_15 
REMARK    4  A    between atoms: N3_15  and  C9_17 
ROOT
HETATM    1  C4  UNL     1      42.960  -2.340  30.210  1.00  0.00     0.018 C 
HETATM    2  C5  UNL     1      41.863  -1.276  30.134  1.00  0.00     0.018 C 
HETATM    3  C6  UNL     1      42.069  -0.618  31.501  1.00  0.00     0.020 C 
HETATM    4  C7  UNL     1      43.434  -0.988  31.967  1.00  0.00     0.043 C 
HETATM    5  C14 UNL     1      43.315  -2.363  32.612  1.00  0.00     0.036 C 
HETATM    6  C15 UNL     1      42.683  -3.128  31.432  1.00  0.00     0.073 C 
HETATM    7 BR1  UNL     1      43.267  -4.937  31.440  1.00  0.00    -0.090 Br
HETATM    8  C16 UNL     1      44.107  -1.423  30.663  1.00  0.00     0.036 C 
ENDROOT
BRANCH   1   9
HETATM    9  C3  UNL     1      43.184  -3.011  28.959  1.00  0.00     0.052 A 
HETATM   10  C2  UNL     1      42.350  -4.031  28.463  1.00  0.00     0.132 A 
HETATM   11  N2  UNL     1      42.833  -4.431  27.286  1.00  0.00    -0.200 N 
HETATM   12  C1  UNL     1      43.939  -3.700  27.027  1.00  0.00     0.675 A 
ATOM     13  H2  UNL     1      42.438  -5.158  26.690  1.00  0.00     0.183 HD
HETATM   14  N4  UNL     1      44.137  -2.833  28.067  1.00  0.00    -0.194 N 
ATOM     15  H4  UNL     1      44.899  -2.158  28.140  1.00  0.00     0.184 HD
BRANCH  12  16
HETATM   16  N1  UNL     1      44.652  -3.830  25.980  1.00  0.00    -0.234 N 
ATOM     17  H12 UNL     1      44.556  -4.533  25.247  1.00  0.00     0.174 HD
ATOM     18  H11 UNL     1      45.433  -3.219  25.740  1.00  0.00     0.174 HD
ENDBRANCH  12  16
ENDBRANCH   1   9
BRANCH   4  19
HETATM   19  C8  UNL     1      44.157  -0.021  32.742  1.00  0.00     0.226 C 
HETATM   20  O1  UNL     1      45.373   0.195  32.505  1.00  0.00    -0.273 OA
HETATM   21  N3  UNL     1      43.553   0.709  33.773  1.00  0.00    -0.356 N 
ATOM     22  H3  UNL     1      42.567   0.536  33.972  1.00  0.00     0.162 HD
BRANCH  21  23
HETATM   23  C9  UNL     1      44.255   1.702  34.576  1.00  0.00     0.084 C 
HETATM   24  C10 UNL     1      44.754   1.158  35.872  1.00  0.00     0.025 C 
HETATM   25  C11 UNL     1      43.754   1.475  36.927  1.00  0.00     0.002 C 
HETATM   26  C12 UNL     1      42.775   2.425  36.331  1.00  0.00     0.002 C 
HETATM   27  C13 UNL     1      43.350   2.837  34.988  1.00  0.00     0.025 C 
ENDBRANCH  21  23
ENDBRANCH   4  19
TORSDOF 4
ENDMDL
MODEL 4
REMARK VINA RESULT: -6.477681527      1.324      1.843
REMARK  4 active torsions:
REMARK  status: ('A' for Active; 'I' for Inactive)
REMARK    1  A    between atoms: N1_1  and  C1_4 
REMARK    2  A    between atoms: C3_8  and  C4_9 
REMARK    3  A    between atoms: C7_12  and  C8_13 
REMARK       I    between atoms: C8_13  and  N3_15 
REMARK    4  A    between atoms: N3_15  and  C9_17 
ROOT
HETATM    1  C4  UNL     1      42.764  -2.569  30.308  1.00  0.00     0.018 C 
HETATM    2  C5  UNL     1      41.492  -1.718  30.289  1.00  0.00     0.018 C 
HETATM    3  C6  UNL     1      41.610  -1.076  31.674  1.00  0.00     0.020 C 
HETATM    4  C7  UNL     1      43.030  -1.209  32.102  1.00  0.00     0.043 C 
HETATM    5  C14 UNL     1      43.175  -2.602  32.701  1.00  0.00     0.036 C 
HETATM    6  C15 UNL     1      42.662  -3.431  31.506  1.00  0.00     0.073 C 
HETATM    7 BR1  UNL     1      43.561  -5.105  31.441  1.00  0.00    -0.090 Br
HETATM    8  C16 UNL     1      43.738  -1.475  30.771  1.00  0.00     0.036 C 
ENDROOT
BRANCH   1   9
HETATM    9  C3  UNL     1      43.074  -3.149  29.030  1.00  0.00     0.052 A 
HETATM   10  C2  UNL     1      42.327  -4.191  28.447  1.00  0.00     0.132 A 
HETATM   11  N2  UNL     1      42.875  -4.489  27.269  1.00  0.00    -0.200 N 
HETATM   12  C1  UNL     1      43.937  -3.672  27.092  1.00  0.00     0.675 A 
ATOM     13  H2  UNL     1      42.550  -5.204  26.618  1.00  0.00     0.183 HD
HETATM   14  N4  UNL     1      44.041  -2.856  28.185  1.00  0.00    -0.194 N 
ATOM     15  H4  UNL     1      44.752  -2.138  28.324  1.00  0.00     0.184 HD
BRANCH  12  16
HETATM   16  N1  UNL     1      44.691  -3.694  26.066  1.00  0.00    -0.234 N 
ATOM     17  H12 UNL     1      44.899  -4.491  25.465  1.00  0.00     0.174 HD
ATOM     18  H11 UNL     1      45.194  -2.881  25.708  1.00  0.00     0.174 HD
ENDBRANCH  12  16
ENDBRANCH   1   9
BRANCH   4  19
HETATM   19  C8  UNL     1      43.586  -0.152  32.897  1.00  0.00     0.226 C 
HETATM   20  O1  UNL     1      43.684   1.008  32.422  1.00  0.00    -0.273 OA
HETATM   21  N3  UNL     1      44.034  -0.362  34.207  1.00  0.00    -0.356 N 
ATOM     22  H3  UNL     1      43.961  -1.302  34.596  1.00  0.00     0.162 HD
BRANCH  21  23
HETATM   23  C9  UNL     1      44.600   0.689  35.044  1.00  0.00     0.084 C 
HETATM   24  C10 UNL     1      46.057   0.509  35.302  1.00  0.00     0.025 C 
HETATM   25  C11 UNL     1      46.218  -0.181  36.610  1.00  0.00     0.002 C 
HETATM   26  C12 UNL     1      44.881  -0.195  37.265  1.00  0.00     0.002 C 
HETATM   27  C13 UNL     1      43.989   0.700  36.424  1.00  0.00     0.025 C 
ENDBRANCH  21  23
ENDBRANCH   4  19
TORSDOF 4
ENDMDL
MODEL 5
REMARK VINA RESULT: -6.433209753      2.632      3.571
REMARK  4 active torsions:
REMARK  status: ('A' for Active; 'I' for Inactive)
REMARK    1  A    between atoms: N1_1  and  C1_4 
REMARK    2  A    between atoms: C3_8  and  C4_9 
REMARK    3  A    between atoms: C7_12  and  C8_13 
REMARK       I    between atoms: C8_13  and  N3_15 
REMARK    4  A    between atoms: N3_15  and  C9_17 
ROOT
HETATM    1  C4  UNL     1      42.135  -3.075  29.132  1.00  0.00     0.018 C 
HETATM    2  C5  UNL     1      40.641  -3.099  28.800  1.00  0.00     0.018 C 
HETATM    3  C6  UNL     1      40.084  -2.675  30.162  1.00  0.00     0.020 C 
HETATM    4  C7  UNL     1      41.198  -2.030  30.912  1.00  0.00     0.043 C 
HETATM    5  C14 UNL     1      41.998  -3.156  31.555  1.00  0.00     0.036 C 
HETATM    6  C15 UNL     1      42.312  -3.979  30.290  1.00  0.00     0.073 C 
HETATM    7 BR1  UNL     1      44.004  -4.827  30.469  1.00  0.00    -0.090 Br
HETATM    8  C16 UNL     1      42.179  -1.687  29.789  1.00  0.00     0.036 C 
ENDROOT
BRANCH   1   9
HETATM    9  C3  UNL     1      42.974  -3.219  27.974  1.00  0.00     0.052 A 
HETATM   10  C2  UNL     1      43.913  -2.252  27.568  1.00  0.00     0.132 A 
HETATM   11  N2  UNL     1      44.522  -2.696  26.468  1.00  0.00    -0.200 N 
HETATM   12  C1  UNL     1      43.999  -3.905  26.170  1.00  0.00     0.675 A 
ATOM     13  H2  UNL     1      45.251  -2.209  25.947  1.00  0.00     0.183 HD
HETATM   14  N4  UNL     1      43.050  -4.208  27.108  1.00  0.00    -0.194 N 
ATOM     15  H4  UNL     1      42.492  -5.062  27.132  1.00  0.00     0.184 HD
BRANCH  12  16
HETATM   16  N1  UNL     1      44.355  -4.611  25.171  1.00  0.00    -0.234 N 
ATOM     17  H12 UNL     1      44.672  -4.280  24.259  1.00  0.00     0.174 HD
ATOM     18  H11 UNL     1      44.371  -5.631  25.168  1.00  0.00     0.174 HD
ENDBRANCH  12  16
ENDBRANCH   1   9
BRANCH   4  19
HETATM   19  C8  UNL     1      40.866  -0.948  31.794  1.00  0.00     0.226 C 
HETATM   20  O1  UNL     1      41.743  -0.107  32.117  1.00  0.00    -0.273 OA
HETATM   21  N3  UNL     1      39.579  -0.785  32.321  1.00  0.00    -0.356 N 
ATOM     22  H3  UNL     1      38.863  -1.466  32.065  1.00  0.00     0.162 HD
BRANCH  21  23
HETATM   23  C9  UNL     1      39.206   0.303  33.215  1.00  0.00     0.084 C 
HETATM   24  C10 UNL     1      38.458  -0.159  34.419  1.00  0.00     0.025 C 
HETATM   25  C11 UNL     1      37.001  -0.013  34.148  1.00  0.00     0.002 C 
HETATM   26  C12 UNL     1      36.867   0.771  32.890  1.00  0.00     0.002 C 
HETATM   27  C13 UNL     1      38.258   1.276  32.556  1.00  0.00     0.025 C 
ENDBRANCH  21  23
ENDBRANCH   4  19
TORSDOF 4
ENDMDL
