MODEL 1
REMARK VINA RESULT: -7.913014956      0.000      0.000
REMARK  6 active torsions:
REMARK  status: ('A' for Active; 'I' for Inactive)
REMARK    1  A    between atoms: C2_2  and  C3_3 
REMARK    2  A    between atoms: C3_3  and  C4_4 
REMARK    3  A    between atoms: C4_4  and  N1_5 
REMARK       I    between atoms: N1_5  and  C5_7 
REMARK       I    between atoms: C5_7  and  N2_9 
REMARK    4  A    between atoms: N2_9  and  C6_11 
REMARK    5  A    between atoms: C12_17  and  N3_18 
REMARK    6  A    between atoms: N3_18  and  C13_20 
ROOT
HETATM    1  C6  UNL     1      43.003  -3.162  30.821  1.00  0.00     0.095 C 
HETATM    2  C7  UNL     1      41.595  -3.049  30.295  1.00  0.00     0.011 C 
HETATM    3  C8  UNL     1      40.644  -4.033  30.919  1.00  0.00     0.011 C 
HETATM    4  C9  UNL     1      41.183  -5.416  31.032  1.00  0.00    -0.013 C 
HETATM    5  C10 UNL     1      41.658  -6.025  29.755  1.00  0.00     0.011 C 
HETATM    6  C11 UNL     1      42.962  -5.274  29.490  1.00  0.00     0.015 C 
HETATM    7  C12 UNL     1      42.655  -4.296  28.391  1.00  0.00     0.088 C 
HETATM    8  C17 UNL     1      41.684  -3.222  28.792  1.00  0.00     0.032 C 
HETATM    9  C18 UNL     1      43.364  -4.626  30.789  1.00  0.00     0.015 C 
HETATM   10  C19 UNL     1      42.508  -5.335  31.807  1.00  0.00     0.011 C 
ENDROOT
BRANCH   7  11
HETATM   11  N3  UNL     1      43.840  -3.783  27.733  1.00  0.00    -0.370 N 
ATOM     12  H3  UNL     1      44.720  -3.794  28.249  1.00  0.00     0.161 HD
BRANCH  11  13
HETATM   13  C13 UNL     1      43.845  -3.319  26.546  1.00  0.00     0.125 A 
HETATM   14  N4  UNL     1      43.806  -4.028  25.412  1.00  0.00    -0.284 N 
HETATM   15  N5  UNL     1      43.827  -3.197  24.364  1.00  0.00    -0.288 N 
ATOM     16  H4  UNL     1      43.767  -5.045  25.355  1.00  0.00     0.188 HD
HETATM   17  C14 UNL     1      43.880  -1.922  24.780  1.00  0.00     0.127 A 
ATOM     18  H5  UNL     1      43.806  -3.491  23.388  1.00  0.00     0.188 HD
HETATM   19 CL1  UNL     1      43.925  -0.495  23.788  1.00  0.00    -0.062 Cl
HETATM   20  C15 UNL     1      43.893  -1.999  26.177  1.00  0.00     0.023 A 
HETATM   21  C16 UNL     1      43.947  -0.806  27.043  1.00  0.00     0.056 C 
ENDBRANCH  11  13
ENDBRANCH   7  11
BRANCH   1  22
HETATM   22  N2  UNL     1      43.120  -2.528  32.093  1.00  0.00    -0.338 N 
HETATM   23  C5  UNL     1      43.390  -1.145  32.257  1.00  0.00     0.316 C 
HETATM   24  N1  UNL     1      43.501  -0.538  33.525  1.00  0.00    -0.343 N 
HETATM   25  O1  UNL     1      43.533  -0.448  31.230  1.00  0.00    -0.247 OA
ATOM     26  H1  UNL     1      43.375  -1.139  34.340  1.00  0.00     0.164 HD
ATOM     27  H2  UNL     1      43.002  -3.099  32.929  1.00  0.00     0.164 HD
BRANCH  24  28
HETATM   28  C4  UNL     1      43.775   0.844  33.771  1.00  0.00     0.124 C 
BRANCH  28  29
HETATM   29  C3  UNL     1      45.219   1.095  34.150  1.00  0.00     0.019 C 
BRANCH  29  30
HETATM   30  C2  UNL     1      45.382   0.907  35.666  1.00  0.00    -0.003 C 
HETATM   31  C1  UNL     1      45.386   2.240  36.353  1.00  0.00     0.005 C 
ENDBRANCH  29  30
ENDBRANCH  28  29
ENDBRANCH  24  28
ENDBRANCH   1  22
TORSDOF 6
ENDMDL
MODEL 2
REMARK VINA RESULT: -7.638857897      0.950      1.235
REMARK  6 active torsions:
REMARK  status: ('A' for Active; 'I' for Inactive)
REMARK    1  A    between atoms: C2_2  and  C3_3 
REMARK    2  A    between atoms: C3_3  and  C4_4 
REMARK    3  A    between atoms: C4_4  and  N1_5 
REMARK       I    between atoms: N1_5  and  C5_7 
REMARK       I    between atoms: C5_7  and  N2_9 
REMARK    4  A    between atoms: N2_9  and  C6_11 
REMARK    5  A    between atoms: C12_17  and  N3_18 
REMARK    6  A    between atoms: N3_18  and  C13_20 
ROOT
HETATM    1  C6  UNL     1      43.014  -3.115  30.768  1.00  0.00     0.095 C 
HETATM    2  C7  UNL     1      41.610  -3.041  30.224  1.00  0.00     0.011 C 
HETATM    3  C8  UNL     1      40.686  -4.072  30.814  1.00  0.00     0.011 C 
HETATM    4  C9  UNL     1      41.273  -5.436  30.907  1.00  0.00    -0.013 C 
HETATM    5  C10 UNL     1      41.788  -6.001  29.624  1.00  0.00     0.011 C 
HETATM    6  C11 UNL     1      43.068  -5.198  29.394  1.00  0.00     0.015 C 
HETATM    7  C12 UNL     1      42.741  -4.209  28.310  1.00  0.00     0.088 C 
HETATM    8  C17 UNL     1      41.726  -3.179  28.719  1.00  0.00     0.032 C 
HETATM    9  C18 UNL     1      43.427  -4.564  30.712  1.00  0.00     0.015 C 
HETATM   10  C19 UNL     1      42.584  -5.324  31.703  1.00  0.00     0.011 C 
ENDROOT
BRANCH   7  11
HETATM   11  N3  UNL     1      43.915  -3.641  27.680  1.00  0.00    -0.370 N 
ATOM     12  H3  UNL     1      44.801  -4.137  27.778  1.00  0.00     0.161 HD
BRANCH  11  13
HETATM   13  C13 UNL     1      43.904  -2.556  27.012  1.00  0.00     0.125 A 
HETATM   14  N4  UNL     1      43.908  -1.313  27.507  1.00  0.00    -0.284 N 
HETATM   15  N5  UNL     1      43.893  -0.431  26.502  1.00  0.00    -0.288 N 
ATOM     16  H4  UNL     1      43.921  -1.075  28.498  1.00  0.00     0.188 HD
HETATM   17  C14 UNL     1      43.879  -1.069  25.321  1.00  0.00     0.127 A 
ATOM     18  H5  UNL     1      43.892   0.582  26.617  1.00  0.00     0.188 HD
HETATM   19 CL1  UNL     1      43.855  -0.349  23.739  1.00  0.00    -0.062 Cl
HETATM   20  C15 UNL     1      43.885  -2.430  25.646  1.00  0.00     0.023 A 
HETATM   21  C16 UNL     1      43.873  -3.496  24.626  1.00  0.00     0.056 C 
ENDBRANCH  11  13
ENDBRANCH   7  11
BRANCH   1  22
HETATM   22  N2  UNL     1      43.089  -2.503  32.054  1.00  0.00    -0.338 N 
HETATM   23  C5  UNL     1      43.340  -1.121  32.251  1.00  0.00     0.316 C 
HETATM   24  N1  UNL     1      43.411  -0.537  33.533  1.00  0.00    -0.343 N 
HETATM   25  O1  UNL     1      43.504  -0.403  31.242  1.00  0.00    -0.247 OA
ATOM     26  H1  UNL     1      43.269  -1.154  34.332  1.00  0.00     0.164 HD
ATOM     27  H2  UNL     1      42.954  -3.091  32.876  1.00  0.00     0.164 HD
BRANCH  24  28
HETATM   28  C4  UNL     1      43.664   0.843  33.812  1.00  0.00     0.124 C 
BRANCH  28  29
HETATM   29  C3  UNL     1      45.116   1.116  34.139  1.00  0.00     0.019 C 
BRANCH  29  30
HETATM   30  C2  UNL     1      45.333   0.943  35.650  1.00  0.00    -0.003 C 
HETATM   31  C1  UNL     1      45.341   2.281  36.327  1.00  0.00     0.005 C 
ENDBRANCH  29  30
ENDBRANCH  28  29
ENDBRANCH  24  28
ENDBRANCH   1  22
TORSDOF 6
ENDMDL
MODEL 3
REMARK VINA RESULT: -7.230657216      1.987      2.828
REMARK  6 active torsions:
REMARK  status: ('A' for Active; 'I' for Inactive)
REMARK    1  A    between atoms: C2_2  and  C3_3 
REMARK    2  A    between atoms: C3_3  and  C4_4 
REMARK    3  A    between atoms: C4_4  and  N1_5 
REMARK       I    between atoms: N1_5  and  C5_7 
REMARK       I    between atoms: C5_7  and  N2_9 
REMARK    4  A    between atoms: N2_9  and  C6_11 
REMARK    5  A    between atoms: C12_17  and  N3_18 
REMARK    6  A    between atoms: N3_18  and  C13_20 
ROOT
HETATM    1  C6  UNL     1      42.716  -0.782  32.353  1.00  0.00     0.095 C 
HETATM    2  C7  UNL     1      41.291  -0.758  31.864  1.00  0.00     0.011 C 
HETATM    3  C8  UNL     1      40.409  -1.770  32.542  1.00  0.00     0.011 C 
HETATM    4  C9  UNL     1      41.023  -3.119  32.679  1.00  0.00    -0.013 C 
HETATM    5  C10 UNL     1      41.495  -3.741  31.406  1.00  0.00     0.011 C 
HETATM    6  C11 UNL     1      42.751  -2.931  31.084  1.00  0.00     0.015 C 
HETATM    7  C12 UNL     1      42.364  -2.004  29.967  1.00  0.00     0.088 C 
HETATM    8  C17 UNL     1      41.349  -0.970  30.364  1.00  0.00     0.032 C 
HETATM    9  C18 UNL     1      43.152  -2.226  32.353  1.00  0.00     0.015 C 
HETATM   10  C19 UNL     1      42.362  -2.948  33.414  1.00  0.00     0.011 C 
ENDROOT
BRANCH   7  11
HETATM   11  N3  UNL     1      43.502  -1.450  29.262  1.00  0.00    -0.370 N 
ATOM     12  H3  UNL     1      44.237  -1.003  29.811  1.00  0.00     0.161 HD
BRANCH  11  13
HETATM   13  C13 UNL     1      43.638  -1.490  27.996  1.00  0.00     0.125 A 
HETATM   14  N4  UNL     1      43.804  -0.445  27.178  1.00  0.00    -0.284 N 
HETATM   15  N5  UNL     1      43.911  -0.876  25.916  1.00  0.00    -0.288 N 
ATOM     16  H4  UNL     1      43.842   0.531  27.470  1.00  0.00     0.188 HD
HETATM   17  C14 UNL     1      43.819  -2.214  25.871  1.00  0.00     0.127 A 
ATOM     18  H5  UNL     1      44.043  -0.273  25.104  1.00  0.00     0.188 HD
HETATM   19 CL1  UNL     1      43.900  -3.225  24.459  1.00  0.00    -0.062 Cl
HETATM   20  C15 UNL     1      43.644  -2.609  27.202  1.00  0.00     0.023 A 
HETATM   21  C16 UNL     1      43.498  -4.020  27.605  1.00  0.00     0.056 C 
ENDBRANCH  11  13
ENDBRANCH   7  11
BRANCH   1  22
HETATM   22  N2  UNL     1      42.833  -0.106  33.603  1.00  0.00    -0.338 N 
HETATM   23  C5  UNL     1      44.014   0.552  34.031  1.00  0.00     0.316 C 
HETATM   24  N1  UNL     1      44.108   1.215  35.272  1.00  0.00    -0.343 N 
HETATM   25  O1  UNL     1      45.005   0.537  33.270  1.00  0.00    -0.247 OA
ATOM     26  H1  UNL     1      43.278   1.209  35.865  1.00  0.00     0.164 HD
ATOM     27  H2  UNL     1      42.023  -0.095  34.223  1.00  0.00     0.164 HD
BRANCH  24  28
HETATM   28  C4  UNL     1      45.262   1.895  35.774  1.00  0.00     0.124 C 
BRANCH  28  29
HETATM   29  C3  UNL     1      44.936   2.838  36.912  1.00  0.00     0.019 C 
BRANCH  29  30
HETATM   30  C2  UNL     1      44.025   3.960  36.392  1.00  0.00    -0.003 C 
HETATM   31  C1  UNL     1      43.669   4.895  37.509  1.00  0.00     0.005 C 
ENDBRANCH  29  30
ENDBRANCH  28  29
ENDBRANCH  24  28
ENDBRANCH   1  22
TORSDOF 6
ENDMDL
MODEL 4
REMARK VINA RESULT: -7.153391250      3.178      7.582
REMARK  6 active torsions:
REMARK  status: ('A' for Active; 'I' for Inactive)
REMARK    1  A    between atoms: C2_2  and  C3_3 
REMARK    2  A    between atoms: C3_3  and  C4_4 
REMARK    3  A    between atoms: C4_4  and  N1_5 
REMARK       I    between atoms: N1_5  and  C5_7 
REMARK       I    between atoms: C5_7  and  N2_9 
REMARK    4  A    between atoms: N2_9  and  C6_11 
REMARK    5  A    between atoms: C12_17  and  N3_18 
REMARK    6  A    between atoms: N3_18  and  C13_20 
ROOT
HETATM    1  C6  UNL     1      42.288  -2.096  30.435  1.00  0.00     0.095 C 
HETATM    2  C7  UNL     1      42.361  -3.096  31.560  1.00  0.00     0.011 C 
HETATM    3  C8  UNL     1      41.031  -3.712  31.901  1.00  0.00     0.011 C 
HETATM    4  C9  UNL     1      39.909  -2.737  31.973  1.00  0.00    -0.013 C 
HETATM    5  C10 UNL     1      40.110  -1.596  32.915  1.00  0.00     0.011 C 
HETATM    6  C11 UNL     1      41.137  -0.734  32.182  1.00  0.00     0.015 C 
HETATM    7  C12 UNL     1      42.444  -0.965  32.887  1.00  0.00     0.088 C 
HETATM    8  C17 UNL     1      42.967  -2.367  32.743  1.00  0.00     0.032 C 
HETATM    9  C18 UNL     1      41.131  -1.178  30.743  1.00  0.00     0.015 C 
HETATM   10  C19 UNL     1      39.862  -1.983  30.635  1.00  0.00     0.011 C 
ENDROOT
BRANCH   7  11
HETATM   11  N3  UNL     1      43.436   0.051  32.602  1.00  0.00    -0.370 N 
ATOM     12  H3  UNL     1      43.500   0.407  31.647  1.00  0.00     0.161 HD
BRANCH  11  13
HETATM   13  C13 UNL     1      44.235   0.524  33.474  1.00  0.00     0.125 A 
HETATM   14  N4  UNL     1      45.571   0.470  33.446  1.00  0.00    -0.284 N 
HETATM   15  N5  UNL     1      46.067   1.073  34.531  1.00  0.00    -0.288 N 
ATOM     16  H4  UNL     1      46.127   0.035  32.710  1.00  0.00     0.188 HD
HETATM   17  C14 UNL     1      45.072   1.540  35.302  1.00  0.00     0.127 A 
ATOM     18  H5  UNL     1      47.060   1.166  34.744  1.00  0.00     0.188 HD
HETATM   19 CL1  UNL     1      45.222   2.392  36.809  1.00  0.00    -0.062 Cl
HETATM   20  C15 UNL     1      43.898   1.188  34.626  1.00  0.00     0.023 A 
HETATM   21  C16 UNL     1      42.553   1.516  35.136  1.00  0.00     0.056 C 
ENDBRANCH  11  13
ENDBRANCH   7  11
BRANCH   1  22
HETATM   22  N2  UNL     1      42.227  -2.759  29.174  1.00  0.00    -0.338 N 
HETATM   23  C5  UNL     1      43.307  -2.795  28.255  1.00  0.00     0.316 C 
HETATM   24  N1  UNL     1      43.226  -3.456  27.012  1.00  0.00    -0.343 N 
HETATM   25  O1  UNL     1      44.367  -2.213  28.570  1.00  0.00    -0.247 OA
ATOM     26  H1  UNL     1      42.346  -3.923  26.792  1.00  0.00     0.164 HD
ATOM     27  H2  UNL     1      41.362  -3.234  28.920  1.00  0.00     0.164 HD
BRANCH  24  28
HETATM   28  C4  UNL     1      44.267  -3.532  26.034  1.00  0.00     0.124 C 
BRANCH  28  29
HETATM   29  C3  UNL     1      43.952  -2.740  24.783  1.00  0.00     0.019 C 
BRANCH  29  30
HETATM   30  C2  UNL     1      43.978  -1.241  25.116  1.00  0.00    -0.003 C 
HETATM   31  C1  UNL     1      43.839  -0.431  23.862  1.00  0.00     0.005 C 
ENDBRANCH  29  30
ENDBRANCH  28  29
ENDBRANCH  24  28
ENDBRANCH   1  22
TORSDOF 6
ENDMDL
MODEL 5
REMARK VINA RESULT: -7.133301519      2.775      5.155
REMARK  6 active torsions:
REMARK  status: ('A' for Active; 'I' for Inactive)
REMARK    1  A    between atoms: C2_2  and  C3_3 
REMARK    2  A    between atoms: C3_3  and  C4_4 
REMARK    3  A    between atoms: C4_4  and  N1_5 
REMARK       I    between atoms: N1_5  and  C5_7 
REMARK       I    between atoms: C5_7  and  N2_9 
REMARK    4  A    between atoms: N2_9  and  C6_11 
REMARK    5  A    between atoms: C12_17  and  N3_18 
REMARK    6  A    between atoms: N3_18  and  C13_20 
ROOT
HETATM    1  C6  UNL     1      42.899  -3.247  31.523  1.00  0.00     0.095 C 
HETATM    2  C7  UNL     1      42.763  -2.018  32.386  1.00  0.00     0.011 C 
HETATM    3  C8  UNL     1      41.348  -1.745  32.817  1.00  0.00     0.011 C 
HETATM    4  C9  UNL     1      40.340  -1.889  31.731  1.00  0.00    -0.013 C 
HETATM    5  C10 UNL     1      40.588  -1.061  30.514  1.00  0.00     0.011 C 
HETATM    6  C11 UNL     1      41.764  -1.779  29.854  1.00  0.00     0.015 C 
HETATM    7  C12 UNL     1      42.972  -0.929  30.133  1.00  0.00     0.088 C 
HETATM    8  C17 UNL     1      43.344  -0.868  31.587  1.00  0.00     0.032 C 
HETATM    9  C18 UNL     1      41.832  -3.155  30.462  1.00  0.00     0.015 C 
HETATM   10  C19 UNL     1      40.493  -3.300  31.140  1.00  0.00     0.011 C 
ENDROOT
BRANCH   7  11
HETATM   11  N3  UNL     1      44.093  -1.224  29.264  1.00  0.00    -0.370 N 
ATOM     12  H3  UNL     1      45.011  -1.352  29.691  1.00  0.00     0.161 HD
BRANCH  11  13
HETATM   13  C13 UNL     1      43.998  -1.332  27.999  1.00  0.00     0.125 A 
HETATM   14  N4  UNL     1      43.894  -0.331  27.117  1.00  0.00    -0.284 N 
HETATM   15  N5  UNL     1      43.816  -0.830  25.879  1.00  0.00    -0.288 N 
ATOM     16  H4  UNL     1      43.878   0.661  27.353  1.00  0.00     0.188 HD
HETATM   17  C14 UNL     1      43.865  -2.170  25.912  1.00  0.00     0.127 A 
ATOM     18  H5  UNL     1      43.729  -0.271  25.031  1.00  0.00     0.188 HD
HETATM   19 CL1  UNL     1      43.797  -3.258  24.558  1.00  0.00    -0.062 Cl
HETATM   20  C15 UNL     1      43.981  -2.494  27.269  1.00  0.00     0.023 A 
HETATM   21  C16 UNL     1      44.068  -3.884  27.756  1.00  0.00     0.056 C 
ENDBRANCH  11  13
ENDBRANCH   7  11
BRANCH   1  22
HETATM   22  N2  UNL     1      42.873  -4.428  32.321  1.00  0.00    -0.338 N 
HETATM   23  C5  UNL     1      43.462  -5.656  31.923  1.00  0.00     0.316 C 
HETATM   24  N1  UNL     1      43.424  -6.813  32.728  1.00  0.00    -0.343 N 
HETATM   25  O1  UNL     1      44.034  -5.701  30.813  1.00  0.00    -0.247 OA
ATOM     26  H1  UNL     1      42.951  -6.737  33.628  1.00  0.00     0.164 HD
ATOM     27  H2  UNL     1      42.406  -4.389  33.227  1.00  0.00     0.164 HD
BRANCH  24  28
HETATM   28  C4  UNL     1      43.989  -8.084  32.395  1.00  0.00     0.124 C 
BRANCH  28  29
HETATM   29  C3  UNL     1      45.357  -8.295  33.008  1.00  0.00     0.019 C 
BRANCH  29  30
HETATM   30  C2  UNL     1      46.432  -8.023  31.947  1.00  0.00    -0.003 C 
HETATM   31  C1  UNL     1      46.313  -9.012  30.826  1.00  0.00     0.005 C 
ENDBRANCH  29  30
ENDBRANCH  28  29
ENDBRANCH  24  28
ENDBRANCH   1  22
TORSDOF 6
ENDMDL
