MODEL 1
REMARK VINA RESULT: -7.864800538      0.000      0.000
REMARK  9 active torsions:
REMARK  status: ('A' for Active; 'I' for Inactive)
REMARK    1  A    between atoms: C2_2  and  O1_3 
REMARK    2  A    between atoms: C2_2  and  C3_5 
REMARK    3  A    between atoms: C3_5  and  C4_6 
REMARK    4  A    between atoms: C3_5  and  N2_19 
REMARK    5  A    between atoms: C4_6  and  C5_7 
REMARK    6  A    between atoms: C7_11  and  C8_12 
REMARK    7  A    between atoms: N2_19  and  S1_21 
REMARK    8  A    between atoms: S1_21  and  N3_24 
REMARK       I    between atoms: N3_24  and  C15_26 
REMARK       I    between atoms: C15_26  and  N4_28 
REMARK    9  A    between atoms: N4_28  and  C16_30 
ROOT
HETATM    1  N2  UNL     1      43.988  -0.169  34.948  1.00  0.00    -0.295 N 
ATOM      2  H2  UNL     1      44.274  -0.719  35.758  1.00  0.00     0.174 HD
ENDROOT
BRANCH   1   3
HETATM    3  C3  UNL     1      42.804  -0.430  34.158  1.00  0.00     0.127 C 
BRANCH   3   4
HETATM    4  C2  UNL     1      41.599  -0.413  35.033  1.00  0.00     0.137 C 
HETATM    5  C1  UNL     1      40.778   0.814  35.037  1.00  0.00     0.041 C 
BRANCH   4   6
HETATM    6  O1  UNL     1      41.912  -0.747  36.366  1.00  0.00    -0.394 OA
ATOM      7  H1  UNL     1      41.345  -0.247  36.943  1.00  0.00     0.210 HD
ENDBRANCH   4   6
ENDBRANCH   3   4
BRANCH   3   8
HETATM    8  C4  UNL     1      42.949  -1.562  33.219  1.00  0.00     0.068 C 
BRANCH   8   9
HETATM    9  C5  UNL     1      42.592  -1.351  31.826  1.00  0.00    -0.039 A 
HETATM   10  C6  UNL     1      41.584  -0.572  31.316  1.00  0.00     0.095 A 
HETATM   11  N1  UNL     1      41.609  -0.676  29.980  1.00  0.00    -0.368 N 
HETATM   12  C7  UNL     1      42.609  -1.505  29.608  1.00  0.00     0.013 A 
ATOM     13  H1  UNL     1      40.971  -0.202  29.342  1.00  0.00     0.165 HD
HETATM   14  C14 UNL     1      43.216  -1.922  30.750  1.00  0.00     0.034 A 
BRANCH  12  15
HETATM   15  C8  UNL     1      43.001  -1.912  28.234  1.00  0.00     0.035 C 
HETATM   16  C9  UNL     1      44.080  -1.020  27.652  1.00  0.00     0.011 C 
HETATM   17  C10 UNL     1      44.139  -1.333  26.172  1.00  0.00     0.001 C 
HETATM   18  C11 UNL     1      44.332  -2.776  25.862  1.00  0.00     0.000 C 
HETATM   19  C12 UNL     1      43.606  -3.732  26.741  1.00  0.00     0.001 C 
HETATM   20  C13 UNL     1      43.542  -3.325  28.186  1.00  0.00     0.011 C 
ENDBRANCH  12  15
ENDBRANCH   8   9
ENDBRANCH   3   8
ENDBRANCH   1   3
BRANCH   1  21
HETATM   21  S1  UNL     1      44.853   1.194  34.339  1.00  0.00     0.323 S 
HETATM   22  O2  UNL     1      44.013   1.906  33.289  1.00  0.00    -0.182 OA
HETATM   23  O3  UNL     1      46.091   0.723  33.625  1.00  0.00    -0.182 OA
BRANCH  21  24
HETATM   24  N3  UNL     1      45.208   2.337  35.564  1.00  0.00    -0.219 N 
HETATM   25  C15 UNL     1      44.588   2.257  36.819  1.00  0.00     0.336 C 
HETATM   26  O4  UNL     1      43.757   1.347  37.075  1.00  0.00    -0.246 OA
HETATM   27  N4  UNL     1      44.906   3.222  37.811  1.00  0.00    -0.293 N 
ATOM     28  H4  UNL     1      45.827   3.201  38.248  1.00  0.00     0.172 HD
ATOM     29  H3  UNL     1      45.877   3.083  35.379  1.00  0.00     0.185 HD
BRANCH  27  30
HETATM   30  C16 UNL     1      44.049   4.135  38.177  1.00  0.00     0.126 A 
HETATM   31  C17 UNL     1      43.237   4.176  39.276  1.00  0.00     0.093 A 
HETATM   32  C18 UNL     1      42.504   5.346  39.235  1.00  0.00     0.121 A 
HETATM   33 CL1  UNL     1      41.334   5.816  40.444  1.00  0.00    -0.063 Cl
HETATM   34  N5  UNL     1      42.883   5.984  38.122  1.00  0.00    -0.288 N 
HETATM   35  N6  UNL     1      43.803   5.261  37.493  1.00  0.00    -0.284 N 
ATOM     36  H5  UNL     1      42.522   6.885  37.807  1.00  0.00     0.188 HD
ATOM     37  H6  UNL     1      44.255   5.523  36.618  1.00  0.00     0.188 HD
ENDBRANCH  27  30
ENDBRANCH  21  24
ENDBRANCH   1  21
TORSDOF 9
ENDMDL
MODEL 2
REMARK VINA RESULT: -7.703928642      4.960     10.072
REMARK  9 active torsions:
REMARK  status: ('A' for Active; 'I' for Inactive)
REMARK    1  A    between atoms: C2_2  and  O1_3 
REMARK    2  A    between atoms: C2_2  and  C3_5 
REMARK    3  A    between atoms: C3_5  and  C4_6 
REMARK    4  A    between atoms: C3_5  and  N2_19 
REMARK    5  A    between atoms: C4_6  and  C5_7 
REMARK    6  A    between atoms: C7_11  and  C8_12 
REMARK    7  A    between atoms: N2_19  and  S1_21 
REMARK    8  A    between atoms: S1_21  and  N3_24 
REMARK       I    between atoms: N3_24  and  C15_26 
REMARK       I    between atoms: C15_26  and  N4_28 
REMARK    9  A    between atoms: N4_28  and  C16_30 
ROOT
HETATM    1  N2  UNL     1      41.585  -2.135  30.512  1.00  0.00    -0.295 N 
ATOM      2  H2  UNL     1      42.229  -1.566  29.962  1.00  0.00     0.174 HD
ENDROOT
BRANCH   1   3
HETATM    3  C3  UNL     1      40.862  -1.663  31.673  1.00  0.00     0.127 C 
BRANCH   3   4
HETATM    4  C2  UNL     1      40.215  -0.356  31.368  1.00  0.00     0.137 C 
HETATM    5  C1  UNL     1      38.757  -0.256  31.574  1.00  0.00     0.041 C 
BRANCH   4   6
HETATM    6  O1  UNL     1      40.516   0.089  30.066  1.00  0.00    -0.394 OA
ATOM      7  H1  UNL     1      39.878  -0.281  29.466  1.00  0.00     0.210 HD
ENDBRANCH   4   6
ENDBRANCH   3   4
BRANCH   3   8
HETATM    8  C4  UNL     1      41.623  -1.770  32.936  1.00  0.00     0.068 C 
BRANCH   8   9
HETATM    9  C5  UNL     1      42.662  -0.788  33.197  1.00  0.00    -0.039 A 
HETATM   10  C6  UNL     1      43.730  -0.449  32.405  1.00  0.00     0.095 A 
HETATM   11  N1  UNL     1      44.439   0.495  33.038  1.00  0.00    -0.368 N 
HETATM   12  C7  UNL     1      43.859   0.779  34.225  1.00  0.00     0.013 A 
ATOM     13  H1  UNL     1      45.287   0.933  32.680  1.00  0.00     0.165 HD
HETATM   14  C14 UNL     1      42.760  -0.015  34.323  1.00  0.00     0.034 A 
BRANCH  12  15
HETATM   15  C8  UNL     1      44.302   1.755  35.254  1.00  0.00     0.035 C 
HETATM   16  C9  UNL     1      43.231   2.778  35.580  1.00  0.00     0.011 C 
HETATM   17  C10 UNL     1      43.915   3.875  36.367  1.00  0.00     0.001 C 
HETATM   18  C11 UNL     1      44.657   3.393  37.564  1.00  0.00     0.000 C 
HETATM   19  C12 UNL     1      45.383   2.104  37.402  1.00  0.00     0.001 C 
HETATM   20  C13 UNL     1      44.666   1.086  36.562  1.00  0.00     0.011 C 
ENDBRANCH  12  15
ENDBRANCH   8   9
ENDBRANCH   3   8
ENDBRANCH   1   3
BRANCH   1  21
HETATM   21  S1  UNL     1      41.218  -3.788  30.180  1.00  0.00     0.323 S 
HETATM   22  O2  UNL     1      39.720  -3.944  29.957  1.00  0.00    -0.182 OA
HETATM   23  O3  UNL     1      41.543  -4.625  31.388  1.00  0.00    -0.182 OA
BRANCH  21  24
HETATM   24  N3  UNL     1      42.003  -4.356  28.768  1.00  0.00    -0.219 N 
HETATM   25  C15 UNL     1      43.274  -3.881  28.415  1.00  0.00     0.336 C 
HETATM   26  O4  UNL     1      43.867  -3.028  29.125  1.00  0.00    -0.246 OA
HETATM   27  N4  UNL     1      43.894  -4.375  27.237  1.00  0.00    -0.293 N 
ATOM     28  H4  UNL     1      44.232  -5.337  27.219  1.00  0.00     0.172 HD
ATOM     29  H3  UNL     1      41.541  -5.047  28.178  1.00  0.00     0.185 HD
BRANCH  27  30
HETATM   30  C16 UNL     1      44.044  -3.627  26.179  1.00  0.00     0.126 A 
HETATM   31  C17 UNL     1      43.817  -2.289  26.019  1.00  0.00     0.093 A 
HETATM   32  C18 UNL     1      44.119  -1.946  24.716  1.00  0.00     0.121 A 
HETATM   33 CL1  UNL     1      43.976  -0.331  24.064  1.00  0.00    -0.063 Cl
HETATM   34  N5  UNL     1      44.521  -3.073  24.118  1.00  0.00    -0.288 N 
HETATM   35  N6  UNL     1      44.475  -4.074  24.991  1.00  0.00    -0.284 N 
ATOM     36  H5  UNL     1      44.817  -3.152  23.145  1.00  0.00     0.188 HD
ATOM     37  H6  UNL     1      44.730  -5.040  24.788  1.00  0.00     0.188 HD
ENDBRANCH  27  30
ENDBRANCH  21  24
ENDBRANCH   1  21
TORSDOF 9
ENDMDL
MODEL 3
REMARK VINA RESULT: -7.550125424      4.862      9.355
REMARK  9 active torsions:
REMARK  status: ('A' for Active; 'I' for Inactive)
REMARK    1  A    between atoms: C2_2  and  O1_3 
REMARK    2  A    between atoms: C2_2  and  C3_5 
REMARK    3  A    between atoms: C3_5  and  C4_6 
REMARK    4  A    between atoms: C3_5  and  N2_19 
REMARK    5  A    between atoms: C4_6  and  C5_7 
REMARK    6  A    between atoms: C7_11  and  C8_12 
REMARK    7  A    between atoms: N2_19  and  S1_21 
REMARK    8  A    between atoms: S1_21  and  N3_24 
REMARK       I    between atoms: N3_24  and  C15_26 
REMARK       I    between atoms: C15_26  and  N4_28 
REMARK    9  A    between atoms: N4_28  and  C16_30 
ROOT
HETATM    1  N2  UNL     1      41.246  -1.818  32.884  1.00  0.00    -0.295 N 
ATOM      2  H2  UNL     1      40.365  -1.374  32.622  1.00  0.00     0.174 HD
ENDROOT
BRANCH   1   3
HETATM    3  C3  UNL     1      42.041  -1.444  34.033  1.00  0.00     0.127 C 
BRANCH   3   4
HETATM    4  C2  UNL     1      41.480  -2.073  35.262  1.00  0.00     0.137 C 
HETATM    5  C1  UNL     1      41.039  -1.172  36.345  1.00  0.00     0.041 C 
BRANCH   4   6
HETATM    6  O1  UNL     1      42.353  -3.035  35.808  1.00  0.00    -0.394 OA
ATOM      7  H1  UNL     1      43.244  -2.799  35.576  1.00  0.00     0.210 HD
ENDBRANCH   4   6
ENDBRANCH   3   4
BRANCH   3   8
HETATM    8  C4  UNL     1      42.367  -0.004  34.092  1.00  0.00     0.068 C 
BRANCH   8   9
HETATM    9  C5  UNL     1      43.751   0.379  34.314  1.00  0.00    -0.039 A 
HETATM   10  C6  UNL     1      44.609   1.007  33.447  1.00  0.00     0.095 A 
HETATM   11  N1  UNL     1      45.790   1.158  34.061  1.00  0.00    -0.368 N 
HETATM   12  C7  UNL     1      45.723   0.644  35.308  1.00  0.00     0.013 A 
ATOM     13  H1  UNL     1      46.615   1.595  33.650  1.00  0.00     0.165 HD
HETATM   14  C14 UNL     1      44.462   0.161  35.464  1.00  0.00     0.034 A 
BRANCH  12  15
HETATM   15  C8  UNL     1      46.792   0.589  36.339  1.00  0.00     0.035 C 
HETATM   16  C9  UNL     1      46.286   0.068  37.670  1.00  0.00     0.011 C 
HETATM   17  C10 UNL     1      47.366   0.374  38.685  1.00  0.00     0.001 C 
HETATM   18  C11 UNL     1      48.711  -0.145  38.319  1.00  0.00     0.000 C 
HETATM   19  C12 UNL     1      49.073  -0.054  36.878  1.00  0.00     0.001 C 
HETATM   20  C13 UNL     1      47.936  -0.316  35.932  1.00  0.00     0.011 C 
ENDBRANCH  12  15
ENDBRANCH   8   9
ENDBRANCH   3   8
ENDBRANCH   1   3
BRANCH   1  21
HETATM   21  S1  UNL     1      41.981  -3.113  32.013  1.00  0.00     0.323 S 
HETATM   22  O2  UNL     1      40.929  -3.832  31.180  1.00  0.00    -0.182 OA
HETATM   23  O3  UNL     1      42.505  -4.135  32.985  1.00  0.00    -0.182 OA
BRANCH  21  24
HETATM   24  N3  UNL     1      43.193  -2.564  30.935  1.00  0.00    -0.219 N 
HETATM   25  C15 UNL     1      42.898  -1.609  29.951  1.00  0.00     0.336 C 
HETATM   26  O4  UNL     1      41.738  -1.134  29.838  1.00  0.00    -0.246 OA
HETATM   27  N4  UNL     1      43.927  -1.178  29.074  1.00  0.00    -0.293 N 
ATOM     28  H4  UNL     1      44.679  -0.592  29.439  1.00  0.00     0.172 HD
ATOM     29  H3  UNL     1      44.139  -2.936  31.008  1.00  0.00     0.185 HD
BRANCH  27  30
HETATM   30  C16 UNL     1      43.936  -1.511  27.813  1.00  0.00     0.126 A 
HETATM   31  C17 UNL     1      43.932  -2.752  27.241  1.00  0.00     0.093 A 
HETATM   32  C18 UNL     1      43.945  -2.602  25.868  1.00  0.00     0.121 A 
HETATM   33 CL1  UNL     1      43.945  -3.929  24.732  1.00  0.00    -0.063 Cl
HETATM   34  N5  UNL     1      43.954  -1.284  25.639  1.00  0.00    -0.288 N 
HETATM   35  N6  UNL     1      43.950  -0.636  26.799  1.00  0.00    -0.284 N 
ATOM     36  H5  UNL     1      43.963  -0.846  24.718  1.00  0.00     0.188 HD
ATOM     37  H6  UNL     1      43.957   0.378  26.902  1.00  0.00     0.188 HD
ENDBRANCH  27  30
ENDBRANCH  21  24
ENDBRANCH   1  21
TORSDOF 9
ENDMDL
MODEL 4
REMARK VINA RESULT: -7.497869371      6.485      9.064
REMARK  9 active torsions:
REMARK  status: ('A' for Active; 'I' for Inactive)
REMARK    1  A    between atoms: C2_2  and  O1_3 
REMARK    2  A    between atoms: C2_2  and  C3_5 
REMARK    3  A    between atoms: C3_5  and  C4_6 
REMARK    4  A    between atoms: C3_5  and  N2_19 
REMARK    5  A    between atoms: C4_6  and  C5_7 
REMARK    6  A    between atoms: C7_11  and  C8_12 
REMARK    7  A    between atoms: N2_19  and  S1_21 
REMARK    8  A    between atoms: S1_21  and  N3_24 
REMARK       I    between atoms: N3_24  and  C15_26 
REMARK       I    between atoms: C15_26  and  N4_28 
REMARK    9  A    between atoms: N4_28  and  C16_30 
ROOT
HETATM    1  N2  UNL     1      40.599  -2.148  32.080  1.00  0.00    -0.295 N 
ATOM      2  H2  UNL     1      39.704  -1.791  32.414  1.00  0.00     0.174 HD
ENDROOT
BRANCH   1   3
HETATM    3  C3  UNL     1      40.749  -3.284  31.196  1.00  0.00     0.127 C 
BRANCH   3   4
HETATM    4  C2  UNL     1      39.741  -3.209  30.102  1.00  0.00     0.137 C 
HETATM    5  C1  UNL     1      38.655  -4.209  30.109  1.00  0.00     0.041 C 
BRANCH   4   6
HETATM    6  O1  UNL     1      40.344  -3.212  28.828  1.00  0.00    -0.394 OA
ATOM      7  H1  UNL     1      39.799  -2.709  28.235  1.00  0.00     0.210 HD
ENDBRANCH   4   6
ENDBRANCH   3   4
BRANCH   3   8
HETATM    8  C4  UNL     1      40.895  -4.574  31.901  1.00  0.00     0.068 C 
BRANCH   8   9
HETATM    9  C5  UNL     1      41.890  -5.515  31.413  1.00  0.00    -0.039 A 
HETATM   10  C6  UNL     1      41.996  -6.069  30.162  1.00  0.00     0.095 A 
HETATM   11  N1  UNL     1      43.055  -6.889  30.155  1.00  0.00    -0.368 N 
HETATM   12  C7  UNL     1      43.642  -6.884  31.372  1.00  0.00     0.013 A 
ATOM     13  H1  UNL     1      43.371  -7.435  29.353  1.00  0.00     0.165 HD
HETATM   14  C14 UNL     1      42.921  -6.035  32.150  1.00  0.00     0.034 A 
BRANCH  12  15
HETATM   15  C8  UNL     1      44.838  -7.645  31.818  1.00  0.00     0.035 C 
HETATM   16  C9  UNL     1      44.700  -8.158  33.238  1.00  0.00     0.011 C 
HETATM   17  C10 UNL     1      46.080  -8.608  33.664  1.00  0.00     0.001 C 
HETATM   18  C11 UNL     1      46.714  -9.587  32.740  1.00  0.00     0.000 C 
HETATM   19  C12 UNL     1      46.482  -9.354  31.289  1.00  0.00     0.001 C 
HETATM   20  C13 UNL     1      45.106  -8.856  30.950  1.00  0.00     0.011 C 
ENDBRANCH  12  15
ENDBRANCH   8   9
ENDBRANCH   3   8
ENDBRANCH   1   3
BRANCH   1  21
HETATM   21  S1  UNL     1      42.133  -1.477  32.495  1.00  0.00     0.323 S 
HETATM   22  O2  UNL     1      42.686  -2.185  33.724  1.00  0.00    -0.182 OA
HETATM   23  O3  UNL     1      41.957  -0.037  32.895  1.00  0.00    -0.182 OA
BRANCH  21  24
HETATM   24  N3  UNL     1      43.284  -1.664  31.241  1.00  0.00    -0.219 N 
HETATM   25  C15 UNL     1      43.012  -1.205  29.945  1.00  0.00     0.336 C 
HETATM   26  O4  UNL     1      41.918  -0.647  29.671  1.00  0.00    -0.246 OA
HETATM   27  N4  UNL     1      43.990  -1.379  28.930  1.00  0.00    -0.293 N 
ATOM     28  H4  UNL     1      44.845  -0.824  28.964  1.00  0.00     0.172 HD
ATOM     29  H3  UNL     1      44.177  -2.115  31.440  1.00  0.00     0.185 HD
BRANCH  27  30
HETATM   30  C16 UNL     1      43.822  -2.229  27.956  1.00  0.00     0.126 A 
HETATM   31  C17 UNL     1      44.212  -2.145  26.649  1.00  0.00     0.093 A 
HETATM   32  C18 UNL     1      43.809  -3.293  25.996  1.00  0.00     0.121 A 
HETATM   33 CL1  UNL     1      44.097  -3.616  24.303  1.00  0.00    -0.063 Cl
HETATM   34  N5  UNL     1      43.189  -4.044  26.913  1.00  0.00    -0.288 N 
HETATM   35  N6  UNL     1      43.197  -3.408  28.080  1.00  0.00    -0.284 N 
ATOM     36  H5  UNL     1      42.775  -4.961  26.743  1.00  0.00     0.188 HD
ATOM     37  H6  UNL     1      42.787  -3.765  28.943  1.00  0.00     0.188 HD
ENDBRANCH  27  30
ENDBRANCH  21  24
ENDBRANCH   1  21
TORSDOF 9
ENDMDL
MODEL 5
REMARK VINA RESULT: -7.489023622      4.861     10.369
REMARK  9 active torsions:
REMARK  status: ('A' for Active; 'I' for Inactive)
REMARK    1  A    between atoms: C2_2  and  O1_3 
REMARK    2  A    between atoms: C2_2  and  C3_5 
REMARK    3  A    between atoms: C3_5  and  C4_6 
REMARK    4  A    between atoms: C3_5  and  N2_19 
REMARK    5  A    between atoms: C4_6  and  C5_7 
REMARK    6  A    between atoms: C7_11  and  C8_12 
REMARK    7  A    between atoms: N2_19  and  S1_21 
REMARK    8  A    between atoms: S1_21  and  N3_24 
REMARK       I    between atoms: N3_24  and  C15_26 
REMARK       I    between atoms: C15_26  and  N4_28 
REMARK    9  A    between atoms: N4_28  and  C16_30 
ROOT
HETATM    1  N2  UNL     1      41.803  -1.579  30.439  1.00  0.00    -0.295 N 
ATOM      2  H2  UNL     1      42.219  -1.032  29.685  1.00  0.00     0.174 HD
ENDROOT
BRANCH   1   3
HETATM    3  C3  UNL     1      41.680  -1.126  31.808  1.00  0.00     0.127 C 
BRANCH   3   4
HETATM    4  C2  UNL     1      40.458  -0.286  31.953  1.00  0.00     0.137 C 
HETATM    5  C1  UNL     1      39.349  -0.833  32.760  1.00  0.00     0.041 C 
BRANCH   4   6
HETATM    6  O1  UNL     1      39.945   0.119  30.705  1.00  0.00    -0.394 OA
ATOM      7  H1  UNL     1      40.147  -0.552  30.064  1.00  0.00     0.210 HD
ENDBRANCH   4   6
ENDBRANCH   3   4
BRANCH   3   8
HETATM    8  C4  UNL     1      42.938  -0.604  32.380  1.00  0.00     0.068 C 
BRANCH   8   9
HETATM    9  C5  UNL     1      43.003  -0.390  33.816  1.00  0.00    -0.039 A 
HETATM   10  C6  UNL     1      42.666  -1.260  34.822  1.00  0.00     0.095 A 
HETATM   11  N1  UNL     1      42.874  -0.647  35.994  1.00  0.00    -0.368 N 
HETATM   12  C7  UNL     1      43.338   0.603  35.778  1.00  0.00     0.013 A 
ATOM     13  H1  UNL     1      42.707  -1.061  36.912  1.00  0.00     0.165 HD
HETATM   14  C14 UNL     1      43.417   0.762  34.430  1.00  0.00     0.034 A 
BRANCH  12  15
HETATM   15  C8  UNL     1      43.698   1.636  36.783  1.00  0.00     0.035 C 
HETATM   16  C9  UNL     1      44.816   1.184  37.702  1.00  0.00     0.011 C 
HETATM   17  C10 UNL     1      44.848   2.169  38.850  1.00  0.00     0.001 C 
HETATM   18  C11 UNL     1      44.967   3.591  38.429  1.00  0.00     0.000 C 
HETATM   19  C12 UNL     1      44.201   3.975  37.212  1.00  0.00     0.001 C 
HETATM   20  C13 UNL     1      44.169   2.924  36.140  1.00  0.00     0.011 C 
ENDBRANCH  12  15
ENDBRANCH   8   9
ENDBRANCH   3   8
ENDBRANCH   1   3
BRANCH   1  21
HETATM   21  S1  UNL     1      41.154  -3.166  30.249  1.00  0.00     0.323 S 
HETATM   22  O2  UNL     1      39.646  -3.083  30.060  1.00  0.00    -0.182 OA
HETATM   23  O3  UNL     1      41.367  -3.949  31.517  1.00  0.00    -0.182 OA
BRANCH  21  24
HETATM   24  N3  UNL     1      41.793  -3.969  28.878  1.00  0.00    -0.219 N 
HETATM   25  C15 UNL     1      43.121  -3.760  28.480  1.00  0.00     0.336 C 
HETATM   26  O4  UNL     1      43.874  -2.979  29.119  1.00  0.00    -0.246 OA
HETATM   27  N4  UNL     1      43.617  -4.442  27.338  1.00  0.00    -0.293 N 
ATOM     28  H4  UNL     1      43.775  -5.448  27.389  1.00  0.00     0.172 HD
ATOM     29  H3  UNL     1      41.202  -4.605  28.345  1.00  0.00     0.185 HD
BRANCH  27  30
HETATM   30  C16 UNL     1      43.876  -3.813  26.225  1.00  0.00     0.126 A 
HETATM   31  C17 UNL     1      43.756  -2.484  25.927  1.00  0.00     0.093 A 
HETATM   32  C18 UNL     1      44.151  -2.291  24.618  1.00  0.00     0.121 A 
HETATM   33 CL1  UNL     1      44.160  -0.742  23.811  1.00  0.00    -0.063 Cl
HETATM   34  N5  UNL     1      44.501  -3.496  24.153  1.00  0.00    -0.288 N 
HETATM   35  N6  UNL     1      44.335  -4.401  25.112  1.00  0.00    -0.284 N 
ATOM     36  H5  UNL     1      44.841  -3.689  23.211  1.00  0.00     0.188 HD
ATOM     37  H6  UNL     1      44.529  -5.398  25.015  1.00  0.00     0.188 HD
ENDBRANCH  27  30
ENDBRANCH  21  24
ENDBRANCH   1  21
TORSDOF 9
ENDMDL
