MODEL 1
REMARK VINA RESULT: -6.493798908      0.000      0.000
REMARK  4 active torsions:
REMARK  status: ('A' for Active; 'I' for Inactive)
REMARK    1  A    between atoms: C2_2  and  C3_3 
REMARK       I    between atoms: C3_3  and  N1_5 
REMARK    2  A    between atoms: N1_5  and  N2_6 
REMARK       I    between atoms: N2_6  and  C4_8 
REMARK       I    between atoms: C4_8  and  N3_10 
REMARK    3  A    between atoms: N3_10  and  N4_12 
REMARK       I    between atoms: N4_12  and  C5_14 
REMARK    4  A    between atoms: C5_14  and  C6_16 
ROOT
HETATM    1  N2  UNL     1      43.482  -0.857  28.807  1.00  0.00    -0.180 N 
ATOM      2  H2  UNL     1      43.935   0.009  29.097  1.00  0.00     0.207 HD
HETATM    3  C4  UNL     1      42.306  -1.339  29.646  1.00  0.00     0.363 C 
HETATM    4  O2  UNL     1      41.859  -2.345  29.353  1.00  0.00    -0.243 OA
HETATM    5  N3  UNL     1      42.036  -0.344  30.652  1.00  0.00    -0.247 N 
ATOM      6  H3  UNL     1      42.649   0.464  30.760  1.00  0.00     0.192 HD
ENDROOT
BRANCH   5   7
HETATM    7  N4  UNL     1      40.928  -0.506  31.471  1.00  0.00    -0.266 N 
HETATM    8  C5  UNL     1      39.698   0.168  31.438  1.00  0.00     0.240 C 
HETATM    9  O3  UNL     1      39.471   1.027  30.559  1.00  0.00    -0.271 OA
ATOM     10  H4  UNL     1      41.020  -1.213  32.200  1.00  0.00     0.190 HD
BRANCH   8  11
HETATM   11  C6  UNL     1      38.716  -0.207  32.499  1.00  0.00     0.084 C 
HETATM   12  C7  UNL     1      37.316  -0.185  31.918  1.00  0.00     0.019 C 
HETATM   13  C8  UNL     1      36.653   0.697  32.940  1.00  0.00    -0.013 C 
HETATM   14  C9  UNL     1      37.627   1.832  33.085  1.00  0.00     0.010 C 
HETATM   15  C11 UNL     1      37.279   0.155  34.244  1.00  0.00     0.010 C 
HETATM   16  C10 UNL     1      38.562   0.729  33.613  1.00  0.00    -0.001 C 
ENDBRANCH   8  11
ENDBRANCH   5   7
BRANCH   1  17
HETATM   17  N1  UNL     1      43.953  -1.444  27.767  1.00  0.00    -0.283 NA
HETATM   18  C3  UNL     1      44.469  -2.059  26.650  1.00  0.00     0.312 C 
HETATM   19  O1  UNL     1      45.389  -1.633  25.946  1.00  0.00    -0.255 OA
BRANCH  18  20
HETATM   20  C2  UNL     1      43.846  -3.383  26.273  1.00  0.00     0.117 C 
HETATM   21  C1  UNL     1      43.967  -3.577  24.788  1.00  0.00     0.016 C 
ENDBRANCH  18  20
ENDBRANCH   1  17
TORSDOF 4
ENDMDL
MODEL 2
REMARK VINA RESULT: -6.221638570      0.720      1.263
REMARK  4 active torsions:
REMARK  status: ('A' for Active; 'I' for Inactive)
REMARK    1  A    between atoms: C2_2  and  C3_3 
REMARK       I    between atoms: C3_3  and  N1_5 
REMARK    2  A    between atoms: N1_5  and  N2_6 
REMARK       I    between atoms: N2_6  and  C4_8 
REMARK       I    between atoms: C4_8  and  N3_10 
REMARK    3  A    between atoms: N3_10  and  N4_12 
REMARK       I    between atoms: N4_12  and  C5_14 
REMARK    4  A    between atoms: C5_14  and  C6_16 
ROOT
HETATM    1  N2  UNL     1      43.566  -0.989  29.052  1.00  0.00    -0.180 N 
ATOM      2  H2  UNL     1      44.143  -0.259  29.468  1.00  0.00     0.207 HD
HETATM    3  C4  UNL     1      42.280  -1.356  29.782  1.00  0.00     0.363 C 
HETATM    4  O2  UNL     1      41.684  -2.224  29.345  1.00  0.00    -0.243 OA
HETATM    5  N3  UNL     1      42.129  -0.461  30.900  1.00  0.00    -0.247 N 
ATOM      6  H3  UNL     1      42.864   0.207  31.134  1.00  0.00     0.192 HD
ENDROOT
BRANCH   5   7
HETATM    7  N4  UNL     1      40.965  -0.524  31.654  1.00  0.00    -0.266 N 
HETATM    8  C5  UNL     1      39.766   0.184  31.490  1.00  0.00     0.240 C 
HETATM    9  O3  UNL     1      39.627   0.981  30.537  1.00  0.00    -0.271 OA
ATOM     10  H4  UNL     1      40.985  -1.177  32.438  1.00  0.00     0.190 HD
BRANCH   8  11
HETATM   11  C6  UNL     1      38.706  -0.077  32.509  1.00  0.00     0.084 C 
HETATM   12  C7  UNL     1      38.609  -1.569  32.762  1.00  0.00     0.019 C 
HETATM   13  C8  UNL     1      37.130  -1.744  32.556  1.00  0.00    -0.013 C 
HETATM   14  C9  UNL     1      36.877  -0.990  31.282  1.00  0.00     0.010 C 
HETATM   15  C11 UNL     1      36.584  -0.486  33.266  1.00  0.00     0.010 C 
HETATM   16  C10 UNL     1      37.328   0.222  32.117  1.00  0.00    -0.001 C 
ENDBRANCH   8  11
ENDBRANCH   5   7
BRANCH   1  17
HETATM   17  N1  UNL     1      43.986  -1.518  27.960  1.00  0.00    -0.283 NA
HETATM   18  C3  UNL     1      44.448  -2.069  26.788  1.00  0.00     0.312 C 
HETATM   19  O1  UNL     1      45.342  -1.610  26.072  1.00  0.00    -0.255 OA
BRANCH  18  20
HETATM   20  C2  UNL     1      43.796  -3.363  26.361  1.00  0.00     0.117 C 
HETATM   21  C1  UNL     1      44.011  -3.558  24.886  1.00  0.00     0.016 C 
ENDBRANCH  18  20
ENDBRANCH   1  17
TORSDOF 4
ENDMDL
MODEL 3
REMARK VINA RESULT: -6.182011493      3.920      4.531
REMARK  4 active torsions:
REMARK  status: ('A' for Active; 'I' for Inactive)
REMARK    1  A    between atoms: C2_2  and  C3_3 
REMARK       I    between atoms: C3_3  and  N1_5 
REMARK    2  A    between atoms: N1_5  and  N2_6 
REMARK       I    between atoms: N2_6  and  C4_8 
REMARK       I    between atoms: C4_8  and  N3_10 
REMARK    3  A    between atoms: N3_10  and  N4_12 
REMARK       I    between atoms: N4_12  and  C5_14 
REMARK    4  A    between atoms: C5_14  and  C6_16 
ROOT
HETATM    1  N2  UNL     1      43.821  -2.862  29.234  1.00  0.00    -0.180 N 
ATOM      2  H2  UNL     1      43.838  -3.775  29.687  1.00  0.00     0.207 HD
HETATM    3  C4  UNL     1      43.453  -1.664  30.099  1.00  0.00     0.363 C 
HETATM    4  O2  UNL     1      43.366  -0.663  29.560  1.00  0.00    -0.243 OA
HETATM    5  N3  UNL     1      43.303  -2.122  31.456  1.00  0.00    -0.247 N 
ATOM      6  H3  UNL     1      43.360  -3.115  31.678  1.00  0.00     0.192 HD
ENDROOT
BRANCH   5   7
HETATM    7  N4  UNL     1      43.080  -1.185  32.456  1.00  0.00    -0.266 N 
HETATM    8  C5  UNL     1      43.949  -0.208  32.962  1.00  0.00     0.240 C 
HETATM    9  O3  UNL     1      45.094  -0.069  32.481  1.00  0.00    -0.271 OA
ATOM     10  H4  UNL     1      42.154  -1.211  32.883  1.00  0.00     0.190 HD
BRANCH   8  11
HETATM   11  C6  UNL     1      43.419   0.623  34.084  1.00  0.00     0.084 C 
HETATM   12  C7  UNL     1      44.332   1.814  34.301  1.00  0.00     0.019 C 
HETATM   13  C8  UNL     1      44.568   1.660  35.778  1.00  0.00    -0.013 C 
HETATM   14  C9  UNL     1      44.884   0.198  35.916  1.00  0.00     0.010 C 
HETATM   15  C11 UNL     1      43.153   1.276  36.262  1.00  0.00     0.010 C 
HETATM   16  C10 UNL     1      43.440   0.019  35.417  1.00  0.00    -0.001 C 
ENDBRANCH   8  11
ENDBRANCH   5   7
BRANCH   1  17
HETATM   17  N1  UNL     1      44.113  -2.824  27.983  1.00  0.00    -0.283 NA
HETATM   18  C3  UNL     1      44.434  -2.767  26.647  1.00  0.00     0.312 C 
HETATM   19  O1  UNL     1      45.127  -1.902  26.104  1.00  0.00    -0.255 OA
BRANCH  18  20
HETATM   20  C2  UNL     1      43.891  -3.883  25.786  1.00  0.00     0.117 C 
HETATM   21  C1  UNL     1      43.938  -3.457  24.345  1.00  0.00     0.016 C 
ENDBRANCH  18  20
ENDBRANCH   1  17
TORSDOF 4
ENDMDL
MODEL 4
REMARK VINA RESULT: -6.175406912      3.541      4.129
REMARK  4 active torsions:
REMARK  status: ('A' for Active; 'I' for Inactive)
REMARK    1  A    between atoms: C2_2  and  C3_3 
REMARK       I    between atoms: C3_3  and  N1_5 
REMARK    2  A    between atoms: N1_5  and  N2_6 
REMARK       I    between atoms: N2_6  and  C4_8 
REMARK       I    between atoms: C4_8  and  N3_10 
REMARK    3  A    between atoms: N3_10  and  N4_12 
REMARK       I    between atoms: N4_12  and  C5_14 
REMARK    4  A    between atoms: C5_14  and  C6_16 
ROOT
HETATM    1  N2  UNL     1      43.449  -0.829  28.271  1.00  0.00    -0.180 N 
ATOM      2  H2  UNL     1      42.997   0.080  28.178  1.00  0.00     0.207 HD
HETATM    3  C4  UNL     1      43.660  -1.357  29.684  1.00  0.00     0.363 C 
HETATM    4  O2  UNL     1      44.233  -2.338  29.773  1.00  0.00    -0.243 OA
HETATM    5  N3  UNL     1      43.044  -0.435  30.603  1.00  0.00    -0.247 N 
ATOM      6  H3  UNL     1      42.645   0.442  30.269  1.00  0.00     0.192 HD
ENDROOT
BRANCH   5   7
HETATM    7  N4  UNL     1      43.005  -0.762  31.952  1.00  0.00    -0.266 N 
HETATM    8  C5  UNL     1      43.993  -0.591  32.932  1.00  0.00     0.240 C 
HETATM    9  O3  UNL     1      45.080  -0.045  32.646  1.00  0.00    -0.271 OA
ATOM     10  H4  UNL     1      42.135  -1.186  32.275  1.00  0.00     0.190 HD
BRANCH   8  11
HETATM   11  C6  UNL     1      43.657  -1.096  34.297  1.00  0.00     0.084 C 
HETATM   12  C7  UNL     1      42.228  -0.717  34.635  1.00  0.00     0.019 C 
HETATM   13  C8  UNL     1      42.470  -0.062  35.966  1.00  0.00    -0.013 C 
HETATM   14  C9  UNL     1      43.640   0.839  35.689  1.00  0.00     0.010 C 
HETATM   15  C11 UNL     1      43.512  -1.023  36.580  1.00  0.00     0.010 C 
HETATM   16  C10 UNL     1      44.372  -0.488  35.419  1.00  0.00    -0.001 C 
ENDBRANCH   8  11
ENDBRANCH   5   7
BRANCH   1  17
HETATM   17  N1  UNL     1      43.789  -1.428  27.187  1.00  0.00    -0.283 NA
HETATM   18  C3  UNL     1      44.155  -2.053  26.018  1.00  0.00     0.312 C 
HETATM   19  O1  UNL     1      44.492  -1.493  24.970  1.00  0.00    -0.255 OA
BRANCH  18  20
HETATM   20  C2  UNL     1      44.151  -3.563  26.043  1.00  0.00     0.117 C 
HETATM   21  C1  UNL     1      43.768  -4.075  24.683  1.00  0.00     0.016 C 
ENDBRANCH  18  20
ENDBRANCH   1  17
TORSDOF 4
ENDMDL
MODEL 5
REMARK VINA RESULT: -6.170012938      3.957      4.694
REMARK  4 active torsions:
REMARK  status: ('A' for Active; 'I' for Inactive)
REMARK    1  A    between atoms: C2_2  and  C3_3 
REMARK       I    between atoms: C3_3  and  N1_5 
REMARK    2  A    between atoms: N1_5  and  N2_6 
REMARK       I    between atoms: N2_6  and  C4_8 
REMARK       I    between atoms: C4_8  and  N3_10 
REMARK    3  A    between atoms: N3_10  and  N4_12 
REMARK       I    between atoms: N4_12  and  C5_14 
REMARK    4  A    between atoms: C5_14  and  C6_16 
ROOT
HETATM    1  N2  UNL     1      43.037  -1.675  28.647  1.00  0.00    -0.180 N 
ATOM      2  H2  UNL     1      42.023  -1.763  28.698  1.00  0.00     0.207 HD
HETATM    3  C4  UNL     1      43.744  -1.085  29.861  1.00  0.00     0.363 C 
HETATM    4  O2  UNL     1      44.867  -0.925  29.760  1.00  0.00    -0.243 OA
HETATM    5  N3  UNL     1      42.759  -0.871  30.891  1.00  0.00    -0.247 N 
ATOM      6  H3  UNL     1      41.770  -1.029  30.704  1.00  0.00     0.192 HD
ENDROOT
BRANCH   5   7
HETATM    7  N4  UNL     1      43.184  -0.445  32.142  1.00  0.00    -0.266 N 
HETATM    8  C5  UNL     1      43.481  -1.206  33.281  1.00  0.00     0.240 C 
HETATM    9  O3  UNL     1      43.413  -2.454  33.244  1.00  0.00    -0.271 OA
ATOM     10  H4  UNL     1      43.295   0.564  32.248  1.00  0.00     0.190 HD
BRANCH   8  11
HETATM   11  C6  UNL     1      43.870  -0.437  34.501  1.00  0.00     0.084 C 
HETATM   12  C7  UNL     1      43.337   0.979  34.393  1.00  0.00     0.019 C 
HETATM   13  C8  UNL     1      44.611   1.729  34.666  1.00  0.00    -0.013 C 
HETATM   14  C9  UNL     1      45.606   1.030  33.783  1.00  0.00     0.010 C 
HETATM   15  C11 UNL     1      45.211   0.880  35.808  1.00  0.00     0.010 C 
HETATM   16  C10 UNL     1      45.297  -0.176  34.688  1.00  0.00    -0.001 C 
ENDBRANCH   8  11
ENDBRANCH   5   7
BRANCH   1  17
HETATM   17  N1  UNL     1      43.607  -2.072  27.567  1.00  0.00    -0.283 NA
HETATM   18  C3  UNL     1      44.223  -2.479  26.407  1.00  0.00     0.312 C 
HETATM   19  O1  UNL     1      44.960  -1.790  25.696  1.00  0.00    -0.255 OA
BRANCH  18  20
HETATM   20  C2  UNL     1      43.973  -3.909  25.989  1.00  0.00     0.117 C 
HETATM   21  C1  UNL     1      43.756  -3.955  24.503  1.00  0.00     0.016 C 
ENDBRANCH  18  20
ENDBRANCH   1  17
TORSDOF 4
ENDMDL
