MODEL 1
REMARK VINA RESULT: -7.822723309      0.000      0.000
REMARK  4 active torsions:
REMARK  status: ('A' for Active; 'I' for Inactive)
REMARK       I    between atoms: C1_4  and  N2_5 
REMARK       I    between atoms: C1_4  and  N5_21 
REMARK       I    between atoms: C2_7  and  N4_9 
REMARK    1  A    between atoms: N4_9  and  C3_11 
REMARK    2  A    between atoms: C16_25  and  C17_26 
REMARK    3  A    between atoms: C17_26  and  C18_27 
REMARK    4  A    between atoms: C18_27  and  N6_28 
REMARK       I    between atoms: N6_28  and  C19_30 
ROOT
HETATM    1  N1  UNL     1      41.494  -0.401  31.401  1.00  0.00    -0.234 N 
ATOM      2  H11 UNL     1      40.572  -0.828  31.308  1.00  0.00     0.174 HD
ATOM      3  H12 UNL     1      41.664   0.605  31.422  1.00  0.00     0.174 HD
HETATM    4  C1  UNL     1      42.502  -1.204  31.499  1.00  0.00     0.676 C 
HETATM    5  N2  UNL     1      43.789  -0.608  31.629  1.00  0.00    -0.164 N 
ATOM      6  H2  UNL     1      44.399  -0.576  30.812  1.00  0.00     0.187 HD
HETATM    7  C2  UNL     1      44.217  -0.100  32.753  1.00  0.00     0.203 C 
HETATM    8  N3  UNL     1      45.528   0.446  32.674  1.00  0.00    -0.063 NA
HETATM    9  N4  UNL     1      43.420  -0.111  33.928  1.00  0.00    -0.355 N 
ATOM     10  H4  UNL     1      42.600  -0.717  33.931  1.00  0.00     0.163 HD
HETATM   11  N5  UNL     1      42.270  -2.578  31.470  1.00  0.00    -0.213 N 
HETATM   12  C13 UNL     1      41.547  -3.346  32.458  1.00  0.00     0.141 C 
HETATM   13  C14 UNL     1      42.161  -4.736  32.442  1.00  0.00     0.022 C 
HETATM   14  C15 UNL     1      43.304  -4.592  31.427  1.00  0.00     0.028 C 
HETATM   15  C16 UNL     1      42.682  -3.598  30.462  1.00  0.00     0.107 C 
ENDROOT
BRANCH  15  16
HETATM   16  C17 UNL     1      43.605  -3.020  29.487  1.00  0.00     0.070 C 
BRANCH  16  17
HETATM   17  C18 UNL     1      43.022  -2.375  28.297  1.00  0.00     0.067 C 
BRANCH  17  18
HETATM   18  N6  UNL     1      43.377  -2.751  27.000  1.00  0.00    -0.325 N 
HETATM   19  C19 UNL     1      44.379  -2.425  26.095  1.00  0.00     0.332 C 
HETATM   20  N7  UNL     1      44.434  -3.067  24.802  1.00  0.00    -0.040 NA
HETATM   21  O1  UNL     1      45.268  -1.589  26.321  1.00  0.00    -0.251 OA
ATOM     22  H6  UNL     1      42.734  -3.444  26.618  1.00  0.00     0.169 HD
ENDBRANCH  17  18
ENDBRANCH  16  17
ENDBRANCH  15  16
BRANCH   9  23
HETATM   23  C3  UNL     1      43.668   0.653  35.102  1.00  0.00     0.033 C 
HETATM   24  C4  UNL     1      43.733   2.151  34.818  1.00  0.00     0.035 C 
HETATM   25  C5  UNL     1      43.929   2.889  36.109  1.00  0.00    -0.012 C 
HETATM   26  C6  UNL     1      45.169   2.472  36.857  1.00  0.00     0.009 C 
HETATM   27  C10 UNL     1      42.756   2.709  37.058  1.00  0.00     0.009 C 
HETATM   28  C7  UNL     1      45.019   0.979  37.159  1.00  0.00    -0.012 C 
HETATM   29  C8  UNL     1      43.846   0.719  38.040  1.00  0.00     0.009 C 
HETATM   30  C12 UNL     1      44.948   0.287  35.819  1.00  0.00     0.035 C 
HETATM   31  C9  UNL     1      42.614   1.239  37.320  1.00  0.00    -0.012 C 
HETATM   32  C11 UNL     1      42.479   0.470  36.048  1.00  0.00     0.035 C 
ENDBRANCH   9  23
TORSDOF 4
ENDMDL
MODEL 2
REMARK VINA RESULT: -7.806463546      0.879      1.543
REMARK  4 active torsions:
REMARK  status: ('A' for Active; 'I' for Inactive)
REMARK       I    between atoms: C1_4  and  N2_5 
REMARK       I    between atoms: C1_4  and  N5_21 
REMARK       I    between atoms: C2_7  and  N4_9 
REMARK    1  A    between atoms: N4_9  and  C3_11 
REMARK    2  A    between atoms: C16_25  and  C17_26 
REMARK    3  A    between atoms: C17_26  and  C18_27 
REMARK    4  A    between atoms: C18_27  and  N6_28 
REMARK       I    between atoms: N6_28  and  C19_30 
ROOT
HETATM    1  N1  UNL     1      41.175  -0.322  31.699  1.00  0.00    -0.234 N 
ATOM      2  H11 UNL     1      40.242  -0.729  31.633  1.00  0.00     0.174 HD
ATOM      3  H12 UNL     1      41.376   0.676  31.627  1.00  0.00     0.174 HD
HETATM    4  C1  UNL     1      42.157  -1.141  31.889  1.00  0.00     0.676 C 
HETATM    5  N2  UNL     1      43.459  -0.573  31.982  1.00  0.00    -0.164 N 
ATOM      6  H2  UNL     1      44.081  -0.637  31.175  1.00  0.00     0.187 HD
HETATM    7  C2  UNL     1      43.888   0.028  33.059  1.00  0.00     0.203 C 
HETATM    8  N3  UNL     1      45.216   0.525  32.949  1.00  0.00    -0.063 NA
HETATM    9  N4  UNL     1      43.076   0.153  34.217  1.00  0.00    -0.355 N 
ATOM     10  H4  UNL     1      42.238  -0.426  34.265  1.00  0.00     0.163 HD
HETATM   11  N5  UNL     1      41.884  -2.504  31.988  1.00  0.00    -0.213 N 
HETATM   12  C13 UNL     1      41.124  -3.153  33.032  1.00  0.00     0.141 C 
HETATM   13  C14 UNL     1      41.696  -4.554  33.159  1.00  0.00     0.022 C 
HETATM   14  C15 UNL     1      42.856  -4.541  32.153  1.00  0.00     0.028 C 
HETATM   15  C16 UNL     1      42.278  -3.627  31.089  1.00  0.00     0.107 C 
ENDROOT
BRANCH  15  16
HETATM   16  C17 UNL     1      43.230  -3.172  30.077  1.00  0.00     0.070 C 
BRANCH  16  17
HETATM   17  C18 UNL     1      42.716  -2.930  28.718  1.00  0.00     0.067 C 
BRANCH  17  18
HETATM   18  N6  UNL     1      43.558  -2.602  27.653  1.00  0.00    -0.325 N 
HETATM   19  C19 UNL     1      44.417  -1.560  27.331  1.00  0.00     0.332 C 
HETATM   20  N7  UNL     1      45.168  -1.584  26.097  1.00  0.00    -0.040 NA
HETATM   21  O1  UNL     1      44.599  -0.567  28.054  1.00  0.00    -0.251 OA
ATOM     22  H6  UNL     1      43.535  -3.312  26.921  1.00  0.00     0.169 HD
ENDBRANCH  17  18
ENDBRANCH  16  17
ENDBRANCH  15  16
BRANCH   9  23
HETATM   23  C3  UNL     1      43.332   1.019  35.317  1.00  0.00     0.033 C 
HETATM   24  C4  UNL     1      42.108   1.203  36.209  1.00  0.00     0.035 C 
HETATM   25  C5  UNL     1      42.476   2.069  37.377  1.00  0.00    -0.012 C 
HETATM   26  C6  UNL     1      43.008   3.421  36.978  1.00  0.00     0.009 C 
HETATM   27  C10 UNL     1      43.527   1.422  38.263  1.00  0.00     0.009 C 
HETATM   28  C7  UNL     1      44.260   3.171  36.135  1.00  0.00    -0.012 C 
HETATM   29  C8  UNL     1      45.317   2.480  36.927  1.00  0.00     0.009 C 
HETATM   30  C12 UNL     1      43.799   2.401  34.921  1.00  0.00     0.035 C 
HETATM   31  C9  UNL     1      44.733   1.164  37.411  1.00  0.00    -0.012 C 
HETATM   32  C11 UNL     1      44.387   0.356  36.207  1.00  0.00     0.035 C 
ENDBRANCH   9  23
TORSDOF 4
ENDMDL
MODEL 3
REMARK VINA RESULT: -7.774950351      0.581      1.316
REMARK  4 active torsions:
REMARK  status: ('A' for Active; 'I' for Inactive)
REMARK       I    between atoms: C1_4  and  N2_5 
REMARK       I    between atoms: C1_4  and  N5_21 
REMARK       I    between atoms: C2_7  and  N4_9 
REMARK    1  A    between atoms: N4_9  and  C3_11 
REMARK    2  A    between atoms: C16_25  and  C17_26 
REMARK    3  A    between atoms: C17_26  and  C18_27 
REMARK    4  A    between atoms: C18_27  and  N6_28 
REMARK       I    between atoms: N6_28  and  C19_30 
ROOT
HETATM    1  N1  UNL     1      41.183  -0.419  31.854  1.00  0.00    -0.234 N 
ATOM      2  H11 UNL     1      40.275  -0.883  31.828  1.00  0.00     0.174 HD
ATOM      3  H12 UNL     1      41.315   0.584  31.987  1.00  0.00     0.174 HD
HETATM    4  C1  UNL     1      42.226  -1.168  31.705  1.00  0.00     0.676 C 
HETATM    5  N2  UNL     1      43.494  -0.520  31.740  1.00  0.00    -0.164 N 
ATOM      6  H2  UNL     1      43.981  -0.349  30.860  1.00  0.00     0.187 HD
HETATM    7  C2  UNL     1      44.056  -0.137  32.854  1.00  0.00     0.203 C 
HETATM    8  N3  UNL     1      45.320   0.490  32.674  1.00  0.00    -0.063 NA
HETATM    9  N4  UNL     1      43.433  -0.344  34.114  1.00  0.00    -0.355 N 
ATOM     10  H4  UNL     1      42.647  -0.992  34.145  1.00  0.00     0.163 HD
HETATM   11  N5  UNL     1      42.047  -2.538  31.522  1.00  0.00    -0.213 N 
HETATM   12  C13 UNL     1      41.501  -3.467  32.485  1.00  0.00     0.141 C 
HETATM   13  C14 UNL     1      42.162  -4.805  32.199  1.00  0.00     0.022 C 
HETATM   14  C15 UNL     1      43.143  -4.466  31.068  1.00  0.00     0.028 C 
HETATM   15  C16 UNL     1      42.353  -3.394  30.340  1.00  0.00     0.107 C 
ENDROOT
BRANCH  15  16
HETATM   16  C17 UNL     1      43.105  -2.643  29.336  1.00  0.00     0.070 C 
BRANCH  16  17
HETATM   17  C18 UNL     1      43.951  -3.410  28.404  1.00  0.00     0.067 C 
BRANCH  17  18
HETATM   18  N6  UNL     1      43.870  -3.244  27.020  1.00  0.00    -0.325 N 
HETATM   19  C19 UNL     1      44.486  -2.448  26.063  1.00  0.00     0.332 C 
HETATM   20  N7  UNL     1      44.142  -2.584  24.666  1.00  0.00    -0.040 NA
HETATM   21  O1  UNL     1      45.346  -1.593  26.326  1.00  0.00    -0.251 OA
ATOM     22  H6  UNL     1      43.181  -3.870  26.604  1.00  0.00     0.169 HD
ENDBRANCH  17  18
ENDBRANCH  16  17
ENDBRANCH  15  16
BRANCH   9  23
HETATM   23  C3  UNL     1      43.815   0.275  35.337  1.00  0.00     0.033 C 
HETATM   24  C4  UNL     1      45.326   0.259  35.549  1.00  0.00     0.035 C 
HETATM   25  C5  UNL     1      45.652   0.987  36.819  1.00  0.00    -0.012 C 
HETATM   26  C6  UNL     1      44.974   0.408  38.034  1.00  0.00     0.009 C 
HETATM   27  C10 UNL     1      45.269   2.456  36.754  1.00  0.00     0.009 C 
HETATM   28  C7  UNL     1      43.467   0.502  37.784  1.00  0.00    -0.012 C 
HETATM   29  C8  UNL     1      43.028   1.919  37.648  1.00  0.00     0.009 C 
HETATM   30  C12 UNL     1      43.193  -0.347  36.566  1.00  0.00     0.035 C 
HETATM   31  C9  UNL     1      43.796   2.523  36.485  1.00  0.00    -0.012 C 
HETATM   32  C11 UNL     1      43.431   1.755  35.259  1.00  0.00     0.035 C 
ENDBRANCH   9  23
TORSDOF 4
ENDMDL
MODEL 4
REMARK VINA RESULT: -7.160140938      4.430      5.457
REMARK  4 active torsions:
REMARK  status: ('A' for Active; 'I' for Inactive)
REMARK       I    between atoms: C1_4  and  N2_5 
REMARK       I    between atoms: C1_4  and  N5_21 
REMARK       I    between atoms: C2_7  and  N4_9 
REMARK    1  A    between atoms: N4_9  and  C3_11 
REMARK    2  A    between atoms: C16_25  and  C17_26 
REMARK    3  A    between atoms: C17_26  and  C18_27 
REMARK    4  A    between atoms: C18_27  and  N6_28 
REMARK       I    between atoms: N6_28  and  C19_30 
ROOT
HETATM    1  N1  UNL     1      38.655  -3.449  29.251  1.00  0.00    -0.234 N 
ATOM      2  H11 UNL     1      38.473  -4.450  29.181  1.00  0.00     0.174 HD
ATOM      3  H12 UNL     1      38.008  -2.722  28.944  1.00  0.00     0.174 HD
HETATM    4  C1  UNL     1      39.787  -3.095  29.766  1.00  0.00     0.676 C 
HETATM    5  N2  UNL     1      40.041  -1.698  29.863  1.00  0.00    -0.164 N 
ATOM      6  H2  UNL     1      40.667  -1.265  29.183  1.00  0.00     0.187 HD
HETATM    7  C2  UNL     1      39.505  -0.950  30.789  1.00  0.00     0.203 C 
HETATM    8  N3  UNL     1      39.886   0.419  30.713  1.00  0.00    -0.063 NA
HETATM    9  N4  UNL     1      38.626  -1.487  31.767  1.00  0.00    -0.355 N 
ATOM     10  H4  UNL     1      38.599  -2.501  31.863  1.00  0.00     0.163 HD
HETATM   11  N5  UNL     1      40.672  -4.088  30.185  1.00  0.00    -0.213 N 
HETATM   12  C13 UNL     1      40.460  -5.026  31.263  1.00  0.00     0.141 C 
HETATM   13  C14 UNL     1      41.837  -5.343  31.821  1.00  0.00     0.022 C 
HETATM   14  C15 UNL     1      42.757  -4.435  30.994  1.00  0.00     0.028 C 
HETATM   15  C16 UNL     1      42.024  -4.447  29.666  1.00  0.00     0.107 C 
ENDROOT
BRANCH  15  16
HETATM   16  C17 UNL     1      42.486  -3.458  28.693  1.00  0.00     0.070 C 
BRANCH  16  17
HETATM   17  C18 UNL     1      43.692  -3.783  27.912  1.00  0.00     0.067 C 
BRANCH  17  18
HETATM   18  N6  UNL     1      43.782  -3.523  26.542  1.00  0.00    -0.325 N 
HETATM   19  C19 UNL     1      44.447  -2.613  25.731  1.00  0.00     0.332 C 
HETATM   20  N7  UNL     1      44.306  -2.674  24.294  1.00  0.00    -0.040 NA
HETATM   21  O1  UNL     1      45.184  -1.714  26.163  1.00  0.00    -0.251 OA
ATOM     22  H6  UNL     1      43.213  -4.170  25.997  1.00  0.00     0.169 HD
ENDBRANCH  17  18
ENDBRANCH  16  17
ENDBRANCH  15  16
BRANCH   9  23
HETATM   23  C3  UNL     1      37.781  -0.729  32.624  1.00  0.00     0.033 C 
HETATM   24  C4  UNL     1      37.128  -1.588  33.703  1.00  0.00     0.035 C 
HETATM   25  C5  UNL     1      36.310  -0.709  34.603  1.00  0.00    -0.012 C 
HETATM   26  C6  UNL     1      35.245   0.069  33.876  1.00  0.00     0.009 C 
HETATM   27  C10 UNL     1      37.165   0.299  35.352  1.00  0.00     0.009 C 
HETATM   28  C7  UNL     1      35.964   0.948  32.850  1.00  0.00    -0.012 C 
HETATM   29  C8  UNL     1      36.871   1.925  33.514  1.00  0.00     0.009 C 
HETATM   30  C12 UNL     1      36.666  -0.001  31.908  1.00  0.00     0.035 C 
HETATM   31  C9  UNL     1      37.877   1.130  34.328  1.00  0.00    -0.012 C 
HETATM   32  C11 UNL     1      38.651   0.279  33.379  1.00  0.00     0.035 C 
ENDBRANCH   9  23
TORSDOF 4
ENDMDL
MODEL 5
REMARK VINA RESULT: -7.153670984      4.477      5.292
REMARK  4 active torsions:
REMARK  status: ('A' for Active; 'I' for Inactive)
REMARK       I    between atoms: C1_4  and  N2_5 
REMARK       I    between atoms: C1_4  and  N5_21 
REMARK       I    between atoms: C2_7  and  N4_9 
REMARK    1  A    between atoms: N4_9  and  C3_11 
REMARK    2  A    between atoms: C16_25  and  C17_26 
REMARK    3  A    between atoms: C17_26  and  C18_27 
REMARK    4  A    between atoms: C18_27  and  N6_28 
REMARK       I    between atoms: N6_28  and  C19_30 
ROOT
HETATM    1  N1  UNL     1      38.746  -3.410  29.378  1.00  0.00    -0.234 N 
ATOM      2  H11 UNL     1      38.574  -4.416  29.362  1.00  0.00     0.174 HD
ATOM      3  H12 UNL     1      38.090  -2.707  29.038  1.00  0.00     0.174 HD
HETATM    4  C1  UNL     1      39.877  -3.020  29.868  1.00  0.00     0.676 C 
HETATM    5  N2  UNL     1      40.118  -1.617  29.890  1.00  0.00    -0.164 N 
ATOM      6  H2  UNL     1      40.735  -1.214  29.185  1.00  0.00     0.187 HD
HETATM    7  C2  UNL     1      39.579  -0.826  30.778  1.00  0.00     0.203 C 
HETATM    8  N3  UNL     1      39.946   0.540  30.629  1.00  0.00    -0.063 NA
HETATM    9  N4  UNL     1      38.711  -1.320  31.788  1.00  0.00    -0.355 N 
ATOM     10  H4  UNL     1      38.694  -2.328  31.938  1.00  0.00     0.163 HD
HETATM   11  N5  UNL     1      40.774  -3.980  30.333  1.00  0.00    -0.213 N 
HETATM   12  C13 UNL     1      40.576  -4.863  31.460  1.00  0.00     0.141 C 
HETATM   13  C14 UNL     1      41.959  -5.137  32.026  1.00  0.00     0.022 C 
HETATM   14  C15 UNL     1      42.866  -4.264  31.147  1.00  0.00     0.028 C 
HETATM   15  C16 UNL     1      42.126  -4.353  29.826  1.00  0.00     0.107 C 
ENDROOT
BRANCH  15  16
HETATM   16  C17 UNL     1      42.573  -3.412  28.800  1.00  0.00     0.070 C 
BRANCH  16  17
HETATM   17  C18 UNL     1      43.735  -3.799  27.980  1.00  0.00     0.067 C 
BRANCH  17  18
HETATM   18  N6  UNL     1      43.802  -3.527  26.612  1.00  0.00    -0.325 N 
HETATM   19  C19 UNL     1      44.455  -2.613  25.797  1.00  0.00     0.332 C 
HETATM   20  N7  UNL     1      44.288  -2.660  24.363  1.00  0.00    -0.040 NA
HETATM   21  O1  UNL     1      45.205  -1.721  26.224  1.00  0.00    -0.251 OA
ATOM     22  H6  UNL     1      43.219  -4.166  26.071  1.00  0.00     0.169 HD
ENDBRANCH  17  18
ENDBRANCH  16  17
ENDBRANCH  15  16
BRANCH   9  23
HETATM   23  C3  UNL     1      37.862  -0.526  32.610  1.00  0.00     0.033 C 
HETATM   24  C4  UNL     1      36.624  -0.037  31.864  1.00  0.00     0.035 C 
HETATM   25  C5  UNL     1      35.751   0.731  32.811  1.00  0.00    -0.012 C 
HETATM   26  C6  UNL     1      36.444   1.909  33.446  1.00  0.00     0.009 C 
HETATM   27  C10 UNL     1      35.225  -0.138  33.941  1.00  0.00     0.009 C 
HETATM   28  C7  UNL     1      37.640   1.349  34.221  1.00  0.00    -0.012 C 
HETATM   29  C8  UNL     1      37.200   0.435  35.312  1.00  0.00     0.009 C 
HETATM   30  C12 UNL     1      38.534   0.696  33.194  1.00  0.00     0.035 C 
HETATM   31  C9  UNL     1      36.412  -0.692  34.669  1.00  0.00    -0.012 C 
HETATM   32  C11 UNL     1      37.333  -1.411  33.740  1.00  0.00     0.035 C 
ENDBRANCH   9  23
TORSDOF 4
ENDMDL
