MODEL 1
REMARK VINA RESULT: -6.146186570      0.000      0.000
REMARK  6 active torsions:
REMARK  status: ('A' for Active; 'I' for Inactive)
REMARK    1  A    between atoms: C2_2  and  N1_4 
REMARK       I    between atoms: N1_4  and  C4_6 
REMARK       I    between atoms: C4_6  and  N2_8 
REMARK    2  A    between atoms: N2_8  and  N3_10 
REMARK    3  A    between atoms: N3_10  and  C5_12 
REMARK    4  A    between atoms: C5_12  and  N4_14 
REMARK    5  A    between atoms: N4_14  and  C6_16 
REMARK    6  A    between atoms: C6_16  and  C7_17 
ROOT
HETATM    1  C5  UNL     1      41.176  -6.094  30.066  1.00  0.00     0.186 C 
HETATM    2  S1  UNL     1      40.822  -7.478  30.849  1.00  0.00    -0.040 SA
ENDROOT
BRANCH   1   3
HETATM    3  N3  UNL     1      42.435  -5.894  29.430  1.00  0.00    -0.272 N 
ATOM      4  H3  UNL     1      43.283  -6.330  29.792  1.00  0.00     0.189 HD
BRANCH   3   5
HETATM    5  N2  UNL     1      42.470  -5.083  28.297  1.00  0.00    -0.249 N 
HETATM    6  C4  UNL     1      43.464  -4.078  28.207  1.00  0.00     0.335 C 
HETATM    7  N1  UNL     1      43.511  -3.261  27.058  1.00  0.00    -0.338 N 
HETATM    8  O1  UNL     1      44.285  -3.927  29.140  1.00  0.00    -0.246 OA
ATOM      9  H1  UNL     1      42.820  -3.435  26.328  1.00  0.00     0.164 HD
ATOM     10  H2  UNL     1      41.791  -5.210  27.546  1.00  0.00     0.192 HD
BRANCH   7  11
HETATM   11  C2  UNL     1      44.464  -2.192  26.835  1.00  0.00     0.078 C 
HETATM   12  C1  UNL     1      44.398  -1.928  25.318  1.00  0.00     0.032 C 
HETATM   13  C3  UNL     1      43.978  -0.973  27.579  1.00  0.00     0.032 C 
ENDBRANCH   7  11
ENDBRANCH   3   5
ENDBRANCH   1   3
BRANCH   1  14
HETATM   14  N4  UNL     1      40.229  -5.040  30.012  1.00  0.00    -0.365 N 
ATOM     15  H4  UNL     1      39.838  -4.731  29.122  1.00  0.00     0.161 HD
BRANCH  14  16
HETATM   16  C6  UNL     1      39.833  -4.415  31.265  1.00  0.00     0.131 C 
BRANCH  16  17
HETATM   17  C7  UNL     1      40.362  -2.994  31.318  1.00  0.00    -0.023 C 
HETATM   18  C8  UNL     1      41.659  -2.991  32.096  1.00  0.00     0.015 C 
HETATM   19  C9  UNL     1      42.118  -1.556  32.218  1.00  0.00    -0.013 C 
HETATM   20  C10 UNL     1      41.112  -0.695  32.919  1.00  0.00     0.009 C 
HETATM   21  C14 UNL     1      42.386  -1.086  30.796  1.00  0.00     0.009 C 
HETATM   22  C11 UNL     1      39.817  -0.714  32.124  1.00  0.00    -0.013 C 
HETATM   23  C12 UNL     1      40.039  -0.232  30.714  1.00  0.00     0.009 C 
HETATM   24  C16 UNL     1      39.354  -2.156  32.066  1.00  0.00     0.015 C 
HETATM   25  C13 UNL     1      41.102  -1.048  30.027  1.00  0.00    -0.013 C 
HETATM   26  C15 UNL     1      40.563  -2.472  29.927  1.00  0.00     0.015 C 
ENDBRANCH  16  17
ENDBRANCH  14  16
ENDBRANCH   1  14
TORSDOF 6
ENDMDL
MODEL 2
REMARK VINA RESULT: -6.108421356      4.207      5.521
REMARK  6 active torsions:
REMARK  status: ('A' for Active; 'I' for Inactive)
REMARK    1  A    between atoms: C2_2  and  N1_4 
REMARK       I    between atoms: N1_4  and  C4_6 
REMARK       I    between atoms: C4_6  and  N2_8 
REMARK    2  A    between atoms: N2_8  and  N3_10 
REMARK    3  A    between atoms: N3_10  and  C5_12 
REMARK    4  A    between atoms: C5_12  and  N4_14 
REMARK    5  A    between atoms: N4_14  and  C6_16 
REMARK    6  A    between atoms: C6_16  and  C7_17 
ROOT
HETATM    1  C5  UNL     1      42.645  -1.032  31.765  1.00  0.00     0.186 C 
HETATM    2  S1  UNL     1      42.626  -2.647  31.975  1.00  0.00    -0.040 SA
ENDROOT
BRANCH   1   3
HETATM    3  N3  UNL     1      42.462  -0.441  30.482  1.00  0.00    -0.272 N 
ATOM      4  H3  UNL     1      42.405   0.572  30.372  1.00  0.00     0.189 HD
BRANCH   3   5
HETATM    5  N2  UNL     1      42.363  -1.291  29.381  1.00  0.00    -0.249 N 
HETATM    6  C4  UNL     1      43.476  -1.418  28.515  1.00  0.00     0.335 C 
HETATM    7  N1  UNL     1      43.385  -2.285  27.405  1.00  0.00    -0.338 N 
HETATM    8  O1  UNL     1      44.520  -0.767  28.741  1.00  0.00    -0.246 OA
ATOM      9  H1  UNL     1      42.510  -2.795  27.277  1.00  0.00     0.164 HD
ATOM     10  H2  UNL     1      41.504  -1.811  29.203  1.00  0.00     0.192 HD
BRANCH   7  11
HETATM   11  C2  UNL     1      44.437  -2.506  26.434  1.00  0.00     0.078 C 
HETATM   12  C1  UNL     1      44.102  -3.876  25.809  1.00  0.00     0.032 C 
HETATM   13  C3  UNL     1      44.329  -1.433  25.379  1.00  0.00     0.032 C 
ENDBRANCH   7  11
ENDBRANCH   3   5
ENDBRANCH   1   3
BRANCH   1  14
HETATM   14  N4  UNL     1      42.859  -0.169  32.869  1.00  0.00    -0.365 N 
ATOM     15  H4  UNL     1      42.087   0.112  33.474  1.00  0.00     0.161 HD
BRANCH  14  16
HETATM   16  C6  UNL     1      44.214   0.302  33.114  1.00  0.00     0.131 C 
BRANCH  16  17
HETATM   17  C7  UNL     1      44.386   0.628  34.584  1.00  0.00    -0.023 C 
HETATM   18  C8  UNL     1      43.612  -0.386  35.397  1.00  0.00     0.015 C 
HETATM   19  C9  UNL     1      43.718   0.012  36.851  1.00  0.00    -0.013 C 
HETATM   20  C10 UNL     1      43.169   1.382  37.107  1.00  0.00     0.009 C 
HETATM   21  C14 UNL     1      45.196  -0.089  37.200  1.00  0.00     0.009 C 
HETATM   22  C11 UNL     1      43.957   2.385  36.281  1.00  0.00    -0.013 C 
HETATM   23  C12 UNL     1      45.424   2.330  36.616  1.00  0.00     0.009 C 
HETATM   24  C16 UNL     1      43.786   1.992  34.827  1.00  0.00     0.015 C 
HETATM   25  C13 UNL     1      45.967   0.937  36.430  1.00  0.00    -0.013 C 
HETATM   26  C15 UNL     1      45.841   0.614  34.944  1.00  0.00     0.015 C 
ENDBRANCH  16  17
ENDBRANCH  14  16
ENDBRANCH   1  14
TORSDOF 6
ENDMDL
MODEL 3
REMARK VINA RESULT: -6.101445238      4.185      5.463
REMARK  6 active torsions:
REMARK  status: ('A' for Active; 'I' for Inactive)
REMARK    1  A    between atoms: C2_2  and  N1_4 
REMARK       I    between atoms: N1_4  and  C4_6 
REMARK       I    between atoms: C4_6  and  N2_8 
REMARK    2  A    between atoms: N2_8  and  N3_10 
REMARK    3  A    between atoms: N3_10  and  C5_12 
REMARK    4  A    between atoms: C5_12  and  N4_14 
REMARK    5  A    between atoms: N4_14  and  C6_16 
REMARK    6  A    between atoms: C6_16  and  C7_17 
ROOT
HETATM    1  C5  UNL     1      42.643  -1.090  31.766  1.00  0.00     0.186 C 
HETATM    2  S1  UNL     1      42.612  -2.709  31.941  1.00  0.00    -0.040 SA
ENDROOT
BRANCH   1   3
HETATM    3  N3  UNL     1      42.497  -0.471  30.491  1.00  0.00    -0.272 N 
ATOM      4  H3  UNL     1      42.476   0.544  30.398  1.00  0.00     0.189 HD
BRANCH   3   5
HETATM    5  N2  UNL     1      42.384  -1.299  29.375  1.00  0.00    -0.249 N 
HETATM    6  C4  UNL     1      43.497  -1.432  28.509  1.00  0.00     0.335 C 
HETATM    7  N1  UNL     1      43.392  -2.276  27.383  1.00  0.00    -0.338 N 
HETATM    8  O1  UNL     1      44.553  -0.805  28.749  1.00  0.00    -0.246 OA
ATOM      9  H1  UNL     1      42.508  -2.766  27.243  1.00  0.00     0.164 HD
ATOM     10  H2  UNL     1      41.516  -1.799  29.185  1.00  0.00     0.192 HD
BRANCH   7  11
HETATM   11  C2  UNL     1      44.443  -2.500  26.410  1.00  0.00     0.078 C 
HETATM   12  C1  UNL     1      44.114  -3.878  25.800  1.00  0.00     0.032 C 
HETATM   13  C3  UNL     1      44.325  -1.438  25.346  1.00  0.00     0.032 C 
ENDBRANCH   7  11
ENDBRANCH   3   5
ENDBRANCH   1   3
BRANCH   1  14
HETATM   14  N4  UNL     1      42.829  -0.251  32.893  1.00  0.00    -0.365 N 
ATOM     15  H4  UNL     1      42.060  -0.052  33.534  1.00  0.00     0.161 HD
BRANCH  14  16
HETATM   16  C6  UNL     1      44.152   0.317  33.109  1.00  0.00     0.131 C 
BRANCH  16  17
HETATM   17  C7  UNL     1      44.322   0.676  34.572  1.00  0.00    -0.023 C 
HETATM   18  C8  UNL     1      45.794   0.617  34.915  1.00  0.00     0.015 C 
HETATM   19  C9  UNL     1      45.933   0.885  36.396  1.00  0.00    -0.013 C 
HETATM   20  C10 UNL     1      45.186  -0.114  37.226  1.00  0.00     0.009 C 
HETATM   21  C14 UNL     1      45.425   2.303  36.609  1.00  0.00     0.009 C 
HETATM   22  C11 UNL     1      43.712  -0.042  36.866  1.00  0.00    -0.013 C 
HETATM   23  C12 UNL     1      43.167   1.344  37.086  1.00  0.00     0.009 C 
HETATM   24  C16 UNL     1      43.601  -0.368  35.390  1.00  0.00     0.015 C 
HETATM   25  C13 UNL     1      43.959   2.364  36.310  1.00  0.00    -0.013 C 
HETATM   26  C15 UNL     1      43.759   2.041  34.833  1.00  0.00     0.015 C 
ENDBRANCH  16  17
ENDBRANCH  14  16
ENDBRANCH   1  14
TORSDOF 6
ENDMDL
MODEL 4
REMARK VINA RESULT: -6.065938583      4.194      5.627
REMARK  6 active torsions:
REMARK  status: ('A' for Active; 'I' for Inactive)
REMARK    1  A    between atoms: C2_2  and  N1_4 
REMARK       I    between atoms: N1_4  and  C4_6 
REMARK       I    between atoms: C4_6  and  N2_8 
REMARK    2  A    between atoms: N2_8  and  N3_10 
REMARK    3  A    between atoms: N3_10  and  C5_12 
REMARK    4  A    between atoms: C5_12  and  N4_14 
REMARK    5  A    between atoms: N4_14  and  C6_16 
REMARK    6  A    between atoms: C6_16  and  C7_17 
ROOT
HETATM    1  C5  UNL     1      42.614  -1.054  31.758  1.00  0.00     0.186 C 
HETATM    2  S1  UNL     1      42.617  -2.669  31.973  1.00  0.00    -0.040 SA
ENDROOT
BRANCH   1   3
HETATM    3  N3  UNL     1      42.431  -0.469  30.472  1.00  0.00    -0.272 N 
ATOM      4  H3  UNL     1      42.369   0.542  30.358  1.00  0.00     0.189 HD
BRANCH   3   5
HETATM    5  N2  UNL     1      42.340  -1.324  29.375  1.00  0.00    -0.249 N 
HETATM    6  C4  UNL     1      43.456  -1.448  28.512  1.00  0.00     0.335 C 
HETATM    7  N1  UNL     1      43.374  -2.319  27.405  1.00  0.00    -0.338 N 
HETATM    8  O1  UNL     1      44.496  -0.788  28.737  1.00  0.00    -0.246 OA
ATOM      9  H1  UNL     1      42.503  -2.836  27.277  1.00  0.00     0.164 HD
ATOM     10  H2  UNL     1      41.485  -1.851  29.197  1.00  0.00     0.192 HD
BRANCH   7  11
HETATM   11  C2  UNL     1      44.430  -2.538  26.437  1.00  0.00     0.078 C 
HETATM   12  C1  UNL     1      44.101  -3.908  25.812  1.00  0.00     0.032 C 
HETATM   13  C3  UNL     1      44.322  -1.465  25.382  1.00  0.00     0.032 C 
ENDBRANCH   7  11
ENDBRANCH   3   5
ENDBRANCH   1   3
BRANCH   1  14
HETATM   14  N4  UNL     1      42.807  -0.185  32.861  1.00  0.00    -0.365 N 
ATOM     15  H4  UNL     1      42.022   0.111  33.441  1.00  0.00     0.161 HD
BRANCH  14  16
HETATM   16  C6  UNL     1      44.161   0.271  33.141  1.00  0.00     0.131 C 
BRANCH  16  17
HETATM   17  C7  UNL     1      44.298   0.593  34.617  1.00  0.00    -0.023 C 
HETATM   18  C8  UNL     1      43.752   1.982  34.860  1.00  0.00     0.015 C 
HETATM   19  C9  UNL     1      43.984   2.320  36.315  1.00  0.00    -0.013 C 
HETATM   20  C10 UNL     1      45.437   2.281  36.682  1.00  0.00     0.009 C 
HETATM   21  C14 UNL     1      43.164   1.313  37.108  1.00  0.00     0.009 C 
HETATM   22  C11 UNL     1      45.966   0.879  36.429  1.00  0.00    -0.013 C 
HETATM   23  C12 UNL     1      45.191  -0.144  37.217  1.00  0.00     0.009 C 
HETATM   24  C16 UNL     1      45.769   0.592  34.953  1.00  0.00     0.015 C 
HETATM   25  C13 UNL     1      43.719  -0.062  36.905  1.00  0.00    -0.013 C 
HETATM   26  C15 UNL     1      43.563  -0.428  35.433  1.00  0.00     0.015 C 
ENDBRANCH  16  17
ENDBRANCH  14  16
ENDBRANCH   1  14
TORSDOF 6
ENDMDL
MODEL 5
REMARK VINA RESULT: -5.950566750      2.801      5.445
REMARK  6 active torsions:
REMARK  status: ('A' for Active; 'I' for Inactive)
REMARK    1  A    between atoms: C2_2  and  N1_4 
REMARK       I    between atoms: N1_4  and  C4_6 
REMARK       I    between atoms: C4_6  and  N2_8 
REMARK    2  A    between atoms: N2_8  and  N3_10 
REMARK    3  A    between atoms: N3_10  and  C5_12 
REMARK    4  A    between atoms: C5_12  and  N4_14 
REMARK    5  A    between atoms: N4_14  and  C6_16 
REMARK    6  A    between atoms: C6_16  and  C7_17 
ROOT
HETATM    1  C5  UNL     1      43.919  -1.922  28.109  1.00  0.00     0.186 C 
HETATM    2  S1  UNL     1      44.399  -1.604  26.585  1.00  0.00    -0.040 SA
ENDROOT
BRANCH   1   3
HETATM    3  N3  UNL     1      43.437  -0.897  28.972  1.00  0.00    -0.272 N 
ATOM      4  H3  UNL     1      44.056  -0.164  29.316  1.00  0.00     0.189 HD
BRANCH   3   5
HETATM    5  N2  UNL     1      42.090  -0.929  29.331  1.00  0.00    -0.249 N 
HETATM    6  C4  UNL     1      41.724  -0.538  30.642  1.00  0.00     0.335 C 
HETATM    7  N1  UNL     1      40.362  -0.559  31.008  1.00  0.00    -0.338 N 
HETATM    8  O1  UNL     1      42.605  -0.182  31.456  1.00  0.00    -0.246 OA
ATOM      9  H1  UNL     1      39.688  -0.852  30.300  1.00  0.00     0.164 HD
ATOM     10  H2  UNL     1      41.381  -1.229  28.662  1.00  0.00     0.192 HD
BRANCH   7  11
HETATM   11  C2  UNL     1      39.845  -0.195  32.313  1.00  0.00     0.078 C 
HETATM   12  C1  UNL     1      38.690   0.781  32.010  1.00  0.00     0.032 C 
HETATM   13  C3  UNL     1      39.293  -1.442  32.958  1.00  0.00     0.032 C 
ENDBRANCH   7  11
ENDBRANCH   3   5
ENDBRANCH   1   3
BRANCH   1  14
HETATM   14  N4  UNL     1      43.984  -3.244  28.618  1.00  0.00    -0.365 N 
ATOM     15  H4  UNL     1      44.821  -3.585  29.089  1.00  0.00     0.161 HD
BRANCH  14  16
HETATM   16  C6  UNL     1      42.817  -4.097  28.448  1.00  0.00     0.131 C 
BRANCH  16  17
HETATM   17  C7  UNL     1      42.379  -4.640  29.794  1.00  0.00    -0.023 C 
HETATM   18  C8  UNL     1      40.969  -4.167  30.070  1.00  0.00     0.015 C 
HETATM   19  C9  UNL     1      40.588  -4.639  31.454  1.00  0.00    -0.013 C 
HETATM   20  C10 UNL     1      41.510  -4.108  32.509  1.00  0.00     0.009 C 
HETATM   21  C14 UNL     1      40.603  -6.160  31.390  1.00  0.00     0.009 C 
HETATM   22  C11 UNL     1      42.920  -4.592  32.213  1.00  0.00    -0.013 C 
HETATM   23  C12 UNL     1      42.978  -6.096  32.165  1.00  0.00     0.009 C 
HETATM   24  C16 UNL     1      43.293  -4.058  30.844  1.00  0.00     0.015 C 
HETATM   25  C13 UNL     1      42.001  -6.641  31.156  1.00  0.00    -0.013 C 
HETATM   26  C15 UNL     1      42.457  -6.138  29.790  1.00  0.00     0.015 C 
ENDBRANCH  16  17
ENDBRANCH  14  16
ENDBRANCH   1  14
TORSDOF 6
ENDMDL
