MODEL 1
REMARK VINA RESULT: -7.486831395      0.000      0.000
REMARK  2 active torsions:
REMARK  status: ('A' for Active; 'I' for Inactive)
REMARK    1  A    between atoms: C6_6  and  N1_7 
REMARK       I    between atoms: N1_7  and  C7_9 
REMARK       I    between atoms: C7_9  and  N2_11 
REMARK    2  A    between atoms: N2_11  and  C8_13 
ROOT
HETATM    1  N1  UNL     1      43.612  -2.153  32.058  1.00  0.00    -0.330 N 
ATOM      2  H1  UNL     1      44.162  -2.971  32.318  1.00  0.00     0.165 HD
HETATM    3  C7  UNL     1      43.341  -1.906  30.700  1.00  0.00     0.317 C 
HETATM    4  O1  UNL     1      42.669  -0.915  30.320  1.00  0.00    -0.247 OA
HETATM    5  N2  UNL     1      43.828  -2.788  29.695  1.00  0.00    -0.338 N 
ATOM      6  H2  UNL     1      44.377  -3.606  29.959  1.00  0.00     0.164 HD
ENDROOT
BRANCH   1   7
HETATM    7  C6  UNL     1      43.130  -1.275  33.084  1.00  0.00     0.061 C 
HETATM    8  C5  UNL     1      43.728  -1.768  34.451  1.00  0.00     0.042 C 
HETATM    9  C4  UNL     1      42.807  -1.106  35.463  1.00  0.00     0.004 C 
HETATM   10  C2  UNL     1      41.591  -2.079  35.488  1.00  0.00    -0.039 C 
HETATM   11  C15 UNL     1      42.431   0.251  34.971  1.00  0.00     0.013 C 
HETATM   12  C1  UNL     1      40.455  -1.599  36.290  1.00  0.00     0.015 C 
HETATM   13  C3  UNL     1      42.166  -3.250  36.328  1.00  0.00     0.015 C 
HETATM   14  C19 UNL     1      41.393  -2.507  34.106  1.00  0.00     0.006 A 
HETATM   15  C17 UNL     1      41.696  -1.221  33.248  1.00  0.00    -0.006 A 
HETATM   16  C18 UNL     1      40.607  -2.108  32.997  1.00  0.00     0.019 A 
HETATM   17  C16 UNL     1      41.294   0.019  33.976  1.00  0.00     0.021 C 
HETATM   18  C14 UNL     1      43.441   0.865  34.055  1.00  0.00    -0.023 C 
HETATM   19  C13 UNL     1      43.802   0.057  33.053  1.00  0.00     0.001 C 
ENDBRANCH   1   7
BRANCH   5  20
HETATM   20  C8  UNL     1      43.550  -2.534  28.316  1.00  0.00     0.094 C 
HETATM   21  C9  UNL     1      44.666  -1.654  27.772  1.00  0.00     0.045 C 
HETATM   22  C10 UNL     1      44.308  -1.216  26.369  1.00  0.00     0.123 C 
HETATM   23  N3  UNL     1      44.296  -2.415  25.551  1.00  0.00    -0.380 N 
HETATM   24  C11 UNL     1      44.080  -3.684  26.169  1.00  0.00     0.072 C 
ATOM     25  H3  UNL     1      44.441  -2.351  24.543  1.00  0.00     0.160 HD
HETATM   26  N4  UNL     1      44.457  -4.740  25.531  1.00  0.00    -0.389 N 
HETATM   27  C12 UNL     1      43.443  -3.806  27.500  1.00  0.00     0.101 C 
ATOM     28  H42 UNL     1      44.896  -4.656  24.614  1.00  0.00     0.157 HD
ATOM     29  H41 UNL     1      44.302  -5.647  25.973  1.00  0.00     0.157 HD
ENDBRANCH   5  20
TORSDOF 2
ENDMDL
MODEL 2
REMARK VINA RESULT: -7.414413803      1.061      1.765
REMARK  2 active torsions:
REMARK  status: ('A' for Active; 'I' for Inactive)
REMARK    1  A    between atoms: C6_6  and  N1_7 
REMARK       I    between atoms: N1_7  and  C7_9 
REMARK       I    between atoms: C7_9  and  N2_11 
REMARK    2  A    between atoms: N2_11  and  C8_13 
ROOT
HETATM    1  N1  UNL     1      43.567  -1.496  31.272  1.00  0.00    -0.330 N 
ATOM      2  H1  UNL     1      44.559  -1.486  31.512  1.00  0.00     0.165 HD
HETATM    3  C7  UNL     1      43.183  -1.707  29.936  1.00  0.00     0.317 C 
HETATM    4  O1  UNL     1      41.978  -1.731  29.581  1.00  0.00    -0.247 OA
HETATM    5  N2  UNL     1      44.164  -1.906  28.924  1.00  0.00    -0.338 N 
ATOM      6  H2  UNL     1      45.155  -1.896  29.169  1.00  0.00     0.164 HD
ENDROOT
BRANCH   1   7
HETATM    7  C6  UNL     1      42.593  -1.294  32.303  1.00  0.00     0.061 C 
HETATM    8  C5  UNL     1      43.161  -0.209  33.289  1.00  0.00     0.042 C 
HETATM    9  C4  UNL     1      42.315  -0.429  34.532  1.00  0.00     0.004 C 
HETATM   10  C2  UNL     1      43.039  -1.627  35.217  1.00  0.00    -0.039 C 
HETATM   11  C15 UNL     1      40.921  -0.773  34.124  1.00  0.00     0.013 C 
HETATM   12  C1  UNL     1      42.335  -2.161  36.393  1.00  0.00     0.015 C 
HETATM   13  C3  UNL     1      44.279  -0.917  35.821  1.00  0.00     0.015 C 
HETATM   14  C19 UNL     1      43.451  -2.516  34.133  1.00  0.00     0.006 A 
HETATM   15  C17 UNL     1      42.264  -2.453  33.099  1.00  0.00    -0.006 A 
HETATM   16  C18 UNL     1      42.934  -3.657  33.473  1.00  0.00     0.019 A 
HETATM   17  C16 UNL     1      40.956  -2.265  33.792  1.00  0.00     0.021 C 
HETATM   18  C14 UNL     1      40.530  -0.229  32.787  1.00  0.00    -0.023 C 
HETATM   19  C13 UNL     1      41.413  -0.515  31.825  1.00  0.00     0.001 C 
ENDBRANCH   1   7
BRANCH   5  20
HETATM   20  C8  UNL     1      43.769  -2.120  27.568  1.00  0.00     0.094 C 
HETATM   21  C9  UNL     1      44.803  -1.452  26.672  1.00  0.00     0.045 C 
HETATM   22  C10 UNL     1      44.319  -1.503  25.240  1.00  0.00     0.123 C 
HETATM   23  N3  UNL     1      44.291  -2.903  24.860  1.00  0.00    -0.380 N 
HETATM   24  C11 UNL     1      44.175  -3.903  25.873  1.00  0.00     0.072 C 
ATOM     25  H3  UNL     1      44.354  -3.171  23.878  1.00  0.00     0.160 HD
HETATM   26  N4  UNL     1      44.543  -5.105  25.583  1.00  0.00    -0.389 N 
HETATM   27  C12 UNL     1      43.650  -3.590  27.222  1.00  0.00     0.101 C 
ATOM     28  H42 UNL     1      44.906  -5.319  24.654  1.00  0.00     0.157 HD
ATOM     29  H41 UNL     1      44.461  -5.819  26.307  1.00  0.00     0.157 HD
ENDBRANCH   5  20
TORSDOF 2
ENDMDL
MODEL 3
REMARK VINA RESULT: -7.385694964      1.126      2.822
REMARK  2 active torsions:
REMARK  status: ('A' for Active; 'I' for Inactive)
REMARK    1  A    between atoms: C6_6  and  N1_7 
REMARK       I    between atoms: N1_7  and  C7_9 
REMARK       I    between atoms: C7_9  and  N2_11 
REMARK    2  A    between atoms: N2_11  and  C8_13 
ROOT
HETATM    1  N1  UNL     1      42.507  -0.777  31.399  1.00  0.00    -0.330 N 
ATOM      2  H1  UNL     1      42.091   0.105  31.099  1.00  0.00     0.165 HD
HETATM    3  C7  UNL     1      43.232  -1.548  30.472  1.00  0.00     0.317 C 
HETATM    4  O1  UNL     1      43.767  -2.641  30.782  1.00  0.00    -0.247 OA
HETATM    5  N2  UNL     1      43.386  -1.105  29.128  1.00  0.00    -0.338 N 
ATOM      6  H2  UNL     1      42.969  -0.222  28.833  1.00  0.00     0.164 HD
ENDROOT
BRANCH   1   7
HETATM    7  C6  UNL     1      42.341  -1.208  32.756  1.00  0.00     0.061 C 
HETATM    8  C5  UNL     1      41.415  -0.162  33.477  1.00  0.00     0.042 C 
HETATM    9  C4  UNL     1      41.701  -0.438  34.944  1.00  0.00     0.004 C 
HETATM   10  C2  UNL     1      43.016   0.362  35.180  1.00  0.00    -0.039 C 
HETATM   11  C15 UNL     1      41.891  -1.904  35.141  1.00  0.00     0.013 C 
HETATM   12  C1  UNL     1      43.616   0.152  36.506  1.00  0.00     0.015 C 
HETATM   13  C3  UNL     1      42.472   1.814  35.248  1.00  0.00     0.015 C 
HETATM   14  C19 UNL     1      43.814   0.185  33.969  1.00  0.00     0.006 A 
HETATM   15  C17 UNL     1      43.550  -1.308  33.540  1.00  0.00    -0.006 A 
HETATM   16  C18 UNL     1      44.835  -0.686  33.517  1.00  0.00     0.019 A 
HETATM   17  C16 UNL     1      43.337  -2.181  34.731  1.00  0.00     0.021 C 
HETATM   18  C14 UNL     1      41.179  -2.749  34.133  1.00  0.00    -0.023 C 
HETATM   19  C13 UNL     1      41.428  -2.382  32.871  1.00  0.00     0.001 C 
ENDBRANCH   1   7
BRANCH   5  20
HETATM   20  C8  UNL     1      44.123  -1.891  28.190  1.00  0.00     0.094 C 
HETATM   21  C9  UNL     1      43.270  -3.097  27.822  1.00  0.00     0.045 C 
HETATM   22  C10 UNL     1      44.092  -4.042  26.974  1.00  0.00     0.123 C 
HETATM   23  N3  UNL     1      44.374  -3.345  25.732  1.00  0.00    -0.380 N 
HETATM   24  C11 UNL     1      44.354  -1.918  25.707  1.00  0.00     0.072 C 
ATOM     25  H3  UNL     1      44.586  -3.871  24.884  1.00  0.00     0.160 HD
HETATM   26  N4  UNL     1      44.211  -1.334  24.566  1.00  0.00    -0.389 N 
HETATM   27  C12 UNL     1      44.494  -1.113  26.943  1.00  0.00     0.101 C 
ATOM     28  H42 UNL     1      44.114  -1.888  23.715  1.00  0.00     0.157 HD
ATOM     29  H41 UNL     1      44.196  -0.314  24.549  1.00  0.00     0.157 HD
ENDBRANCH   5  20
TORSDOF 2
ENDMDL
MODEL 4
REMARK VINA RESULT: -7.370302580      1.511      3.285
REMARK  2 active torsions:
REMARK  status: ('A' for Active; 'I' for Inactive)
REMARK    1  A    between atoms: C6_6  and  N1_7 
REMARK       I    between atoms: N1_7  and  C7_9 
REMARK       I    between atoms: C7_9  and  N2_11 
REMARK    2  A    between atoms: N2_11  and  C8_13 
ROOT
HETATM    1  N1  UNL     1      42.918  -0.343  32.227  1.00  0.00    -0.330 N 
ATOM      2  H1  UNL     1      42.402   0.451  31.849  1.00  0.00     0.165 HD
HETATM    3  C7  UNL     1      43.445  -1.306  31.348  1.00  0.00     0.317 C 
HETATM    4  O1  UNL     1      44.089  -2.304  31.754  1.00  0.00    -0.247 OA
HETATM    5  N2  UNL     1      43.261  -1.177  29.942  1.00  0.00    -0.338 N 
ATOM      6  H2  UNL     1      42.744  -0.381  29.568  1.00  0.00     0.164 HD
ENDROOT
BRANCH   1   7
HETATM    7  C6  UNL     1      43.093  -0.457  33.645  1.00  0.00     0.061 C 
HETATM    8  C5  UNL     1      42.179   0.627  34.326  1.00  0.00     0.042 C 
HETATM    9  C4  UNL     1      42.790   0.736  35.714  1.00  0.00     0.004 C 
HETATM   10  C2  UNL     1      43.988   1.701  35.473  1.00  0.00    -0.039 C 
HETATM   11  C15 UNL     1      43.236  -0.615  36.162  1.00  0.00     0.013 C 
HETATM   12  C1  UNL     1      44.865   1.873  36.641  1.00  0.00     0.015 C 
HETATM   13  C3  UNL     1      43.253   3.064  35.360  1.00  0.00     0.015 C 
HETATM   14  C19 UNL     1      44.546   1.328  34.175  1.00  0.00     0.006 A 
HETATM   15  C17 UNL     1      44.434  -0.243  34.136  1.00  0.00    -0.006 A 
HETATM   16  C18 UNL     1      45.578   0.486  33.693  1.00  0.00     0.019 A 
HETATM   17  C16 UNL     1      44.597  -0.829  35.499  1.00  0.00     0.021 C 
HETATM   18  C14 UNL     1      42.477  -1.742  35.540  1.00  0.00    -0.023 C 
HETATM   19  C13 UNL     1      42.411  -1.659  34.207  1.00  0.00     0.001 C 
ENDBRANCH   1   7
BRANCH   5  20
HETATM   20  C8  UNL     1      43.797  -2.158  29.052  1.00  0.00     0.094 C 
HETATM   21  C9  UNL     1      42.651  -3.050  28.598  1.00  0.00     0.045 C 
HETATM   22  C10 UNL     1      43.213  -4.207  27.802  1.00  0.00     0.123 C 
HETATM   23  N3  UNL     1      43.792  -3.640  26.598  1.00  0.00    -0.380 N 
HETATM   24  C11 UNL     1      44.207  -2.274  26.595  1.00  0.00     0.072 C 
ATOM     25  H3  UNL     1      43.900  -4.212  25.760  1.00  0.00     0.160 HD
HETATM   26  N4  UNL     1      44.339  -1.683  25.456  1.00  0.00    -0.389 N 
HETATM   27  C12 UNL     1      44.485  -1.539  27.851  1.00  0.00     0.101 C 
ATOM     28  H42 UNL     1      44.148  -2.189  24.591  1.00  0.00     0.157 HD
ATOM     29  H41 UNL     1      44.636  -0.707  25.454  1.00  0.00     0.157 HD
ENDBRANCH   5  20
TORSDOF 2
ENDMDL
MODEL 5
REMARK VINA RESULT: -7.109097481      1.072      1.466
REMARK  2 active torsions:
REMARK  status: ('A' for Active; 'I' for Inactive)
REMARK    1  A    between atoms: C6_6  and  N1_7 
REMARK       I    between atoms: N1_7  and  C7_9 
REMARK       I    between atoms: C7_9  and  N2_11 
REMARK    2  A    between atoms: N2_11  and  C8_13 
ROOT
HETATM    1  N1  UNL     1      43.332  -2.199  31.678  1.00  0.00    -0.330 N 
ATOM      2  H1  UNL     1      44.278  -2.453  31.961  1.00  0.00     0.165 HD
HETATM    3  C7  UNL     1      43.014  -2.140  30.309  1.00  0.00     0.317 C 
HETATM    4  O1  UNL     1      41.867  -1.834  29.900  1.00  0.00    -0.247 OA
HETATM    5  N2  UNL     1      44.001  -2.430  29.325  1.00  0.00    -0.338 N 
ATOM      6  H2  UNL     1      44.946  -2.684  29.613  1.00  0.00     0.164 HD
ENDROOT
BRANCH   1   7
HETATM    7  C6  UNL     1      42.351  -1.909  32.682  1.00  0.00     0.061 C 
HETATM    8  C5  UNL     1      43.040  -2.083  34.084  1.00  0.00     0.042 C 
HETATM    9  C4  UNL     1      41.846  -2.228  35.014  1.00  0.00     0.004 C 
HETATM   10  C2  UNL     1      41.485  -3.734  34.854  1.00  0.00    -0.039 C 
HETATM   11  C15 UNL     1      40.748  -1.333  34.547  1.00  0.00     0.013 C 
HETATM   12  C1  UNL     1      40.246  -4.131  35.542  1.00  0.00     0.015 C 
HETATM   13  C3  UNL     1      42.604  -4.399  35.698  1.00  0.00     0.015 C 
HETATM   14  C19 UNL     1      41.677  -4.043  33.439  1.00  0.00     0.006 A 
HETATM   15  C17 UNL     1      41.179  -2.753  32.684  1.00  0.00    -0.006 A 
HETATM   16  C18 UNL     1      40.881  -4.086  32.268  1.00  0.00     0.019 A 
HETATM   17  C16 UNL     1      40.057  -2.098  33.418  1.00  0.00     0.021 C 
HETATM   18  C14 UNL     1      41.223  -0.138  33.783  1.00  0.00    -0.023 C 
HETATM   19  C13 UNL     1      42.064  -0.449  32.791  1.00  0.00     0.001 C 
ENDBRANCH   1   7
BRANCH   5  20
HETATM   20  C8  UNL     1      43.674  -2.368  27.936  1.00  0.00     0.094 C 
HETATM   21  C9  UNL     1      44.772  -1.581  27.234  1.00  0.00     0.045 C 
HETATM   22  C10 UNL     1      44.365  -1.341  25.798  1.00  0.00     0.123 C 
HETATM   23  N3  UNL     1      44.319  -2.642  25.156  1.00  0.00    -0.380 N 
HETATM   24  C11 UNL     1      44.122  -3.811  25.952  1.00  0.00     0.072 C 
ATOM     25  H3  UNL     1      44.428  -2.721  24.145  1.00  0.00     0.160 HD
HETATM   26  N4  UNL     1      44.473  -4.949  25.455  1.00  0.00    -0.389 N 
HETATM   27  C12 UNL     1      43.533  -3.741  27.310  1.00  0.00     0.101 C 
ATOM     28  H42 UNL     1      44.879  -4.996  24.521  1.00  0.00     0.157 HD
ATOM     29  H41 UNL     1      44.332  -5.783  26.025  1.00  0.00     0.157 HD
ENDBRANCH   5  20
TORSDOF 2
ENDMDL
