MODEL 1
REMARK VINA RESULT: -6.653979363      0.000      0.000
REMARK  3 active torsions:
REMARK  status: ('A' for Active; 'I' for Inactive)
REMARK       I    between atoms: C2_3  and  N2_4 
REMARK       I    between atoms: N2_4  and  C3_5 
REMARK       I    between atoms: C3_5  and  N3_7 
REMARK    1  A    between atoms: N3_7  and  C4_9 
REMARK    2  A    between atoms: N4_12  and  C7_14 
REMARK    3  A    between atoms: C12_22  and  C13_23 
ROOT
HETATM    1  C1  UNL     1      41.275  -0.503  32.620  1.00  0.00     0.234 C 
HETATM    2  N1  UNL     1      42.474  -0.654  32.219  1.00  0.00    -0.384 NA
HETATM    3  C2  UNL     1      43.618  -0.882  31.734  1.00  0.00     0.335 C 
HETATM    4  N2  UNL     1      44.464  -0.049  32.577  1.00  0.00    -0.303 NA
HETATM    5  C3  UNL     1      45.250   0.724  33.359  1.00  0.00     0.397 C 
HETATM    6  O1  UNL     1      46.368   1.201  33.156  1.00  0.00    -0.230 OA
HETATM    7  N3  UNL     1      44.632   1.006  34.701  1.00  0.00    -0.327 N 
ATOM      8  H3  UNL     1      43.828   0.431  34.950  1.00  0.00     0.165 HD
HETATM    9  N4  UNL     1      43.984  -1.693  30.698  1.00  0.00    -0.333 N 
ATOM     10  H4  UNL     1      44.919  -1.611  30.296  1.00  0.00     0.165 HD
ENDROOT
BRANCH   9  11
HETATM   11  C7  UNL     1      43.058  -2.665  30.167  1.00  0.00     0.094 C 
HETATM   12  C8  UNL     1      43.549  -4.113  30.100  1.00  0.00     0.059 C 
HETATM   13  C9  UNL     1      42.788  -4.667  28.921  1.00  0.00     0.193 C 
HETATM   14  N5  UNL     1      41.363  -4.469  29.175  1.00  0.00    -0.070 N 
HETATM   15  C12 UNL     1      42.980  -3.529  27.949  1.00  0.00     0.034 C 
HETATM   16  C10 UNL     1      41.051  -3.029  28.935  1.00  0.00     0.239 C 
ATOM     17  H52 UNL     1      40.773  -5.097  28.629  1.00  0.00     0.277 HD
ATOM     18  H51 UNL     1      41.078  -4.786  30.101  1.00  0.00     0.277 HD
HETATM   19  C11 UNL     1      42.478  -2.419  28.841  1.00  0.00     0.041 C 
BRANCH  15  20
HETATM   20  C13 UNL     1      44.294  -3.290  27.365  1.00  0.00     0.092 C 
HETATM   21 BR1  UNL     1      44.347  -1.464  26.767  1.00  0.00    -0.096 Br
ENDBRANCH  15  20
ENDBRANCH   9  11
BRANCH   7  22
HETATM   22  C4  UNL     1      45.024   1.970  35.666  1.00  0.00     0.079 C 
HETATM   23  C5  UNL     1      45.882   1.365  36.725  1.00  0.00     0.032 C 
HETATM   24  C6  UNL     1      43.768   2.502  36.395  1.00  0.00     0.032 C 
ENDBRANCH   7  22
TORSDOF 2
ENDMDL
MODEL 2
REMARK VINA RESULT: -6.078951899      1.182      1.208
REMARK  3 active torsions:
REMARK  status: ('A' for Active; 'I' for Inactive)
REMARK       I    between atoms: C2_3  and  N2_4 
REMARK       I    between atoms: N2_4  and  C3_5 
REMARK       I    between atoms: C3_5  and  N3_7 
REMARK    1  A    between atoms: N3_7  and  C4_9 
REMARK    2  A    between atoms: N4_12  and  C7_14 
REMARK    3  A    between atoms: C12_22  and  C13_23 
ROOT
HETATM    1  C1  UNL     1      42.270  -2.659  33.944  1.00  0.00     0.234 C 
HETATM    2  N1  UNL     1      42.750  -1.800  33.137  1.00  0.00    -0.384 NA
HETATM    3  C2  UNL     1      43.176  -1.016  32.242  1.00  0.00     0.335 C 
HETATM    4  N2  UNL     1      43.863  -0.010  33.039  1.00  0.00    -0.303 NA
HETATM    5  C3  UNL     1      44.501   0.924  33.779  1.00  0.00     0.397 C 
HETATM    6  O1  UNL     1      44.788   2.095  33.523  1.00  0.00    -0.230 OA
HETATM    7  N3  UNL     1      44.939   0.401  35.119  1.00  0.00    -0.327 N 
ATOM      8  H3  UNL     1      44.908  -0.612  35.233  1.00  0.00     0.165 HD
HETATM    9  N4  UNL     1      43.041  -1.080  30.884  1.00  0.00    -0.333 N 
ATOM     10  H4  UNL     1      43.265  -0.264  30.314  1.00  0.00     0.165 HD
ENDROOT
BRANCH   9  11
HETATM   11  C7  UNL     1      42.584  -2.294  30.250  1.00  0.00     0.094 C 
HETATM   12  C8  UNL     1      43.604  -3.428  30.126  1.00  0.00     0.059 C 
HETATM   13  C9  UNL     1      43.152  -4.146  28.879  1.00  0.00     0.193 C 
HETATM   14  N5  UNL     1      41.757  -4.538  29.069  1.00  0.00    -0.070 N 
HETATM   15  C12 UNL     1      42.907  -2.955  27.985  1.00  0.00     0.034 C 
HETATM   16  C10 UNL     1      40.912  -3.320  28.897  1.00  0.00     0.239 C 
ATOM     17  H52 UNL     1      41.475  -5.304  28.458  1.00  0.00     0.277 HD
ATOM     18  H51 UNL     1      41.596  -5.008  29.960  1.00  0.00     0.277 HD
HETATM   19  C11 UNL     1      41.988  -2.197  28.913  1.00  0.00     0.041 C 
BRANCH  15  20
HETATM   20  C13 UNL     1      44.036  -2.181  27.485  1.00  0.00     0.092 C 
HETATM   21 BR1  UNL     1      44.472  -2.844  25.735  1.00  0.00    -0.096 Br
ENDBRANCH  15  20
ENDBRANCH   9  11
BRANCH   7  22
HETATM   22  C4  UNL     1      45.391   1.135  36.247  1.00  0.00     0.079 C 
HETATM   23  C5  UNL     1      46.657   0.569  36.795  1.00  0.00     0.032 C 
HETATM   24  C6  UNL     1      44.349   1.017  37.384  1.00  0.00     0.032 C 
ENDBRANCH   7  22
TORSDOF 2
ENDMDL
MODEL 3
REMARK VINA RESULT: -5.729462821      1.190      1.274
REMARK  3 active torsions:
REMARK  status: ('A' for Active; 'I' for Inactive)
REMARK       I    between atoms: C2_3  and  N2_4 
REMARK       I    between atoms: N2_4  and  C3_5 
REMARK       I    between atoms: C3_5  and  N3_7 
REMARK    1  A    between atoms: N3_7  and  C4_9 
REMARK    2  A    between atoms: N4_12  and  C7_14 
REMARK    3  A    between atoms: C12_22  and  C13_23 
ROOT
HETATM    1  C1  UNL     1      40.408  -0.304  32.051  1.00  0.00     0.234 C 
HETATM    2  N1  UNL     1      41.650  -0.571  32.128  1.00  0.00    -0.384 NA
HETATM    3  C2  UNL     1      42.866  -0.915  32.106  1.00  0.00     0.335 C 
HETATM    4  N2  UNL     1      43.413  -0.120  33.197  1.00  0.00    -0.303 NA
HETATM    5  C3  UNL     1      43.921   0.617  34.209  1.00  0.00     0.397 C 
HETATM    6  O1  UNL     1      45.074   0.989  34.434  1.00  0.00    -0.230 OA
HETATM    7  N3  UNL     1      42.879   1.007  35.221  1.00  0.00    -0.327 N 
ATOM      8  H3  UNL     1      41.990   0.512  35.157  1.00  0.00     0.165 HD
HETATM    9  N4  UNL     1      43.512  -1.797  31.288  1.00  0.00    -0.333 N 
ATOM     10  H4  UNL     1      44.532  -1.811  31.264  1.00  0.00     0.165 HD
ENDROOT
BRANCH   9  11
HETATM   11  C7  UNL     1      42.763  -2.710  30.458  1.00  0.00     0.094 C 
HETATM   12  C8  UNL     1      43.433  -4.046  30.132  1.00  0.00     0.059 C 
HETATM   13  C9  UNL     1      42.850  -4.390  28.783  1.00  0.00     0.193 C 
HETATM   14  N5  UNL     1      41.395  -4.401  28.914  1.00  0.00    -0.070 N 
HETATM   15  C12 UNL     1      42.982  -3.045  28.111  1.00  0.00     0.034 C 
HETATM   16  C10 UNL     1      40.928  -2.984  28.961  1.00  0.00     0.239 C 
ATOM     17  H52 UNL     1      40.937  -4.944  28.182  1.00  0.00     0.277 HD
ATOM     18  H51 UNL     1      41.074  -4.950  29.712  1.00  0.00     0.277 HD
HETATM   19  C11 UNL     1      42.272  -2.227  29.163  1.00  0.00     0.041 C 
BRANCH  15  20
HETATM   20  C13 UNL     1      44.301  -2.546  27.742  1.00  0.00     0.092 C 
HETATM   21 BR1  UNL     1      44.420  -2.563  25.824  1.00  0.00    -0.096 Br
ENDBRANCH  15  20
ENDBRANCH   9  11
BRANCH   7  22
HETATM   22  C4  UNL     1      42.973   1.975  36.254  1.00  0.00     0.079 C 
HETATM   23  C5  UNL     1      43.672   1.428  37.453  1.00  0.00     0.032 C 
HETATM   24  C6  UNL     1      41.551   2.351  36.732  1.00  0.00     0.032 C 
ENDBRANCH   7  22
TORSDOF 2
ENDMDL
MODEL 4
REMARK VINA RESULT: -5.606178889      3.136      7.128
REMARK  3 active torsions:
REMARK  status: ('A' for Active; 'I' for Inactive)
REMARK       I    between atoms: C2_3  and  N2_4 
REMARK       I    between atoms: N2_4  and  C3_5 
REMARK       I    between atoms: C3_5  and  N3_7 
REMARK    1  A    between atoms: N3_7  and  C4_9 
REMARK    2  A    between atoms: N4_12  and  C7_14 
REMARK    3  A    between atoms: C12_22  and  C13_23 
ROOT
HETATM    1  C1  UNL     1      43.057  -4.123  31.163  1.00  0.00     0.234 C 
HETATM    2  N1  UNL     1      43.348  -2.886  31.089  1.00  0.00    -0.384 NA
HETATM    3  C2  UNL     1      43.596  -1.648  31.135  1.00  0.00     0.335 C 
HETATM    4  N2  UNL     1      44.151  -1.413  29.810  1.00  0.00    -0.303 NA
HETATM    5  C3  UNL     1      44.667  -1.193  28.580  1.00  0.00     0.397 C 
HETATM    6  O1  UNL     1      45.410  -0.302  28.166  1.00  0.00    -0.230 OA
HETATM    7  N3  UNL     1      44.215  -2.214  27.573  1.00  0.00    -0.327 N 
ATOM      8  H3  UNL     1      43.432  -2.803  27.857  1.00  0.00     0.165 HD
HETATM    9  N4  UNL     1      43.399  -0.752  32.147  1.00  0.00    -0.333 N 
ATOM     10  H4  UNL     1      43.840   0.167  32.103  1.00  0.00     0.165 HD
ENDROOT
BRANCH   9  11
HETATM   11  C7  UNL     1      42.572  -1.097  33.279  1.00  0.00     0.094 C 
HETATM   12  C8  UNL     1      41.294  -0.277  33.469  1.00  0.00     0.059 C 
HETATM   13  C9  UNL     1      41.095  -0.313  34.964  1.00  0.00     0.193 C 
HETATM   14  N5  UNL     1      41.042  -1.714  35.375  1.00  0.00    -0.070 N 
HETATM   15  C12 UNL     1      42.510  -0.026  35.406  1.00  0.00     0.034 C 
HETATM   16  C10 UNL     1      42.435  -2.249  35.362  1.00  0.00     0.239 C 
ATOM     17  H52 UNL     1      40.577  -1.845  36.274  1.00  0.00     0.277 HD
ATOM     18  H51 UNL     1      40.401  -2.268  34.808  1.00  0.00     0.277 HD
HETATM   19  C11 UNL     1      43.190  -1.115  34.610  1.00  0.00     0.041 C 
BRANCH  15  20
HETATM   20  C13 UNL     1      43.072   1.305  35.216  1.00  0.00     0.092 C 
HETATM   21 BR1  UNL     1      44.986   1.146  35.269  1.00  0.00    -0.096 Br
ENDBRANCH  15  20
ENDBRANCH   9  11
BRANCH   7  22
HETATM   22  C4  UNL     1      44.737  -2.465  26.277  1.00  0.00     0.079 C 
HETATM   23  C5  UNL     1      44.363  -1.385  25.319  1.00  0.00     0.032 C 
HETATM   24  C6  UNL     1      44.109  -3.762  25.716  1.00  0.00     0.032 C 
ENDBRANCH   7  22
TORSDOF 2
ENDMDL
MODEL 5
REMARK VINA RESULT: -5.601667528      4.347      7.289
REMARK  3 active torsions:
REMARK  status: ('A' for Active; 'I' for Inactive)
REMARK       I    between atoms: C2_3  and  N2_4 
REMARK       I    between atoms: N2_4  and  C3_5 
REMARK       I    between atoms: C3_5  and  N3_7 
REMARK    1  A    between atoms: N3_7  and  C4_9 
REMARK    2  A    between atoms: N4_12  and  C7_14 
REMARK    3  A    between atoms: C12_22  and  C13_23 
ROOT
HETATM    1  C1  UNL     1      39.382  -3.123  29.281  1.00  0.00     0.234 C 
HETATM    2  N1  UNL     1      40.124  -2.235  29.811  1.00  0.00    -0.384 NA
HETATM    3  C2  UNL     1      40.761  -1.318  30.404  1.00  0.00     0.335 C 
HETATM    4  N2  UNL     1      42.087  -1.459  29.820  1.00  0.00    -0.303 NA
HETATM    5  C3  UNL     1      43.319  -1.589  29.279  1.00  0.00     0.397 C 
HETATM    6  O1  UNL     1      44.424  -1.245  29.700  1.00  0.00    -0.230 OA
HETATM    7  N3  UNL     1      43.290  -2.245  27.926  1.00  0.00    -0.327 N 
ATOM      8  H3  UNL     1      42.372  -2.316  27.486  1.00  0.00     0.165 HD
HETATM    9  N4  UNL     1      40.334  -0.422  31.343  1.00  0.00    -0.333 N 
ATOM     10  H4  UNL     1      41.017   0.119  31.873  1.00  0.00     0.165 HD
ENDROOT
BRANCH   9  11
HETATM   11  C7  UNL     1      38.924  -0.235  31.589  1.00  0.00     0.094 C 
HETATM   12  C8  UNL     1      38.508   1.101  32.206  1.00  0.00     0.059 C 
HETATM   13  C9  UNL     1      37.270   0.736  32.987  1.00  0.00     0.193 C 
HETATM   14  N5  UNL     1      36.323   0.118  32.062  1.00  0.00    -0.070 N 
HETATM   15  C12 UNL     1      37.763  -0.530  33.647  1.00  0.00     0.034 C 
HETATM   16  C10 UNL     1      36.788  -1.274  31.792  1.00  0.00     0.239 C 
ATOM     17  H52 UNL     1      35.361   0.154  32.399  1.00  0.00     0.277 HD
ATOM     18  H51 UNL     1      36.190   0.663  31.210  1.00  0.00     0.277 HD
HETATM   19  C11 UNL     1      38.221  -1.240  32.396  1.00  0.00     0.041 C 
BRANCH  15  20
HETATM   20  C13 UNL     1      38.764  -0.453  34.703  1.00  0.00     0.092 C 
HETATM   21 BR1  UNL     1      39.629  -2.166  34.816  1.00  0.00    -0.096 Br
ENDBRANCH  15  20
ENDBRANCH   9  11
BRANCH   7  22
HETATM   22  C4  UNL     1      44.374  -2.778  27.182  1.00  0.00     0.079 C 
HETATM   23  C5  UNL     1      45.016  -1.736  26.329  1.00  0.00     0.032 C 
HETATM   24  C6  UNL     1      43.843  -3.853  26.204  1.00  0.00     0.032 C 
ENDBRANCH   7  22
TORSDOF 2
ENDMDL
