MODEL 1
REMARK VINA RESULT: -7.368842229      0.000      0.000
REMARK  5 active torsions:
REMARK  status: ('A' for Active; 'I' for Inactive)
REMARK       I    between atoms: C1_2  and  N1_3 
REMARK       I    between atoms: C1_2  and  N2_19 
REMARK    1  A    between atoms: N1_3  and  C2_5 
REMARK    2  A    between atoms: C4_7  and  C5_8 
REMARK    3  A    between atoms: C5_8  and  O2_9 
REMARK    4  A    between atoms: C5_8  and  C6_12 
REMARK    5  A    between atoms: N2_19  and  C11_21 
ROOT
HETATM    1  O1  UNL     1      11.678   8.951  23.832  1.00  0.00    -0.247 OA
HETATM    2  C1  UNL     1      11.711   8.223  22.783  1.00  0.00     0.317 C 
HETATM    3  N1  UNL     1      10.930   7.049  22.684  1.00  0.00    -0.338 N 
ATOM      4  H1  UNL     1      10.975   6.487  21.835  1.00  0.00     0.164 HD
HETATM    5  N2  UNL     1      12.554   8.639  21.733  1.00  0.00    -0.334 N 
ATOM      6  H2  UNL     1      12.582   8.065  20.890  1.00  0.00     0.165 HD
ENDROOT
BRANCH   3   7
HETATM    7  C2  UNL     1      10.080   6.640  23.755  1.00  0.00     0.091 C 
HETATM    8  C3  UNL     1      10.102   5.146  23.991  1.00  0.00     0.037 C 
HETATM    9  C4  UNL     1       8.676   4.706  24.203  1.00  0.00     0.071 C 
HETATM   10  C7  UNL     1       7.841   5.936  24.291  1.00  0.00     0.002 C 
HETATM   11  C8  UNL     1       6.829   6.005  23.140  1.00  0.00     0.006 C 
HETATM   12  C10 UNL     1       8.638   6.991  23.524  1.00  0.00     0.013 C 
HETATM   13  C9  UNL     1       8.015   6.428  22.265  1.00  0.00     0.007 C 
BRANCH   9  14
HETATM   14  C5  UNL     1       8.513   3.774  25.381  1.00  0.00     0.296 C 
HETATM   15  F1  UNL     1       9.570   3.909  26.252  1.00  0.00    -0.199 F 
BRANCH  14  16
HETATM   16  O2  UNL     1       7.297   4.085  25.987  1.00  0.00    -0.353 OA
ATOM     17  H2  UNL     1       7.145   3.433  26.662  1.00  0.00     0.214 HD
ENDBRANCH  14  16
BRANCH  14  18
HETATM   18  C6  UNL     1       8.465   2.377  24.922  1.00  0.00     0.244 C 
HETATM   19  O3  UNL     1       7.975   1.489  25.664  1.00  0.00    -0.644 OA
HETATM   20  O4  UNL     1       8.947   1.971  23.672  1.00  0.00    -0.644 OA
ENDBRANCH  14  18
ENDBRANCH   9  14
ENDBRANCH   3   7
BRANCH   5  21
HETATM   21  C11 UNL     1      13.373   9.810  21.769  1.00  0.00     0.035 C 
HETATM   22  C12 UNL     1      14.495   9.756  22.750  1.00  0.00     0.035 C 
HETATM   23  C13 UNL     1      15.276  11.054  22.702  1.00  0.00    -0.012 C 
HETATM   24  C14 UNL     1      14.337  12.166  23.090  1.00  0.00     0.009 C 
HETATM   25  C18 UNL     1      15.892  11.236  21.353  1.00  0.00     0.009 C 
HETATM   26  C15 UNL     1      13.289  12.301  22.029  1.00  0.00    -0.012 C 
HETATM   27  C16 UNL     1      13.932  12.504  20.676  1.00  0.00     0.009 C 
HETATM   28  C20 UNL     1      12.481  11.029  21.942  1.00  0.00     0.035 C 
HETATM   29  C17 UNL     1      14.757  11.304  20.340  1.00  0.00    -0.012 C 
HETATM   30  C19 UNL     1      14.032  10.003  20.389  1.00  0.00     0.035 C 
ENDBRANCH   5  21
TORSDOF 5
ENDMDL
MODEL 2
REMARK VINA RESULT: -7.351017735      2.085      2.984
REMARK  5 active torsions:
REMARK  status: ('A' for Active; 'I' for Inactive)
REMARK       I    between atoms: C1_2  and  N1_3 
REMARK       I    between atoms: C1_2  and  N2_19 
REMARK    1  A    between atoms: N1_3  and  C2_5 
REMARK    2  A    between atoms: C4_7  and  C5_8 
REMARK    3  A    between atoms: C5_8  and  O2_9 
REMARK    4  A    between atoms: C5_8  and  C6_12 
REMARK    5  A    between atoms: N2_19  and  C11_21 
ROOT
HETATM    1  O1  UNL     1      12.120   6.371  23.515  1.00  0.00    -0.247 OA
HETATM    2  C1  UNL     1      10.906   6.624  23.209  1.00  0.00     0.317 C 
HETATM    3  N1  UNL     1       9.870   5.714  23.518  1.00  0.00    -0.338 N 
ATOM      4  H1  UNL     1       8.909   5.940  23.263  1.00  0.00     0.164 HD
HETATM    5  N2  UNL     1      10.644   7.843  22.553  1.00  0.00    -0.334 N 
ATOM      6  H2  UNL     1       9.676   8.054  22.310  1.00  0.00     0.165 HD
ENDROOT
BRANCH   3   7
HETATM    7  C2  UNL     1      10.149   4.482  24.183  1.00  0.00     0.091 C 
HETATM    8  C3  UNL     1       9.859   3.268  23.329  1.00  0.00     0.037 C 
HETATM    9  C4  UNL     1       9.151   2.265  24.204  1.00  0.00     0.071 C 
HETATM   10  C7  UNL     1       9.195   2.784  25.599  1.00  0.00     0.002 C 
HETATM   11  C8  UNL     1       7.785   3.076  26.129  1.00  0.00     0.006 C 
HETATM   12  C10 UNL     1       9.341   4.297  25.436  1.00  0.00     0.013 C 
HETATM   13  C9  UNL     1       7.838   4.341  25.264  1.00  0.00     0.007 C 
BRANCH   9  14
HETATM   14  C5  UNL     1       9.696   0.864  24.058  1.00  0.00     0.296 C 
HETATM   15  F1  UNL     1      10.992   0.896  23.599  1.00  0.00    -0.199 F 
BRANCH  14  16
HETATM   16  O2  UNL     1       9.602   0.253  25.307  1.00  0.00    -0.353 OA
ATOM     17  H2  UNL     1      10.221   0.690  25.881  1.00  0.00     0.214 HD
ENDBRANCH  14  16
BRANCH  14  18
HETATM   18  C6  UNL     1       8.883   0.097  23.100  1.00  0.00     0.244 C 
HETATM   19  O3  UNL     1       8.268  -0.930  23.478  1.00  0.00    -0.644 OA
HETATM   20  O4  UNL     1       8.756   0.460  21.754  1.00  0.00    -0.644 OA
ENDBRANCH  14  18
ENDBRANCH   9  14
ENDBRANCH   3   7
BRANCH   5  21
HETATM   21  C11 UNL     1      11.643   8.805  22.207  1.00  0.00     0.035 C 
HETATM   22  C12 UNL     1      12.625   8.344  21.183  1.00  0.00     0.035 C 
HETATM   23  C13 UNL     1      13.633   9.443  20.913  1.00  0.00    -0.012 C 
HETATM   24  C14 UNL     1      14.361   9.720  22.202  1.00  0.00     0.009 C 
HETATM   25  C18 UNL     1      12.949  10.642  20.343  1.00  0.00     0.009 C 
HETATM   26  C15 UNL     1      13.394  10.310  23.181  1.00  0.00    -0.012 C 
HETATM   27  C16 UNL     1      12.728  11.533  22.594  1.00  0.00     0.009 C 
HETATM   28  C20 UNL     1      12.297   9.316  23.480  1.00  0.00     0.035 C 
HETATM   29  C17 UNL     1      11.950  11.133  21.383  1.00  0.00    -0.012 C 
HETATM   30  C19 UNL     1      10.955  10.044  21.599  1.00  0.00     0.035 C 
ENDBRANCH   5  21
TORSDOF 5
ENDMDL
MODEL 3
REMARK VINA RESULT: -7.307301185      1.272      1.799
REMARK  5 active torsions:
REMARK  status: ('A' for Active; 'I' for Inactive)
REMARK       I    between atoms: C1_2  and  N1_3 
REMARK       I    between atoms: C1_2  and  N2_19 
REMARK    1  A    between atoms: N1_3  and  C2_5 
REMARK    2  A    between atoms: C4_7  and  C5_8 
REMARK    3  A    between atoms: C5_8  and  O2_9 
REMARK    4  A    between atoms: C5_8  and  C6_12 
REMARK    5  A    between atoms: N2_19  and  C11_21 
ROOT
HETATM    1  O1  UNL     1      11.445   8.107  23.368  1.00  0.00    -0.247 OA
HETATM    2  C1  UNL     1      10.401   8.546  22.779  1.00  0.00     0.317 C 
HETATM    3  N1  UNL     1       9.127   7.997  23.045  1.00  0.00    -0.338 N 
ATOM      4  H1  UNL     1       8.309   8.367  22.560  1.00  0.00     0.164 HD
HETATM    5  N2  UNL     1      10.573   9.599  21.857  1.00  0.00    -0.334 N 
ATOM      6  H2  UNL     1       9.742   9.959  21.386  1.00  0.00     0.165 HD
ENDROOT
BRANCH   3   7
HETATM    7  C2  UNL     1       8.967   6.932  23.981  1.00  0.00     0.091 C 
HETATM    8  C3  UNL     1       9.389   5.589  23.428  1.00  0.00     0.037 C 
HETATM    9  C4  UNL     1       8.340   4.587  23.839  1.00  0.00     0.071 C 
HETATM   10  C7  UNL     1       7.417   5.273  24.784  1.00  0.00     0.002 C 
HETATM   11  C8  UNL     1       5.997   5.359  24.211  1.00  0.00     0.006 C 
HETATM   12  C10 UNL     1       7.544   6.755  24.429  1.00  0.00     0.013 C 
HETATM   13  C9  UNL     1       6.534   6.495  23.333  1.00  0.00     0.007 C 
BRANCH   9  14
HETATM   14  C5  UNL     1       8.927   3.306  24.384  1.00  0.00     0.296 C 
HETATM   15  F1  UNL     1       9.839   3.577  25.377  1.00  0.00    -0.199 F 
BRANCH  14  16
HETATM   16  O2  UNL     1       7.866   2.532  24.851  1.00  0.00    -0.353 OA
ATOM     17  H2  UNL     1       8.068   2.290  25.747  1.00  0.00     0.214 HD
ENDBRANCH  14  16
BRANCH  14  18
HETATM   18  C6  UNL     1       9.612   2.563  23.314  1.00  0.00     0.244 C 
HETATM   19  O3  UNL     1       8.999   1.671  22.676  1.00  0.00    -0.644 OA
HETATM   20  O4  UNL     1      10.945   2.802  22.958  1.00  0.00    -0.644 OA
ENDBRANCH  14  18
ENDBRANCH   9  14
ENDBRANCH   3   7
BRANCH   5  21
HETATM   21  C11 UNL     1      11.831  10.196  21.538  1.00  0.00     0.035 C 
HETATM   22  C12 UNL     1      12.859   9.247  21.022  1.00  0.00     0.035 C 
HETATM   23  C13 UNL     1      14.145   9.996  20.735  1.00  0.00    -0.012 C 
HETATM   24  C14 UNL     1      14.629  10.587  22.033  1.00  0.00     0.009 C 
HETATM   25  C18 UNL     1      13.922  11.012  19.662  1.00  0.00     0.009 C 
HETATM   26  C15 UNL     1      13.657  11.636  22.474  1.00  0.00    -0.012 C 
HETATM   27  C16 UNL     1      13.459  12.664  21.384  1.00  0.00     0.009 C 
HETATM   28  C20 UNL     1      12.307  11.009  22.731  1.00  0.00     0.035 C 
HETATM   29  C17 UNL     1      12.881  11.997  20.179  1.00  0.00    -0.012 C 
HETATM   30  C19 UNL     1      11.622  11.236  20.418  1.00  0.00     0.035 C 
ENDBRANCH   5  21
TORSDOF 5
ENDMDL
MODEL 4
REMARK VINA RESULT: -7.286866417      1.879      2.834
REMARK  5 active torsions:
REMARK  status: ('A' for Active; 'I' for Inactive)
REMARK       I    between atoms: C1_2  and  N1_3 
REMARK       I    between atoms: C1_2  and  N2_19 
REMARK    1  A    between atoms: N1_3  and  C2_5 
REMARK    2  A    between atoms: C4_7  and  C5_8 
REMARK    3  A    between atoms: C5_8  and  O2_9 
REMARK    4  A    between atoms: C5_8  and  C6_12 
REMARK    5  A    between atoms: N2_19  and  C11_21 
ROOT
HETATM    1  O1  UNL     1      10.209   8.080  23.800  1.00  0.00    -0.247 OA
HETATM    2  C1  UNL     1      10.795   7.130  23.180  1.00  0.00     0.317 C 
HETATM    3  N1  UNL     1      10.313   5.803  23.252  1.00  0.00    -0.338 N 
ATOM      4  H1  UNL     1      10.801   5.063  22.748  1.00  0.00     0.164 HD
HETATM    5  N2  UNL     1      11.939   7.458  22.425  1.00  0.00    -0.334 N 
ATOM      6  H2  UNL     1      12.410   6.705  21.923  1.00  0.00     0.165 HD
ENDROOT
BRANCH   3   7
HETATM    7  C2  UNL     1       9.154   5.484  24.021  1.00  0.00     0.091 C 
HETATM    8  C3  UNL     1       9.371   5.634  25.511  1.00  0.00     0.037 C 
HETATM    9  C4  UNL     1       8.744   4.434  26.176  1.00  0.00     0.071 C 
HETATM   10  C7  UNL     1       7.996   3.686  25.128  1.00  0.00     0.002 C 
HETATM   11  C8  UNL     1       8.586   2.286  24.916  1.00  0.00     0.006 C 
HETATM   12  C10 UNL     1       8.689   4.070  23.820  1.00  0.00     0.013 C 
HETATM   13  C9  UNL     1       9.703   2.992  24.136  1.00  0.00     0.007 C 
BRANCH   9  14
HETATM   14  C5  UNL     1       7.908   4.795  27.381  1.00  0.00     0.296 C 
HETATM   15  F1  UNL     1       6.891   5.650  27.023  1.00  0.00    -0.199 F 
BRANCH  14  16
HETATM   16  O2  UNL     1       7.421   3.604  27.916  1.00  0.00    -0.353 OA
ATOM     17  H2  UNL     1       7.756   2.896  27.378  1.00  0.00     0.214 HD
ENDBRANCH  14  16
BRANCH  14  18
HETATM   18  C6  UNL     1       8.738   5.461  28.397  1.00  0.00     0.244 C 
HETATM   19  O3  UNL     1       9.622   4.813  29.011  1.00  0.00    -0.644 OA
HETATM   20  O4  UNL     1       8.593   6.814  28.727  1.00  0.00    -0.644 OA
ENDBRANCH  14  18
ENDBRANCH   9  14
ENDBRANCH   3   7
BRANCH   5  21
HETATM   21  C11 UNL     1      12.483   8.775  22.313  1.00  0.00     0.035 C 
HETATM   22  C12 UNL     1      13.035   9.332  23.582  1.00  0.00     0.035 C 
HETATM   23  C13 UNL     1      13.566  10.730  23.335  1.00  0.00    -0.012 C 
HETATM   24  C14 UNL     1      12.410  11.584  22.887  1.00  0.00     0.009 C 
HETATM   25  C18 UNL     1      14.694  10.688  22.357  1.00  0.00     0.009 C 
HETATM   26  C15 UNL     1      11.949  11.101  21.547  1.00  0.00    -0.012 C 
HETATM   27  C16 UNL     1      13.099  11.085  20.566  1.00  0.00     0.009 C 
HETATM   28  C20 UNL     1      11.451   9.680  21.658  1.00  0.00     0.035 C 
HETATM   29  C17 UNL     1      14.143  10.132  21.051  1.00  0.00    -0.012 C 
HETATM   30  C19 UNL     1      13.661   8.747  21.319  1.00  0.00     0.035 C 
ENDBRANCH   5  21
TORSDOF 5
ENDMDL
MODEL 5
REMARK VINA RESULT: -7.280049251      1.865      2.972
REMARK  5 active torsions:
REMARK  status: ('A' for Active; 'I' for Inactive)
REMARK       I    between atoms: C1_2  and  N1_3 
REMARK       I    between atoms: C1_2  and  N2_19 
REMARK    1  A    between atoms: N1_3  and  C2_5 
REMARK    2  A    between atoms: C4_7  and  C5_8 
REMARK    3  A    between atoms: C5_8  and  O2_9 
REMARK    4  A    between atoms: C5_8  and  C6_12 
REMARK    5  A    between atoms: N2_19  and  C11_21 
ROOT
HETATM    1  O1  UNL     1      10.229   8.178  23.239  1.00  0.00    -0.247 OA
HETATM    2  C1  UNL     1      11.046   7.209  23.090  1.00  0.00     0.317 C 
HETATM    3  N1  UNL     1      10.697   5.894  23.472  1.00  0.00    -0.338 N 
ATOM      4  H1  UNL     1      11.369   5.137  23.341  1.00  0.00     0.164 HD
HETATM    5  N2  UNL     1      12.306   7.504  22.531  1.00  0.00    -0.334 N 
ATOM      6  H2  UNL     1      12.963   6.734  22.405  1.00  0.00     0.165 HD
ENDROOT
BRANCH   3   7
HETATM    7  C2  UNL     1       9.418   5.608  24.036  1.00  0.00     0.091 C 
HETATM    8  C3  UNL     1       9.400   5.712  25.545  1.00  0.00     0.037 C 
HETATM    9  C4  UNL     1       8.628   4.526  26.065  1.00  0.00     0.071 C 
HETATM   10  C7  UNL     1       8.028   3.837  24.890  1.00  0.00     0.002 C 
HETATM   11  C8  UNL     1       8.587   2.418  24.730  1.00  0.00     0.006 C 
HETATM   12  C10 UNL     1       8.935   4.221  23.721  1.00  0.00     0.013 C 
HETATM   13  C9  UNL     1       9.842   3.091  24.160  1.00  0.00     0.007 C 
BRANCH   9  14
HETATM   14  C5  UNL     1       7.625   4.894  27.133  1.00  0.00     0.296 C 
HETATM   15  F1  UNL     1       6.529   5.509  26.572  1.00  0.00    -0.199 F 
BRANCH  14  16
HETATM   16  O2  UNL     1       7.278   3.719  27.796  1.00  0.00    -0.353 OA
ATOM     17  H2  UNL     1       6.545   3.337  27.328  1.00  0.00     0.214 HD
ENDBRANCH  14  16
BRANCH  14  18
HETATM   18  C6  UNL     1       8.230   5.820  28.104  1.00  0.00     0.244 C 
HETATM   19  O3  UNL     1       7.679   6.921  28.350  1.00  0.00    -0.644 OA
HETATM   20  O4  UNL     1       9.417   5.532  28.787  1.00  0.00    -0.644 OA
ENDBRANCH  14  18
ENDBRANCH   9  14
ENDBRANCH   3   7
BRANCH   5  21
HETATM   21  C11 UNL     1      12.725   8.810  22.129  1.00  0.00     0.035 C 
HETATM   22  C12 UNL     1      12.157   9.925  22.940  1.00  0.00     0.035 C 
HETATM   23  C13 UNL     1      12.665  11.251  22.409  1.00  0.00    -0.012 C 
HETATM   24  C14 UNL     1      12.187  11.386  20.987  1.00  0.00     0.009 C 
HETATM   25  C18 UNL     1      14.150  11.329  22.551  1.00  0.00     0.009 C 
HETATM   26  C15 UNL     1      12.867  10.345  20.153  1.00  0.00    -0.012 C 
HETATM   27  C16 UNL     1      14.368  10.453  20.294  1.00  0.00     0.009 C 
HETATM   28  C20 UNL     1      12.482   8.967  20.636  1.00  0.00     0.035 C 
HETATM   29  C17 UNL     1      14.746  10.202  21.718  1.00  0.00    -0.012 C 
HETATM   30  C19 UNL     1      14.256   8.915  22.286  1.00  0.00     0.035 C 
ENDBRANCH   5  21
TORSDOF 5
ENDMDL
