MODEL 1
REMARK VINA RESULT: -8.068194326      0.000      0.000
REMARK  13 active torsions:
REMARK  status: ('A' for Active; 'I' for Inactive)
REMARK    1  A    between atoms: C5_5  and  O1_6 
REMARK    2  A    between atoms: C6_8  and  C7_9 
REMARK    3  A    between atoms: C7_9  and  O2_10 
REMARK    4  A    between atoms: O2_10  and  C8_11 
REMARK    5  A    between atoms: C8_11  and  C9_13 
REMARK    6  A    between atoms: C9_13  and  N1_15 
REMARK    7  A    between atoms: N1_15  and  C11_17 
REMARK    8  A    between atoms: C11_17  and  O4_18 
REMARK    9  A    between atoms: C11_17  and  C16_23 
REMARK   10  A    between atoms: O4_18  and  C12_19 
REMARK   11  A    between atoms: C12_19  and  C13_20 
REMARK   12  A    between atoms: C17_26  and  O7_27 
REMARK   13  A    between atoms: C17_26  and  C18_29 
ROOT
HETATM    1  C1  UNL     1      48.326  52.750  16.370  1.00  0.00     0.015 C 
HETATM    2  C2  UNL     1      48.641  51.493  16.244  1.00  0.00    -0.069 C 
HETATM    3  C3  UNL     1      48.731  50.628  15.019  1.00  0.00     0.020 C 
HETATM    4  C4  UNL     1      50.151  50.189  15.102  1.00  0.00     0.042 C 
HETATM    5  C5  UNL     1      50.318  49.927  16.583  1.00  0.00     0.136 C 
HETATM    6  C6  UNL     1      49.028  50.448  17.243  1.00  0.00     0.062 C 
HETATM    7  C17 UNL     1      48.028  49.401  16.996  1.00  0.00     0.078 C 
HETATM    8  C24 UNL     1      47.864  49.474  15.477  1.00  0.00     0.048 C 
ENDROOT
BRANCH   6   9
HETATM    9  C7  UNL     1      49.225  50.948  18.596  1.00  0.00     0.198 C 
BRANCH   9  10
HETATM   10  O2  UNL     1      49.717  49.883  19.434  1.00  0.00    -0.319 OA
BRANCH  10  11
HETATM   11  C8  UNL     1      50.590  50.115  20.462  1.00  0.00     0.281 C 
HETATM   12  O3  UNL     1      50.714  49.162  21.310  1.00  0.00    -0.263 OA
BRANCH  11  13
HETATM   13  C9  UNL     1      51.317  51.385  20.547  1.00  0.00     0.175 C 
HETATM   14  C10 UNL     1      52.800  51.126  20.233  1.00  0.00     0.042 C 
BRANCH  13  15
HETATM   15  N1  UNL     1      51.151  52.239  21.629  1.00  0.00    -0.375 N 
ATOM     16  H1  UNL     1      51.194  51.842  22.568  1.00  0.00     0.157 HD
BRANCH  15  17
HETATM   17  C11 UNL     1      50.929  53.614  21.503  1.00  0.00     0.320 C 
BRANCH  17  18
HETATM   18  O4  UNL     1      50.523  53.929  20.167  1.00  0.00    -0.356 OA
BRANCH  18  19
HETATM   19  C12 UNL     1      49.249  54.444  20.128  1.00  0.00     0.174 C 
BRANCH  19  20
HETATM   20  C13 UNL     1      49.248  55.682  19.270  1.00  0.00     0.001 C 
HETATM   21  C14 UNL     1      49.462  56.878  20.182  1.00  0.00     0.011 C 
HETATM   22  C15 UNL     1      50.429  55.545  18.302  1.00  0.00     0.011 C 
ENDBRANCH  19  20
ENDBRANCH  18  19
ENDBRANCH  17  18
BRANCH  17  23
HETATM   23  C16 UNL     1      51.831  54.637  21.978  1.00  0.00     0.223 C 
HETATM   24  O5  UNL     1      52.076  55.039  23.134  1.00  0.00    -0.645 OA
HETATM   25  O6  UNL     1      52.614  55.355  21.007  1.00  0.00    -0.645 OA
ENDBRANCH  17  23
ENDBRANCH  15  17
ENDBRANCH  13  15
ENDBRANCH  11  13
ENDBRANCH  10  11
ENDBRANCH   9  10
ENDBRANCH   6   9
BRANCH   5  26
HETATM   26  O1  UNL     1      51.444  50.529  17.078  1.00  0.00    -0.394 OA
ATOM     27  H1  UNL     1      51.284  50.927  17.925  1.00  0.00     0.210 HD
ENDBRANCH   5  26
BRANCH   7  28
HETATM   28  O7  UNL     1      48.631  48.157  17.322  1.00  0.00    -0.388 OA
ATOM     29  H7  UNL     1      47.959  47.490  17.245  1.00  0.00     0.210 HD
ENDBRANCH   7  28
BRANCH   7  30
HETATM   30  C18 UNL     1      46.673  49.492  17.577  1.00  0.00     0.021 C 
HETATM   31  C19 UNL     1      46.362  48.690  18.771  1.00  0.00     0.007 C 
HETATM   32  C20 UNL     1      44.998  48.012  18.655  1.00  0.00     0.000 C 
HETATM   33  C21 UNL     1      45.177  46.943  17.583  1.00  0.00     0.000 C 
HETATM   34  C22 UNL     1      45.404  47.700  16.299  1.00  0.00     0.000 C 
HETATM   35  C23 UNL     1      45.667  49.165  16.491  1.00  0.00     0.007 C 
ENDBRANCH   7  30
TORSDOF 13
ENDMDL
MODEL 2
REMARK VINA RESULT: -7.829314567      2.126      6.774
REMARK  13 active torsions:
REMARK  status: ('A' for Active; 'I' for Inactive)
REMARK    1  A    between atoms: C5_5  and  O1_6 
REMARK    2  A    between atoms: C6_8  and  C7_9 
REMARK    3  A    between atoms: C7_9  and  O2_10 
REMARK    4  A    between atoms: O2_10  and  C8_11 
REMARK    5  A    between atoms: C8_11  and  C9_13 
REMARK    6  A    between atoms: C9_13  and  N1_15 
REMARK    7  A    between atoms: N1_15  and  C11_17 
REMARK    8  A    between atoms: C11_17  and  O4_18 
REMARK    9  A    between atoms: C11_17  and  C16_23 
REMARK   10  A    between atoms: O4_18  and  C12_19 
REMARK   11  A    between atoms: C12_19  and  C13_20 
REMARK   12  A    between atoms: C17_26  and  O7_27 
REMARK   13  A    between atoms: C17_26  and  C18_29 
ROOT
HETATM    1  C1  UNL     1      51.636  53.963  22.028  1.00  0.00     0.015 C 
HETATM    2  C2  UNL     1      51.723  55.039  21.301  1.00  0.00    -0.069 C 
HETATM    3  C3  UNL     1      51.758  56.487  21.702  1.00  0.00     0.020 C 
HETATM    4  C4  UNL     1      53.060  56.900  21.110  1.00  0.00     0.042 C 
HETATM    5  C5  UNL     1      53.045  56.183  19.778  1.00  0.00     0.136 C 
HETATM    6  C6  UNL     1      51.822  55.250  19.823  1.00  0.00     0.062 C 
HETATM    7  C17 UNL     1      50.670  56.123  19.559  1.00  0.00     0.078 C 
HETATM    8  C24 UNL     1      50.655  57.010  20.805  1.00  0.00     0.048 C 
ENDROOT
BRANCH   6   9
HETATM    9  C7  UNL     1      51.989  54.029  19.048  1.00  0.00     0.198 C 
BRANCH   9  10
HETATM   10  O2  UNL     1      52.825  53.109  19.777  1.00  0.00    -0.319 OA
BRANCH  10  11
HETATM   11  C8  UNL     1      52.676  51.753  19.668  1.00  0.00     0.281 C 
HETATM   12  O3  UNL     1      53.717  51.057  19.945  1.00  0.00    -0.263 OA
BRANCH  11  13
HETATM   13  C9  UNL     1      51.392  51.177  19.260  1.00  0.00     0.175 C 
HETATM   14  C10 UNL     1      50.845  50.325  20.418  1.00  0.00     0.042 C 
BRANCH  13  15
HETATM   15  N1  UNL     1      51.241  50.550  18.031  1.00  0.00    -0.375 N 
ATOM     16  H1  UNL     1      51.149  49.535  18.015  1.00  0.00     0.157 HD
BRANCH  15  17
HETATM   17  C11 UNL     1      51.209  51.235  16.812  1.00  0.00     0.320 C 
BRANCH  17  18
HETATM   18  O4  UNL     1      50.035  50.878  16.074  1.00  0.00    -0.356 OA
BRANCH  18  19
HETATM   19  C12 UNL     1      49.386  49.803  16.634  1.00  0.00     0.174 C 
BRANCH  19  20
HETATM   20  C13 UNL     1      47.929  50.144  16.802  1.00  0.00     0.001 C 
HETATM   21  C14 UNL     1      47.129  49.205  15.915  1.00  0.00     0.011 C 
HETATM   22  C15 UNL     1      47.586  49.890  18.274  1.00  0.00     0.011 C 
ENDBRANCH  19  20
ENDBRANCH  18  19
ENDBRANCH  17  18
BRANCH  17  23
HETATM   23  C16 UNL     1      52.326  51.342  15.902  1.00  0.00     0.223 C 
HETATM   24  O5  UNL     1      53.513  51.675  16.099  1.00  0.00    -0.645 OA
HETATM   25  O6  UNL     1      52.105  51.023  14.516  1.00  0.00    -0.645 OA
ENDBRANCH  17  23
ENDBRANCH  15  17
ENDBRANCH  13  15
ENDBRANCH  11  13
ENDBRANCH  10  11
ENDBRANCH   9  10
ENDBRANCH   6   9
BRANCH   5  26
HETATM   26  O1  UNL     1      54.216  55.508  19.556  1.00  0.00    -0.394 OA
ATOM     27  H1  UNL     1      54.218  54.662  19.989  1.00  0.00     0.210 HD
ENDBRANCH   5  26
BRANCH   7  28
HETATM   28  O7  UNL     1      51.003  56.930  18.439  1.00  0.00    -0.388 OA
ATOM     29  H7  UNL     1      50.688  57.808  18.622  1.00  0.00     0.210 HD
ENDBRANCH   7  28
BRANCH   7  30
HETATM   30  C18 UNL     1      49.311  55.565  19.416  1.00  0.00     0.021 C 
HETATM   31  C19 UNL     1      49.153  54.104  19.336  1.00  0.00     0.007 C 
HETATM   32  C20 UNL     1      48.169  53.703  18.237  1.00  0.00     0.000 C 
HETATM   33  C21 UNL     1      48.884  54.025  16.929  1.00  0.00     0.000 C 
HETATM   34  C22 UNL     1      48.994  55.528  16.894  1.00  0.00     0.000 C 
HETATM   35  C23 UNL     1      48.665  56.196  18.197  1.00  0.00     0.007 C 
ENDBRANCH   7  30
TORSDOF 13
ENDMDL
MODEL 3
REMARK VINA RESULT: -7.706962553      1.062      1.755
REMARK  13 active torsions:
REMARK  status: ('A' for Active; 'I' for Inactive)
REMARK    1  A    between atoms: C5_5  and  O1_6 
REMARK    2  A    between atoms: C6_8  and  C7_9 
REMARK    3  A    between atoms: C7_9  and  O2_10 
REMARK    4  A    between atoms: O2_10  and  C8_11 
REMARK    5  A    between atoms: C8_11  and  C9_13 
REMARK    6  A    between atoms: C9_13  and  N1_15 
REMARK    7  A    between atoms: N1_15  and  C11_17 
REMARK    8  A    between atoms: C11_17  and  O4_18 
REMARK    9  A    between atoms: C11_17  and  C16_23 
REMARK   10  A    between atoms: O4_18  and  C12_19 
REMARK   11  A    between atoms: C12_19  and  C13_20 
REMARK   12  A    between atoms: C17_26  and  O7_27 
REMARK   13  A    between atoms: C17_26  and  C18_29 
ROOT
HETATM    1  C1  UNL     1      48.215  52.718  16.224  1.00  0.00     0.015 C 
HETATM    2  C2  UNL     1      48.553  51.465  16.113  1.00  0.00    -0.069 C 
HETATM    3  C3  UNL     1      48.630  50.579  14.902  1.00  0.00     0.020 C 
HETATM    4  C4  UNL     1      50.060  50.171  14.956  1.00  0.00     0.042 C 
HETATM    5  C5  UNL     1      50.269  49.940  16.437  1.00  0.00     0.136 C 
HETATM    6  C6  UNL     1      48.986  50.447  17.120  1.00  0.00     0.062 C 
HETATM    7  C17 UNL     1      48.002  49.376  16.918  1.00  0.00     0.078 C 
HETATM    8  C24 UNL     1      47.798  49.416  15.403  1.00  0.00     0.048 C 
ENDROOT
BRANCH   6   9
HETATM    9  C7  UNL     1      49.207  50.976  18.459  1.00  0.00     0.198 C 
BRANCH   9  10
HETATM   10  O2  UNL     1      49.675  49.921  19.321  1.00  0.00    -0.319 OA
BRANCH  10  11
HETATM   11  C8  UNL     1      50.644  50.133  20.265  1.00  0.00     0.281 C 
HETATM   12  O3  UNL     1      50.612  49.347  21.277  1.00  0.00    -0.263 OA
BRANCH  11  13
HETATM   13  C9  UNL     1      51.633  51.199  20.087  1.00  0.00     0.175 C 
HETATM   14  C10 UNL     1      53.023  50.560  19.934  1.00  0.00     0.042 C 
BRANCH  13  15
HETATM   15  N1  UNL     1      51.655  52.308  20.922  1.00  0.00    -0.375 N 
ATOM     16  H1  UNL     1      51.489  52.165  21.918  1.00  0.00     0.157 HD
BRANCH  15  17
HETATM   17  C11 UNL     1      51.891  53.610  20.473  1.00  0.00     0.320 C 
BRANCH  17  18
HETATM   18  O4  UNL     1      51.121  54.545  21.236  1.00  0.00    -0.356 OA
BRANCH  18  19
HETATM   19  C12 UNL     1      51.879  55.167  22.199  1.00  0.00     0.174 C 
BRANCH  19  20
HETATM   20  C13 UNL     1      51.655  56.654  22.114  1.00  0.00     0.001 C 
HETATM   21  C14 UNL     1      52.926  57.284  21.571  1.00  0.00     0.011 C 
HETATM   22  C15 UNL     1      50.502  56.867  21.126  1.00  0.00     0.011 C 
ENDBRANCH  19  20
ENDBRANCH  18  19
ENDBRANCH  17  18
BRANCH  17  23
HETATM   23  C16 UNL     1      51.883  54.013  19.085  1.00  0.00     0.223 C 
HETATM   24  O5  UNL     1      51.324  53.508  18.090  1.00  0.00    -0.645 OA
HETATM   25  O6  UNL     1      52.625  55.190  18.716  1.00  0.00    -0.645 OA
ENDBRANCH  17  23
ENDBRANCH  15  17
ENDBRANCH  13  15
ENDBRANCH  11  13
ENDBRANCH  10  11
ENDBRANCH   9  10
ENDBRANCH   6   9
BRANCH   5  26
HETATM   26  O1  UNL     1      51.395  50.574  16.892  1.00  0.00    -0.394 OA
ATOM     27  H1  UNL     1      52.146  49.992  16.894  1.00  0.00     0.210 HD
ENDBRANCH   5  26
BRANCH   7  28
HETATM   28  O7  UNL     1      48.639  48.151  17.252  1.00  0.00    -0.388 OA
ATOM     29  H7  UNL     1      47.979  47.586  17.637  1.00  0.00     0.210 HD
ENDBRANCH   7  28
BRANCH   7  30
HETATM   30  C18 UNL     1      46.661  49.450  17.532  1.00  0.00     0.021 C 
HETATM   31  C19 UNL     1      46.387  48.639  18.729  1.00  0.00     0.007 C 
HETATM   32  C20 UNL     1      45.026  47.948  18.642  1.00  0.00     0.000 C 
HETATM   33  C21 UNL     1      45.190  46.887  17.559  1.00  0.00     0.000 C 
HETATM   34  C22 UNL     1      45.378  47.653  16.275  1.00  0.00     0.000 C 
HETATM   35  C23 UNL     1      45.632  49.119  16.468  1.00  0.00     0.007 C 
ENDBRANCH   7  30
TORSDOF 13
ENDMDL
MODEL 4
REMARK VINA RESULT: -7.623659531      2.120      6.713
REMARK  13 active torsions:
REMARK  status: ('A' for Active; 'I' for Inactive)
REMARK    1  A    between atoms: C5_5  and  O1_6 
REMARK    2  A    between atoms: C6_8  and  C7_9 
REMARK    3  A    between atoms: C7_9  and  O2_10 
REMARK    4  A    between atoms: O2_10  and  C8_11 
REMARK    5  A    between atoms: C8_11  and  C9_13 
REMARK    6  A    between atoms: C9_13  and  N1_15 
REMARK    7  A    between atoms: N1_15  and  C11_17 
REMARK    8  A    between atoms: C11_17  and  O4_18 
REMARK    9  A    between atoms: C11_17  and  C16_23 
REMARK   10  A    between atoms: O4_18  and  C12_19 
REMARK   11  A    between atoms: C12_19  and  C13_20 
REMARK   12  A    between atoms: C17_26  and  O7_27 
REMARK   13  A    between atoms: C17_26  and  C18_29 
ROOT
HETATM    1  C1  UNL     1      51.580  54.324  21.957  1.00  0.00     0.015 C 
HETATM    2  C2  UNL     1      51.847  54.172  20.692  1.00  0.00    -0.069 C 
HETATM    3  C3  UNL     1      52.561  55.078  19.730  1.00  0.00     0.020 C 
HETATM    4  C4  UNL     1      53.669  54.187  19.290  1.00  0.00     0.042 C 
HETATM    5  C5  UNL     1      52.968  52.854  19.148  1.00  0.00     0.136 C 
HETATM    6  C6  UNL     1      51.558  53.064  19.729  1.00  0.00     0.062 C 
HETATM    7  C17 UNL     1      50.813  53.762  18.672  1.00  0.00     0.078 C 
HETATM    8  C24 UNL     1      51.529  55.113  18.622  1.00  0.00     0.048 C 
ENDROOT
BRANCH   6   9
HETATM    9  C7  UNL     1      50.991  51.868  20.335  1.00  0.00     0.198 C 
BRANCH   9  10
HETATM   10  O2  UNL     1      50.900  50.825  19.345  1.00  0.00    -0.319 OA
BRANCH  10  11
HETATM   11  C8  UNL     1      49.896  49.895  19.362  1.00  0.00     0.281 C 
HETATM   12  O3  UNL     1      49.856  49.141  20.399  1.00  0.00    -0.263 OA
BRANCH  11  13
HETATM   13  C9  UNL     1      48.949  49.805  18.248  1.00  0.00     0.175 C 
HETATM   14  C10 UNL     1      47.576  49.389  18.801  1.00  0.00     0.042 C 
BRANCH  13  15
HETATM   15  N1  UNL     1      49.272  49.124  17.081  1.00  0.00    -0.375 N 
ATOM     16  H1  UNL     1      49.544  48.144  17.154  1.00  0.00     0.157 HD
BRANCH  15  17
HETATM   17  C11 UNL     1      49.245  49.710  15.812  1.00  0.00     0.320 C 
BRANCH  17  18
HETATM   18  O4  UNL     1      48.422  48.939  14.928  1.00  0.00    -0.356 OA
BRANCH  18  19
HETATM   19  C12 UNL     1      47.562  48.118  15.617  1.00  0.00     0.174 C 
BRANCH  19  20
HETATM   20  C13 UNL     1      46.147  48.558  15.350  1.00  0.00     0.001 C 
HETATM   21  C14 UNL     1      45.843  48.278  13.889  1.00  0.00     0.011 C 
HETATM   22  C15 UNL     1      45.245  47.700  16.245  1.00  0.00     0.011 C 
ENDBRANCH  19  20
ENDBRANCH  18  19
ENDBRANCH  17  18
BRANCH  17  23
HETATM   23  C16 UNL     1      50.413  50.166  15.094  1.00  0.00     0.223 C 
HETATM   24  O5  UNL     1      50.759  50.000  13.906  1.00  0.00    -0.645 OA
HETATM   25  O6  UNL     1      51.384  50.953  15.808  1.00  0.00    -0.645 OA
ENDBRANCH  17  23
ENDBRANCH  15  17
ENDBRANCH  13  15
ENDBRANCH  11  13
ENDBRANCH  10  11
ENDBRANCH   9  10
ENDBRANCH   6   9
BRANCH   5  26
HETATM   26  O1  UNL     1      53.655  51.853  19.781  1.00  0.00    -0.394 OA
ATOM     27  H1  UNL     1      53.088  51.122  19.997  1.00  0.00     0.210 HD
ENDBRANCH   5  26
BRANCH   7  28
HETATM   28  O7  UNL     1      51.068  53.075  17.455  1.00  0.00    -0.388 OA
ATOM     29  H7  UNL     1      51.303  53.730  16.807  1.00  0.00     0.210 HD
ENDBRANCH   7  28
BRANCH   7  30
HETATM   30  C18 UNL     1      49.372  54.046  18.819  1.00  0.00     0.021 C 
HETATM   31  C19 UNL     1      48.408  53.188  18.111  1.00  0.00     0.007 C 
HETATM   32  C20 UNL     1      47.309  54.010  17.439  1.00  0.00     0.000 C 
HETATM   33  C21 UNL     1      48.003  54.735  16.291  1.00  0.00     0.000 C 
HETATM   34  C22 UNL     1      48.945  55.711  16.947  1.00  0.00     0.000 C 
HETATM   35  C23 UNL     1      49.129  55.489  18.419  1.00  0.00     0.007 C 
ENDBRANCH   7  30
TORSDOF 13
ENDMDL
MODEL 5
REMARK VINA RESULT: -7.586207690      2.178      3.598
REMARK  13 active torsions:
REMARK  status: ('A' for Active; 'I' for Inactive)
REMARK    1  A    between atoms: C5_5  and  O1_6 
REMARK    2  A    between atoms: C6_8  and  C7_9 
REMARK    3  A    between atoms: C7_9  and  O2_10 
REMARK    4  A    between atoms: O2_10  and  C8_11 
REMARK    5  A    between atoms: C8_11  and  C9_13 
REMARK    6  A    between atoms: C9_13  and  N1_15 
REMARK    7  A    between atoms: N1_15  and  C11_17 
REMARK    8  A    between atoms: C11_17  and  O4_18 
REMARK    9  A    between atoms: C11_17  and  C16_23 
REMARK   10  A    between atoms: O4_18  and  C12_19 
REMARK   11  A    between atoms: C12_19  and  C13_20 
REMARK   12  A    between atoms: C17_26  and  O7_27 
REMARK   13  A    between atoms: C17_26  and  C18_29 
ROOT
HETATM    1  C1  UNL     1      50.775  54.078  18.293  1.00  0.00     0.015 C 
HETATM    2  C2  UNL     1      51.123  52.838  18.103  1.00  0.00    -0.069 C 
HETATM    3  C3  UNL     1      51.657  52.151  16.879  1.00  0.00     0.020 C 
HETATM    4  C4  UNL     1      52.954  51.639  17.399  1.00  0.00     0.042 C 
HETATM    5  C5  UNL     1      52.576  51.164  18.784  1.00  0.00     0.136 C 
HETATM    6  C6  UNL     1      51.131  51.646  19.007  1.00  0.00     0.062 C 
HETATM    7  C17 UNL     1      50.295  50.692  18.266  1.00  0.00     0.078 C 
HETATM    8  C24 UNL     1      50.691  50.986  16.818  1.00  0.00     0.048 C 
ENDROOT
BRANCH   6   9
HETATM    9  C7  UNL     1      50.821  51.940  20.399  1.00  0.00     0.198 C 
BRANCH   9  10
HETATM   10  O2  UNL     1      51.771  52.896  20.910  1.00  0.00    -0.319 OA
BRANCH  10  11
HETATM   11  C8  UNL     1      51.431  53.815  21.866  1.00  0.00     0.281 C 
HETATM   12  O3  UNL     1      50.386  53.537  22.555  1.00  0.00    -0.263 OA
BRANCH  11  13
HETATM   13  C9  UNL     1      52.239  55.023  22.056  1.00  0.00     0.175 C 
HETATM   14  C10 UNL     1      51.902  55.629  23.428  1.00  0.00     0.042 C 
BRANCH  13  15
HETATM   15  N1  UNL     1      52.334  55.989  21.064  1.00  0.00    -0.375 N 
ATOM     16  H1  UNL     1      52.012  55.751  20.126  1.00  0.00     0.157 HD
BRANCH  15  17
HETATM   17  C11 UNL     1      52.848  57.271  21.280  1.00  0.00     0.320 C 
BRANCH  17  18
HETATM   18  O4  UNL     1      51.845  58.258  21.016  1.00  0.00    -0.356 OA
BRANCH  18  19
HETATM   19  C12 UNL     1      51.034  57.896  19.966  1.00  0.00     0.174 C 
BRANCH  19  20
HETATM   20  C13 UNL     1      49.599  58.143  20.348  1.00  0.00     0.001 C 
HETATM   21  C14 UNL     1      48.841  56.838  20.170  1.00  0.00     0.011 C 
HETATM   22  C15 UNL     1      49.603  58.548  21.827  1.00  0.00     0.011 C 
ENDBRANCH  19  20
ENDBRANCH  18  19
ENDBRANCH  17  18
BRANCH  17  23
HETATM   23  C16 UNL     1      54.118  57.741  20.777  1.00  0.00     0.223 C 
HETATM   24  O5  UNL     1      54.895  58.618  21.209  1.00  0.00    -0.645 OA
HETATM   25  O6  UNL     1      54.639  57.139  19.578  1.00  0.00    -0.645 OA
ENDBRANCH  17  23
ENDBRANCH  15  17
ENDBRANCH  13  15
ENDBRANCH  11  13
ENDBRANCH  10  11
ENDBRANCH   9  10
ENDBRANCH   6   9
BRANCH   5  26
HETATM   26  O1  UNL     1      53.442  51.637  19.734  1.00  0.00    -0.394 OA
ATOM     27  H1  UNL     1      53.536  51.026  20.456  1.00  0.00     0.210 HD
ENDBRANCH   5  26
BRANCH   7  28
HETATM   28  O7  UNL     1      50.749  49.388  18.598  1.00  0.00    -0.388 OA
ATOM     29  H7  UNL     1      50.988  48.958  17.786  1.00  0.00     0.210 HD
ENDBRANCH   7  28
BRANCH   7  30
HETATM   30  C18 UNL     1      48.822  50.764  18.329  1.00  0.00     0.021 C 
HETATM   31  C19 UNL     1      48.093  49.693  19.028  1.00  0.00     0.007 C 
HETATM   32  C20 UNL     1      46.870  49.233  18.236  1.00  0.00     0.000 C 
HETATM   33  C21 UNL     1      47.436  48.503  17.023  1.00  0.00     0.000 C 
HETATM   34  C22 UNL     1      48.120  49.565  16.201  1.00  0.00     0.000 C 
HETATM   35  C23 UNL     1      48.290  50.875  16.913  1.00  0.00     0.007 C 
ENDBRANCH   7  30
TORSDOF 13
ENDMDL
