MODEL 1
REMARK VINA RESULT: -8.445903229      0.000      0.000
REMARK  12 active torsions:
REMARK  status: ('A' for Active; 'I' for Inactive)
REMARK    1  A    between atoms: C2_2  and  C3_3 
REMARK    2  A    between atoms: C3_3  and  C4_4 
REMARK    3  A    between atoms: C4_4  and  C5_5 
REMARK    4  A    between atoms: C5_5  and  C6_6 
REMARK    5  A    between atoms: C6_6  and  C7_7 
REMARK    6  A    between atoms: C7_7  and  C8_8 
REMARK    7  A    between atoms: C8_8  and  C9_9 
REMARK    8  A    between atoms: C9_9  and  C10_10 
REMARK    9  A    between atoms: C10_10  and  O1_11 
REMARK   10  A    between atoms: C10_10  and  C11_13 
REMARK   11  A    between atoms: C17_22  and  C19_24 
REMARK   12  A    between atoms: C22_30  and  O5_31 
ROOT
HETATM    1  C11 UNL     1      51.207  53.777  20.374  1.00  0.00     0.108 C 
HETATM    2  C12 UNL     1      50.133  54.776  19.991  1.00  0.00     0.027 C 
HETATM    3  C13 UNL     1      50.294  55.306  18.579  1.00  0.00     0.002 C 
HETATM    4  C14 UNL     1      49.103  54.934  17.680  1.00  0.00     0.001 C 
HETATM    5  C15 UNL     1      49.086  53.467  17.619  1.00  0.00     0.015 C 
HETATM    6  C16 UNL     1      48.475  52.774  16.467  1.00  0.00     0.143 C 
HETATM    7  S1  UNL     1      48.537  51.043  16.913  1.00  0.00     0.171 S 
HETATM    8  O2  UNL     1      47.470  50.343  16.163  1.00  0.00    -0.225 OA
HETATM    9  O3  UNL     1      48.136  50.983  18.382  1.00  0.00    -0.225 OA
HETATM   10  C17 UNL     1      50.142  50.327  16.793  1.00  0.00     0.133 C 
HETATM   11  C18 UNL     1      51.144  51.204  16.086  1.00  0.00     0.056 C 
HETATM   12  N1  UNL     1      50.646  49.766  18.030  1.00  0.00    -0.335 N 
ATOM     13  H1  UNL     1      50.954  48.797  17.953  1.00  0.00     0.164 HD
HETATM   14  C21 UNL     1      50.785  50.306  19.295  1.00  0.00     0.267 C 
HETATM   15  O4  UNL     1      50.128  49.751  20.259  1.00  0.00    -0.269 OA
HETATM   16  C22 UNL     1      51.585  51.453  19.784  1.00  0.00     0.307 C 
HETATM   17  N2  UNL     1      50.775  52.426  20.499  1.00  0.00    -0.383 N 
ATOM     18  H2  UNL     1      49.958  52.160  21.050  1.00  0.00     0.156 HD
ENDROOT
BRANCH   1  19
HETATM   19  C10 UNL     1      51.880  54.222  21.628  1.00  0.00     0.140 C 
BRANCH  19  20
HETATM   20  C9  UNL     1      51.545  55.606  22.083  1.00  0.00     0.037 C 
BRANCH  20  21
HETATM   21  C8  UNL     1      52.550  56.654  21.823  1.00  0.00     0.029 C 
BRANCH  21  22
HETATM   22  C7  UNL     1      52.123  57.966  21.286  1.00  0.00    -0.031 C 
BRANCH  22  23
HETATM   23  C6  UNL     1      50.786  58.219  20.747  1.00  0.00    -0.031 C 
BRANCH  23  24
HETATM   24  C5  UNL     1      49.616  58.428  21.614  1.00  0.00     0.027 C 
BRANCH  24  25
HETATM   25  C4  UNL     1      48.277  58.424  20.928  1.00  0.00     0.004 C 
BRANCH  25  26
HETATM   26  C3  UNL     1      48.335  58.587  19.444  1.00  0.00    -0.000 C 
BRANCH  26  27
HETATM   27  C2  UNL     1      47.214  59.443  18.927  1.00  0.00    -0.005 C 
HETATM   28  C1  UNL     1      47.638  60.916  18.878  1.00  0.00     0.005 C 
ENDBRANCH  26  27
ENDBRANCH  25  26
ENDBRANCH  24  25
ENDBRANCH  23  24
ENDBRANCH  22  23
ENDBRANCH  21  22
ENDBRANCH  20  21
ENDBRANCH  19  20
BRANCH  19  29
HETATM   29  O1  UNL     1      51.856  53.298  22.669  1.00  0.00    -0.394 OA
ATOM     30  H1  UNL     1      51.020  53.277  23.119  1.00  0.00     0.210 HD
ENDBRANCH  19  29
ENDBRANCH   1  19
BRANCH  16  31
HETATM   31  O5  UNL     1      52.559  50.954  20.686  1.00  0.00    -0.368 OA
ATOM     32  H5  UNL     1      52.109  50.449  21.353  1.00  0.00     0.212 HD
ENDBRANCH  16  31
BRANCH  10  33
HETATM   33  C19 UNL     1      49.922  49.170  15.773  1.00  0.00     0.042 C 
HETATM   34  C20 UNL     1      50.668  49.549  14.537  1.00  0.00     0.009 C 
ENDBRANCH  10  33
TORSDOF 12
ENDMDL
MODEL 2
REMARK VINA RESULT: -8.299603384      2.967      7.790
REMARK  12 active torsions:
REMARK  status: ('A' for Active; 'I' for Inactive)
REMARK    1  A    between atoms: C2_2  and  C3_3 
REMARK    2  A    between atoms: C3_3  and  C4_4 
REMARK    3  A    between atoms: C4_4  and  C5_5 
REMARK    4  A    between atoms: C5_5  and  C6_6 
REMARK    5  A    between atoms: C6_6  and  C7_7 
REMARK    6  A    between atoms: C7_7  and  C8_8 
REMARK    7  A    between atoms: C8_8  and  C9_9 
REMARK    8  A    between atoms: C9_9  and  C10_10 
REMARK    9  A    between atoms: C10_10  and  O1_11 
REMARK   10  A    between atoms: C10_10  and  C11_13 
REMARK   11  A    between atoms: C17_22  and  C19_24 
REMARK   12  A    between atoms: C22_30  and  O5_31 
ROOT
HETATM    1  C11 UNL     1      49.453  50.919  18.757  1.00  0.00     0.108 C 
HETATM    2  C12 UNL     1      49.163  51.549  17.409  1.00  0.00     0.027 C 
HETATM    3  C13 UNL     1      48.242  52.751  17.503  1.00  0.00     0.002 C 
HETATM    4  C14 UNL     1      48.927  54.044  17.031  1.00  0.00     0.001 C 
HETATM    5  C15 UNL     1      50.056  54.260  17.944  1.00  0.00     0.015 C 
HETATM    6  C16 UNL     1      50.591  55.619  18.163  1.00  0.00     0.143 C 
HETATM    7  S1  UNL     1      52.032  55.363  19.192  1.00  0.00     0.171 S 
HETATM    8  O2  UNL     1      52.946  56.509  18.986  1.00  0.00    -0.225 OA
HETATM    9  O3  UNL     1      52.738  54.143  18.613  1.00  0.00    -0.225 OA
HETATM   10  C17 UNL     1      51.657  54.986  20.872  1.00  0.00     0.133 C 
HETATM   11  C18 UNL     1      50.209  55.200  21.231  1.00  0.00     0.056 C 
HETATM   12  N1  UNL     1      52.179  53.717  21.335  1.00  0.00    -0.335 N 
ATOM     13  H1  UNL     1      52.736  53.781  22.187  1.00  0.00     0.164 HD
HETATM   14  C21 UNL     1      52.060  52.434  20.833  1.00  0.00     0.267 C 
HETATM   15  O4  UNL     1      53.143  51.826  20.477  1.00  0.00    -0.269 OA
HETATM   16  C22 UNL     1      50.869  51.578  20.616  1.00  0.00     0.307 C 
HETATM   17  N2  UNL     1      50.779  51.096  19.247  1.00  0.00    -0.383 N 
ATOM     18  H2  UNL     1      51.604  50.898  18.679  1.00  0.00     0.156 HD
ENDROOT
BRANCH   1  19
HETATM   19  C10 UNL     1      49.106  49.470  18.718  1.00  0.00     0.140 C 
BRANCH  19  20
HETATM   20  C9  UNL     1      47.730  49.124  19.187  1.00  0.00     0.037 C 
BRANCH  20  21
HETATM   21  C8  UNL     1      46.619  49.407  18.259  1.00  0.00     0.029 C 
BRANCH  21  22
HETATM   22  C7  UNL     1      45.427  48.528  18.247  1.00  0.00    -0.031 C 
BRANCH  22  23
HETATM   23  C6  UNL     1      45.095  47.637  17.135  1.00  0.00    -0.031 C 
BRANCH  23  24
HETATM   24  C5  UNL     1      45.998  47.439  15.990  1.00  0.00     0.027 C 
BRANCH  24  25
HETATM   25  C4  UNL     1      45.502  47.944  14.662  1.00  0.00     0.004 C 
BRANCH  25  26
HETATM   26  C3  UNL     1      46.501  48.733  13.882  1.00  0.00    -0.000 C 
BRANCH  26  27
HETATM   27  C2  UNL     1      47.575  49.309  14.760  1.00  0.00    -0.005 C 
HETATM   28  C1  UNL     1      48.504  50.222  13.950  1.00  0.00     0.005 C 
ENDBRANCH  26  27
ENDBRANCH  25  26
ENDBRANCH  24  25
ENDBRANCH  23  24
ENDBRANCH  22  23
ENDBRANCH  21  22
ENDBRANCH  20  21
ENDBRANCH  19  20
BRANCH  19  29
HETATM   29  O1  UNL     1      49.449  48.814  17.538  1.00  0.00    -0.394 OA
ATOM     30  H1  UNL     1      50.377  48.873  17.345  1.00  0.00     0.210 HD
ENDBRANCH  19  29
ENDBRANCH   1  19
BRANCH  16  31
HETATM   31  O5  UNL     1      50.982  50.449  21.466  1.00  0.00    -0.368 OA
ATOM     32  H5  UNL     1      50.348  50.545  22.166  1.00  0.00     0.212 HD
ENDBRANCH  16  31
BRANCH  10  33
HETATM   33  C19 UNL     1      52.373  56.133  21.645  1.00  0.00     0.042 C 
HETATM   34  C20 UNL     1      51.321  57.135  21.985  1.00  0.00     0.009 C 
ENDBRANCH  10  33
TORSDOF 12
ENDMDL
MODEL 3
REMARK VINA RESULT: -8.182602952      2.549      7.487
REMARK  12 active torsions:
REMARK  status: ('A' for Active; 'I' for Inactive)
REMARK    1  A    between atoms: C2_2  and  C3_3 
REMARK    2  A    between atoms: C3_3  and  C4_4 
REMARK    3  A    between atoms: C4_4  and  C5_5 
REMARK    4  A    between atoms: C5_5  and  C6_6 
REMARK    5  A    between atoms: C6_6  and  C7_7 
REMARK    6  A    between atoms: C7_7  and  C8_8 
REMARK    7  A    between atoms: C8_8  and  C9_9 
REMARK    8  A    between atoms: C9_9  and  C10_10 
REMARK    9  A    between atoms: C10_10  and  O1_11 
REMARK   10  A    between atoms: C10_10  and  C11_13 
REMARK   11  A    between atoms: C17_22  and  C19_24 
REMARK   12  A    between atoms: C22_30  and  O5_31 
ROOT
HETATM    1  C11 UNL     1      49.240  51.077  18.951  1.00  0.00     0.108 C 
HETATM    2  C12 UNL     1      48.911  51.695  17.606  1.00  0.00     0.027 C 
HETATM    3  C13 UNL     1      48.052  52.940  17.722  1.00  0.00     0.002 C 
HETATM    4  C14 UNL     1      48.771  54.191  17.189  1.00  0.00     0.001 C 
HETATM    5  C15 UNL     1      49.954  54.370  18.040  1.00  0.00     0.015 C 
HETATM    6  C16 UNL     1      50.562  55.706  18.204  1.00  0.00     0.143 C 
HETATM    7  S1  UNL     1      52.040  55.402  19.164  1.00  0.00     0.171 S 
HETATM    8  O2  UNL     1      52.994  56.499  18.889  1.00  0.00    -0.225 OA
HETATM    9  O3  UNL     1      52.659  54.140  18.576  1.00  0.00    -0.225 OA
HETATM   10  C17 UNL     1      51.734  55.074  20.868  1.00  0.00     0.133 C 
HETATM   11  C18 UNL     1      50.318  55.362  21.295  1.00  0.00     0.056 C 
HETATM   12  N1  UNL     1      52.221  53.790  21.331  1.00  0.00    -0.335 N 
ATOM     13  H1  UNL     1      52.823  53.843  22.152  1.00  0.00     0.164 HD
HETATM   14  C21 UNL     1      52.016  52.505  20.861  1.00  0.00     0.267 C 
HETATM   15  O4  UNL     1      53.051  51.841  20.464  1.00  0.00    -0.269 OA
HETATM   16  C22 UNL     1      50.778  51.703  20.722  1.00  0.00     0.307 C 
HETATM   17  N2  UNL     1      50.596  51.200  19.370  1.00  0.00    -0.383 N 
ATOM     18  H2  UNL     1      51.381  50.953  18.765  1.00  0.00     0.156 HD
ENDROOT
BRANCH   1  19
HETATM   19  C10 UNL     1      48.825  49.645  18.959  1.00  0.00     0.140 C 
BRANCH  19  20
HETATM   20  C9  UNL     1      47.369  49.395  18.735  1.00  0.00     0.037 C 
BRANCH  20  21
HETATM   21  C8  UNL     1      47.010  48.519  17.604  1.00  0.00     0.029 C 
BRANCH  21  22
HETATM   22  C7  UNL     1      46.673  49.113  16.290  1.00  0.00    -0.031 C 
BRANCH  22  23
HETATM   23  C6  UNL     1      47.447  48.868  15.073  1.00  0.00    -0.031 C 
BRANCH  23  24
HETATM   24  C5  UNL     1      48.559  49.739  14.661  1.00  0.00     0.027 C 
BRANCH  24  25
HETATM   25  C4  UNL     1      49.934  49.301  15.088  1.00  0.00     0.004 C 
BRANCH  25  26
HETATM   26  C3  UNL     1      51.055  50.029  14.422  1.00  0.00    -0.000 C 
BRANCH  26  27
HETATM   27  C2  UNL     1      51.829  50.879  15.390  1.00  0.00    -0.005 C 
HETATM   28  C1  UNL     1      53.216  51.214  14.826  1.00  0.00     0.005 C 
ENDBRANCH  26  27
ENDBRANCH  25  26
ENDBRANCH  24  25
ENDBRANCH  23  24
ENDBRANCH  22  23
ENDBRANCH  21  22
ENDBRANCH  20  21
ENDBRANCH  19  20
BRANCH  19  29
HETATM   29  O1  UNL     1      49.635  48.793  18.212  1.00  0.00    -0.394 OA
ATOM     30  H1  UNL     1      50.142  48.203  18.755  1.00  0.00     0.210 HD
ENDBRANCH  19  29
ENDBRANCH   1  19
BRANCH  16  31
HETATM   31  O5  UNL     1      50.883  50.584  21.588  1.00  0.00    -0.368 OA
ATOM     32  H5  UNL     1      50.450  49.849  21.171  1.00  0.00     0.212 HD
ENDBRANCH  16  31
BRANCH  10  33
HETATM   33  C19 UNL     1      52.541  56.199  21.580  1.00  0.00     0.042 C 
HETATM   34  C20 UNL     1      51.560  57.271  21.922  1.00  0.00     0.009 C 
ENDBRANCH  10  33
TORSDOF 12
ENDMDL
MODEL 4
REMARK VINA RESULT: -8.093847836      3.034      7.766
REMARK  12 active torsions:
REMARK  status: ('A' for Active; 'I' for Inactive)
REMARK    1  A    between atoms: C2_2  and  C3_3 
REMARK    2  A    between atoms: C3_3  and  C4_4 
REMARK    3  A    between atoms: C4_4  and  C5_5 
REMARK    4  A    between atoms: C5_5  and  C6_6 
REMARK    5  A    between atoms: C6_6  and  C7_7 
REMARK    6  A    between atoms: C7_7  and  C8_8 
REMARK    7  A    between atoms: C8_8  and  C9_9 
REMARK    8  A    between atoms: C9_9  and  C10_10 
REMARK    9  A    between atoms: C10_10  and  O1_11 
REMARK   10  A    between atoms: C10_10  and  C11_13 
REMARK   11  A    between atoms: C17_22  and  C19_24 
REMARK   12  A    between atoms: C22_30  and  O5_31 
ROOT
HETATM    1  C11 UNL     1      49.659  51.377  17.878  1.00  0.00     0.108 C 
HETATM    2  C12 UNL     1      49.259  52.278  16.726  1.00  0.00     0.027 C 
HETATM    3  C13 UNL     1      48.252  53.339  17.128  1.00  0.00     0.002 C 
HETATM    4  C14 UNL     1      48.811  54.762  16.960  1.00  0.00     0.001 C 
HETATM    5  C15 UNL     1      49.961  54.854  17.868  1.00  0.00     0.015 C 
HETATM    6  C16 UNL     1      50.397  56.165  18.390  1.00  0.00     0.143 C 
HETATM    7  S1  UNL     1      51.900  55.801  19.291  1.00  0.00     0.171 S 
HETATM    8  O2  UNL     1      52.711  57.038  19.339  1.00  0.00    -0.225 OA
HETATM    9  O3  UNL     1      52.672  54.817  18.420  1.00  0.00    -0.225 OA
HETATM   10  C17 UNL     1      51.633  55.009  20.841  1.00  0.00     0.133 C 
HETATM   11  C18 UNL     1      50.191  55.006  21.279  1.00  0.00     0.056 C 
HETATM   12  N1  UNL     1      52.274  53.716  20.976  1.00  0.00    -0.335 N 
ATOM     13  H1  UNL     1      52.863  53.627  21.804  1.00  0.00     0.164 HD
HETATM   14  C21 UNL     1      52.232  52.582  20.186  1.00  0.00     0.267 C 
HETATM   15  O4  UNL     1      53.342  52.172  19.667  1.00  0.00    -0.269 OA
HETATM   16  C22 UNL     1      51.104  51.701  19.802  1.00  0.00     0.307 C 
HETATM   17  N2  UNL     1      50.989  51.548  18.361  1.00  0.00    -0.383 N 
ATOM     18  H2  UNL     1      51.800  51.562  17.741  1.00  0.00     0.156 HD
ENDROOT
BRANCH   1  19
HETATM   19  C10 UNL     1      49.426  49.953  17.504  1.00  0.00     0.140 C 
BRANCH  19  20
HETATM   20  C9  UNL     1      50.032  49.519  16.209  1.00  0.00     0.037 C 
BRANCH  20  21
HETATM   21  C8  UNL     1      49.152  48.799  15.269  1.00  0.00     0.029 C 
BRANCH  21  22
HETATM   22  C7  UNL     1      47.845  49.383  14.890  1.00  0.00    -0.031 C 
BRANCH  22  23
HETATM   23  C6  UNL     1      46.601  48.613  14.851  1.00  0.00    -0.031 C 
BRANCH  23  24
HETATM   24  C5  UNL     1      45.782  48.382  16.051  1.00  0.00     0.027 C 
BRANCH  24  25
HETATM   25  C4  UNL     1      46.078  49.267  17.232  1.00  0.00     0.004 C 
BRANCH  25  26
HETATM   26  C3  UNL     1      46.073  48.567  18.552  1.00  0.00    -0.000 C 
BRANCH  26  27
HETATM   27  C2  UNL     1      44.855  47.706  18.729  1.00  0.00    -0.005 C 
HETATM   28  C1  UNL     1      44.710  47.270  20.193  1.00  0.00     0.005 C 
ENDBRANCH  26  27
ENDBRANCH  25  26
ENDBRANCH  24  25
ENDBRANCH  23  24
ENDBRANCH  22  23
ENDBRANCH  21  22
ENDBRANCH  20  21
ENDBRANCH  19  20
BRANCH  19  29
HETATM   29  O1  UNL     1      49.639  49.032  18.528  1.00  0.00    -0.394 OA
ATOM     30  H1  UNL     1      50.204  49.372  19.211  1.00  0.00     0.210 HD
ENDBRANCH  19  29
ENDBRANCH   1  19
BRANCH  16  31
HETATM   31  O5  UNL     1      51.344  50.418  20.356  1.00  0.00    -0.368 OA
ATOM     32  H5  UNL     1      51.103  49.769  19.706  1.00  0.00     0.212 HD
ENDBRANCH  16  31
BRANCH  10  33
HETATM   33  C19 UNL     1      52.293  55.999  21.846  1.00  0.00     0.042 C 
HETATM   34  C20 UNL     1      51.961  55.498  23.213  1.00  0.00     0.009 C 
ENDBRANCH  10  33
TORSDOF 12
ENDMDL
MODEL 5
REMARK VINA RESULT: -7.993293356      3.057      7.854
REMARK  12 active torsions:
REMARK  status: ('A' for Active; 'I' for Inactive)
REMARK    1  A    between atoms: C2_2  and  C3_3 
REMARK    2  A    between atoms: C3_3  and  C4_4 
REMARK    3  A    between atoms: C4_4  and  C5_5 
REMARK    4  A    between atoms: C5_5  and  C6_6 
REMARK    5  A    between atoms: C6_6  and  C7_7 
REMARK    6  A    between atoms: C7_7  and  C8_8 
REMARK    7  A    between atoms: C8_8  and  C9_9 
REMARK    8  A    between atoms: C9_9  and  C10_10 
REMARK    9  A    between atoms: C10_10  and  O1_11 
REMARK   10  A    between atoms: C10_10  and  C11_13 
REMARK   11  A    between atoms: C17_22  and  C19_24 
REMARK   12  A    between atoms: C22_30  and  O5_31 
ROOT
HETATM    1  C11 UNL     1      49.819  51.018  17.640  1.00  0.00     0.108 C 
HETATM    2  C12 UNL     1      49.356  51.922  16.515  1.00  0.00     0.027 C 
HETATM    3  C13 UNL     1      48.278  52.898  16.946  1.00  0.00     0.002 C 
HETATM    4  C14 UNL     1      48.736  54.361  16.820  1.00  0.00     0.001 C 
HETATM    5  C15 UNL     1      49.877  54.507  17.733  1.00  0.00     0.015 C 
HETATM    6  C16 UNL     1      50.221  55.828  18.294  1.00  0.00     0.143 C 
HETATM    7  S1  UNL     1      51.746  55.544  19.186  1.00  0.00     0.171 S 
HETATM    8  O2  UNL     1      52.468  56.832  19.273  1.00  0.00    -0.225 OA
HETATM    9  O3  UNL     1      52.584  54.643  18.288  1.00  0.00    -0.225 OA
HETATM   10  C17 UNL     1      51.536  54.690  20.712  1.00  0.00     0.133 C 
HETATM   11  C18 UNL     1      50.097  54.573  21.147  1.00  0.00     0.056 C 
HETATM   12  N1  UNL     1      52.265  53.442  20.810  1.00  0.00    -0.335 N 
ATOM     13  H1  UNL     1      52.859  53.369  21.636  1.00  0.00     0.164 HD
HETATM   14  C21 UNL     1      52.302  52.331  19.986  1.00  0.00     0.267 C 
HETATM   15  O4  UNL     1      53.438  52.015  19.458  1.00  0.00    -0.269 OA
HETATM   16  C22 UNL     1      51.238  51.385  19.575  1.00  0.00     0.307 C 
HETATM   17  N2  UNL     1      51.133  51.267  18.130  1.00  0.00    -0.383 N 
ATOM     18  H2  UNL     1      51.941  51.356  17.512  1.00  0.00     0.156 HD
ENDROOT
BRANCH   1  19
HETATM   19  C10 UNL     1      49.685  49.592  17.224  1.00  0.00     0.140 C 
BRANCH  19  20
HETATM   20  C9  UNL     1      48.753  48.765  18.049  1.00  0.00     0.037 C 
BRANCH  20  21
HETATM   21  C8  UNL     1      47.636  49.472  18.703  1.00  0.00     0.029 C 
BRANCH  21  22
HETATM   22  C7  UNL     1      46.282  49.419  18.107  1.00  0.00    -0.031 C 
BRANCH  22  23
HETATM   23  C6  UNL     1      45.529  48.177  17.928  1.00  0.00    -0.031 C 
BRANCH  23  24
HETATM   24  C5  UNL     1      45.167  47.664  16.597  1.00  0.00     0.027 C 
BRANCH  24  25
HETATM   25  C4  UNL     1      46.308  47.448  15.640  1.00  0.00     0.004 C 
BRANCH  25  26
HETATM   26  C3  UNL     1      46.415  48.470  14.556  1.00  0.00    -0.000 C 
BRANCH  26  27
HETATM   27  C2  UNL     1      45.280  48.373  13.576  1.00  0.00    -0.005 C 
HETATM   28  C1  UNL     1      45.736  48.808  12.177  1.00  0.00     0.005 C 
ENDBRANCH  26  27
ENDBRANCH  25  26
ENDBRANCH  24  25
ENDBRANCH  23  24
ENDBRANCH  22  23
ENDBRANCH  21  22
ENDBRANCH  20  21
ENDBRANCH  19  20
BRANCH  19  29
HETATM   29  O1  UNL     1      49.509  49.392  15.857  1.00  0.00    -0.394 OA
ATOM     30  H1  UNL     1      48.639  49.633  15.563  1.00  0.00     0.210 HD
ENDBRANCH  19  29
ENDBRANCH   1  19
BRANCH  16  31
HETATM   31  O5  UNL     1      51.567  50.106  20.091  1.00  0.00    -0.368 OA
ATOM     32  H5  UNL     1      50.848  49.817  20.640  1.00  0.00     0.212 HD
ENDBRANCH  16  31
BRANCH  10  33
HETATM   33  C19 UNL     1      52.125  55.694  21.747  1.00  0.00     0.042 C 
HETATM   34  C20 UNL     1      51.903  55.091  23.095  1.00  0.00     0.009 C 
ENDBRANCH  10  33
TORSDOF 12
ENDMDL
