MODEL 1
REMARK VINA RESULT: -8.894222425      0.000      0.000
REMARK  11 active torsions:
REMARK  status: ('A' for Active; 'I' for Inactive)
REMARK    1  A    between atoms: C2_2  and  N1_3 
REMARK    2  A    between atoms: N1_3  and  C3_5 
REMARK    3  A    between atoms: C3_5  and  C4_6 
REMARK    4  A    between atoms: C4_6  and  C5_7 
REMARK    5  A    between atoms: C5_7  and  C6_8 
REMARK    6  A    between atoms: C6_8  and  N2_9 
REMARK       I    between atoms: N2_9  and  C7_11 
REMARK    7  A    between atoms: C7_11  and  O2_13 
REMARK    8  A    between atoms: O2_13  and  C8_14 
REMARK    9  A    between atoms: C8_14  and  C9_15 
REMARK   10  A    between atoms: C16_23  and  O4_24 
REMARK   11  A    between atoms: C17_26  and  O5_27 
ROOT
HETATM    1  C9  UNL     1      49.776  56.995  18.527  1.00  0.00    -0.026 C 
HETATM    2  C10 UNL     1      50.874  56.438  18.991  1.00  0.00     0.060 C 
HETATM    3  O3  UNL     1      51.824  55.555  18.467  1.00  0.00    -0.348 OA
HETATM    4  C11 UNL     1      52.397  54.804  19.548  1.00  0.00     0.140 C 
HETATM    5  C12 UNL     1      51.945  53.397  19.523  1.00  0.00     0.051 C 
HETATM    6  C13 UNL     1      51.134  53.002  20.734  1.00  0.00    -0.005 C 
HETATM    7  C14 UNL     1      50.707  51.592  20.759  1.00  0.00     0.008 C 
HETATM    8  C15 UNL     1      51.355  50.693  19.759  1.00  0.00     0.035 C 
HETATM    9  C16 UNL     1      52.800  51.022  19.610  1.00  0.00     0.147 C 
HETATM   10  C17 UNL     1      53.113  52.439  19.300  1.00  0.00     0.153 C 
HETATM   11  C18 UNL     1      51.985  53.430  21.931  1.00  0.00     0.005 C 
HETATM   12  C19 UNL     1      51.733  54.946  21.998  1.00  0.00     0.009 C 
HETATM   13  C20 UNL     1      52.198  55.608  20.768  1.00  0.00     0.030 C 
HETATM   14  C21 UNL     1      51.281  56.759  20.382  1.00  0.00     0.011 C 
HETATM   15  C22 UNL     1      52.024  58.076  20.313  1.00  0.00     0.023 C 
HETATM   16  C23 UNL     1      50.041  56.833  21.207  1.00  0.00     0.017 C 
HETATM   17  C24 UNL     1      49.174  57.980  20.734  1.00  0.00     0.006 C 
HETATM   18  C25 UNL     1      48.898  57.933  19.272  1.00  0.00     0.039 C 
ENDROOT
BRANCH   1  19
HETATM   19  C8  UNL     1      49.365  56.679  17.144  1.00  0.00     0.217 C 
BRANCH  19  20
HETATM   20  O2  UNL     1      48.286  55.801  17.104  1.00  0.00    -0.300 OA
BRANCH  20  21
HETATM   21  C7  UNL     1      48.416  54.461  16.791  1.00  0.00     0.360 C 
HETATM   22  N2  UNL     1      49.210  53.586  17.573  1.00  0.00    -0.337 N 
ATOM     23  H2  UNL     1      49.688  53.960  18.393  1.00  0.00     0.164 HD
HETATM   24  O1  UNL     1      47.801  54.042  15.779  1.00  0.00    -0.239 OA
BRANCH  22  25
HETATM   25  C6  UNL     1      49.366  52.201  17.259  1.00  0.00     0.125 C 
BRANCH  25  26
HETATM   26  C5  UNL     1      48.308  51.379  17.931  1.00  0.00     0.021 C 
BRANCH  26  27
HETATM   27  C4  UNL     1      47.942  50.174  17.109  1.00  0.00     0.021 C 
BRANCH  27  28
HETATM   28  C3  UNL     1      48.798  48.982  17.392  1.00  0.00     0.113 C 
BRANCH  28  29
HETATM   29  N1  UNL     1      49.564  48.517  16.279  1.00  0.00    -0.421 N 
ATOM     30  H1  UNL     1      50.143  47.679  16.331  1.00  0.00     0.153 HD
BRANCH  29  31
HETATM   31  C2  UNL     1      49.469  49.299  15.091  1.00  0.00     0.109 C 
HETATM   32  C1  UNL     1      50.797  49.614  14.466  1.00  0.00     0.026 C 
ENDBRANCH  29  31
ENDBRANCH  28  29
ENDBRANCH  27  28
ENDBRANCH  26  27
ENDBRANCH  25  26
ENDBRANCH  22  25
ENDBRANCH  20  21
ENDBRANCH  19  20
ENDBRANCH   1  19
BRANCH  10  33
HETATM   33  O5  UNL     1      53.495  52.617  17.963  1.00  0.00    -0.393 OA
ATOM     34  H5  UNL     1      54.444  52.580  17.962  1.00  0.00     0.210 HD
ENDBRANCH  10  33
BRANCH   9  35
HETATM   35  O4  UNL     1      53.532  50.603  20.718  1.00  0.00    -0.393 OA
ATOM     36  H4  UNL     1      53.480  49.661  20.831  1.00  0.00     0.210 HD
ENDBRANCH   9  35
TORSDOF 11
ENDMDL
MODEL 2
REMARK VINA RESULT: -8.860849422      1.039      1.292
REMARK  11 active torsions:
REMARK  status: ('A' for Active; 'I' for Inactive)
REMARK    1  A    between atoms: C2_2  and  N1_3 
REMARK    2  A    between atoms: N1_3  and  C3_5 
REMARK    3  A    between atoms: C3_5  and  C4_6 
REMARK    4  A    between atoms: C4_6  and  C5_7 
REMARK    5  A    between atoms: C5_7  and  C6_8 
REMARK    6  A    between atoms: C6_8  and  N2_9 
REMARK       I    between atoms: N2_9  and  C7_11 
REMARK    7  A    between atoms: C7_11  and  O2_13 
REMARK    8  A    between atoms: O2_13  and  C8_14 
REMARK    9  A    between atoms: C8_14  and  C9_15 
REMARK   10  A    between atoms: C16_23  and  O4_24 
REMARK   11  A    between atoms: C17_26  and  O5_27 
ROOT
HETATM    1  C9  UNL     1      49.662  57.007  18.552  1.00  0.00    -0.026 C 
HETATM    2  C10 UNL     1      50.772  56.461  19.000  1.00  0.00     0.060 C 
HETATM    3  O3  UNL     1      51.733  55.602  18.456  1.00  0.00    -0.348 OA
HETATM    4  C11 UNL     1      52.326  54.842  19.521  1.00  0.00     0.140 C 
HETATM    5  C12 UNL     1      51.896  53.428  19.475  1.00  0.00     0.051 C 
HETATM    6  C13 UNL     1      51.099  53.000  20.683  1.00  0.00    -0.005 C 
HETATM    7  C14 UNL     1      50.695  51.584  20.687  1.00  0.00     0.008 C 
HETATM    8  C15 UNL     1      51.352  50.712  19.669  1.00  0.00     0.035 C 
HETATM    9  C16 UNL     1      52.791  51.067  19.517  1.00  0.00     0.147 C 
HETATM   10  C17 UNL     1      53.078  52.494  19.229  1.00  0.00     0.153 C 
HETATM   11  C18 UNL     1      51.950  53.422  21.883  1.00  0.00     0.005 C 
HETATM   12  C19 UNL     1      51.674  54.932  21.977  1.00  0.00     0.009 C 
HETATM   13  C20 UNL     1      52.121  55.622  20.756  1.00  0.00     0.030 C 
HETATM   14  C21 UNL     1      51.183  56.764  20.394  1.00  0.00     0.011 C 
HETATM   15  C22 UNL     1      51.903  58.095  20.342  1.00  0.00     0.023 C 
HETATM   16  C23 UNL     1      49.946  56.804  21.227  1.00  0.00     0.017 C 
HETATM   17  C24 UNL     1      49.058  57.945  20.778  1.00  0.00     0.006 C 
HETATM   18  C25 UNL     1      48.774  57.918  19.318  1.00  0.00     0.039 C 
ENDROOT
BRANCH   1  19
HETATM   19  C8  UNL     1      49.249  56.707  17.166  1.00  0.00     0.217 C 
BRANCH  19  20
HETATM   20  O2  UNL     1      49.663  55.444  16.756  1.00  0.00    -0.300 OA
BRANCH  20  21
HETATM   21  C7  UNL     1      48.856  54.324  16.830  1.00  0.00     0.360 C 
HETATM   22  N2  UNL     1      49.348  53.080  17.295  1.00  0.00    -0.337 N 
ATOM     23  H2  UNL     1      50.322  53.018  17.590  1.00  0.00     0.164 HD
HETATM   24  O1  UNL     1      47.660  54.449  16.466  1.00  0.00    -0.239 OA
BRANCH  22  25
HETATM   25  C6  UNL     1      48.533  51.908  17.368  1.00  0.00     0.125 C 
BRANCH  25  26
HETATM   26  C5  UNL     1      48.680  51.078  16.129  1.00  0.00     0.021 C 
BRANCH  26  27
HETATM   27  C4  UNL     1      49.915  50.220  16.185  1.00  0.00     0.021 C 
BRANCH  27  28
HETATM   28  C3  UNL     1      50.312  49.666  14.856  1.00  0.00     0.113 C 
BRANCH  28  29
HETATM   29  N1  UNL     1      51.673  49.903  14.492  1.00  0.00    -0.421 N 
ATOM     30  H1  UNL     1      52.166  49.313  13.822  1.00  0.00     0.153 HD
BRANCH  29  31
HETATM   31  C2  UNL     1      52.299  51.017  15.123  1.00  0.00     0.109 C 
HETATM   32  C1  UNL     1      53.591  51.431  14.479  1.00  0.00     0.026 C 
ENDBRANCH  29  31
ENDBRANCH  28  29
ENDBRANCH  27  28
ENDBRANCH  26  27
ENDBRANCH  25  26
ENDBRANCH  22  25
ENDBRANCH  20  21
ENDBRANCH  19  20
ENDBRANCH   1  19
BRANCH  10  33
HETATM   33  O5  UNL     1      53.449  52.700  17.893  1.00  0.00    -0.393 OA
ATOM     34  H5  UNL     1      53.342  51.858  17.466  1.00  0.00     0.210 HD
ENDBRANCH  10  33
BRANCH   9  35
HETATM   35  O4  UNL     1      53.536  50.641  20.614  1.00  0.00    -0.393 OA
ATOM     36  H4  UNL     1      53.447  51.240  21.346  1.00  0.00     0.210 HD
ENDBRANCH   9  35
TORSDOF 11
ENDMDL
MODEL 3
REMARK VINA RESULT: -8.826497263      2.842      6.503
REMARK  11 active torsions:
REMARK  status: ('A' for Active; 'I' for Inactive)
REMARK    1  A    between atoms: C2_2  and  N1_3 
REMARK    2  A    between atoms: N1_3  and  C3_5 
REMARK    3  A    between atoms: C3_5  and  C4_6 
REMARK    4  A    between atoms: C4_6  and  C5_7 
REMARK    5  A    between atoms: C5_7  and  C6_8 
REMARK    6  A    between atoms: C6_8  and  N2_9 
REMARK       I    between atoms: N2_9  and  C7_11 
REMARK    7  A    between atoms: C7_11  and  O2_13 
REMARK    8  A    between atoms: O2_13  and  C8_14 
REMARK    9  A    between atoms: C8_14  and  C9_15 
REMARK   10  A    between atoms: C16_23  and  O4_24 
REMARK   11  A    between atoms: C17_26  and  O5_27 
ROOT
HETATM    1  C9  UNL     1      49.399  54.276  17.792  1.00  0.00    -0.026 C 
HETATM    2  C10 UNL     1      49.747  53.042  17.495  1.00  0.00     0.060 C 
HETATM    3  O3  UNL     1      49.518  52.192  16.407  1.00  0.00    -0.348 OA
HETATM    4  C11 UNL     1      49.553  50.834  16.872  1.00  0.00     0.140 C 
HETATM    5  C12 UNL     1      48.203  50.231  16.868  1.00  0.00     0.051 C 
HETATM    6  C13 UNL     1      47.709  49.848  18.242  1.00  0.00    -0.005 C 
HETATM    7  C14 UNL     1      46.385  49.203  18.266  1.00  0.00     0.008 C 
HETATM    8  C15 UNL     1      45.847  48.763  16.945  1.00  0.00     0.035 C 
HETATM    9  C16 UNL     1      46.929  48.191  16.097  1.00  0.00     0.147 C 
HETATM   10  C17 UNL     1      48.121  49.052  15.900  1.00  0.00     0.153 C 
HETATM   11  C18 UNL     1      48.837  49.007  18.844  1.00  0.00     0.005 C 
HETATM   12  C19 UNL     1      49.856  50.073  19.279  1.00  0.00     0.009 C 
HETATM   13  C20 UNL     1      50.342  50.837  18.117  1.00  0.00     0.030 C 
HETATM   14  C21 UNL     1      50.574  52.297  18.477  1.00  0.00     0.011 C 
HETATM   15  C22 UNL     1      52.006  52.720  18.232  1.00  0.00     0.023 C 
HETATM   16  C23 UNL     1      50.085  52.658  19.840  1.00  0.00     0.017 C 
HETATM   17  C24 UNL     1      50.324  54.131  20.100  1.00  0.00     0.006 C 
HETATM   18  C25 UNL     1      49.767  55.006  19.032  1.00  0.00     0.039 C 
ENDROOT
BRANCH   1  19
HETATM   19  C8  UNL     1      48.576  55.021  16.818  1.00  0.00     0.217 C 
BRANCH  19  20
HETATM   20  O2  UNL     1      49.214  56.170  16.361  1.00  0.00    -0.300 OA
BRANCH  20  21
HETATM   21  C7  UNL     1      48.713  57.442  16.565  1.00  0.00     0.360 C 
HETATM   22  N2  UNL     1      48.464  57.946  17.866  1.00  0.00    -0.337 N 
ATOM     23  H2  UNL     1      48.671  57.352  18.669  1.00  0.00     0.164 HD
HETATM   24  O1  UNL     1      48.483  58.142  15.548  1.00  0.00    -0.239 OA
BRANCH  22  25
HETATM   25  C6  UNL     1      47.935  59.254  18.097  1.00  0.00     0.125 C 
BRANCH  25  26
HETATM   26  C5  UNL     1      48.021  59.614  19.549  1.00  0.00     0.021 C 
BRANCH  26  27
HETATM   27  C4  UNL     1      48.505  58.454  20.376  1.00  0.00     0.021 C 
BRANCH  27  28
HETATM   28  C3  UNL     1      49.078  58.865  21.693  1.00  0.00     0.113 C 
BRANCH  28  29
HETATM   29  N1  UNL     1      50.239  58.136  22.095  1.00  0.00    -0.421 N 
ATOM     30  H1  UNL     1      50.376  57.819  23.055  1.00  0.00     0.153 HD
BRANCH  29  31
HETATM   31  C2  UNL     1      51.194  57.878  21.069  1.00  0.00     0.109 C 
HETATM   32  C1  UNL     1      52.361  57.049  21.523  1.00  0.00     0.026 C 
ENDBRANCH  29  31
ENDBRANCH  28  29
ENDBRANCH  27  28
ENDBRANCH  26  27
ENDBRANCH  25  26
ENDBRANCH  22  25
ENDBRANCH  20  21
ENDBRANCH  19  20
ENDBRANCH   1  19
BRANCH  10  33
HETATM   33  O5  UNL     1      48.161  49.616  14.617  1.00  0.00    -0.393 OA
ATOM     34  H5  UNL     1      47.626  49.049  14.073  1.00  0.00     0.210 HD
ENDBRANCH  10  33
BRANCH   9  35
HETATM   35  O4  UNL     1      47.318  46.934  16.552  1.00  0.00    -0.393 OA
ATOM     36  H4  UNL     1      46.920  46.241  16.037  1.00  0.00     0.210 HD
ENDBRANCH   9  35
TORSDOF 11
ENDMDL
MODEL 4
REMARK VINA RESULT: -8.642499166      2.816      6.187
REMARK  11 active torsions:
REMARK  status: ('A' for Active; 'I' for Inactive)
REMARK    1  A    between atoms: C2_2  and  N1_3 
REMARK    2  A    between atoms: N1_3  and  C3_5 
REMARK    3  A    between atoms: C3_5  and  C4_6 
REMARK    4  A    between atoms: C4_6  and  C5_7 
REMARK    5  A    between atoms: C5_7  and  C6_8 
REMARK    6  A    between atoms: C6_8  and  N2_9 
REMARK       I    between atoms: N2_9  and  C7_11 
REMARK    7  A    between atoms: C7_11  and  O2_13 
REMARK    8  A    between atoms: O2_13  and  C8_14 
REMARK    9  A    between atoms: C8_14  and  C9_15 
REMARK   10  A    between atoms: C16_23  and  O4_24 
REMARK   11  A    between atoms: C17_26  and  O5_27 
ROOT
HETATM    1  C9  UNL     1      49.560  54.783  18.024  1.00  0.00    -0.026 C 
HETATM    2  C10 UNL     1      50.167  53.622  17.893  1.00  0.00     0.060 C 
HETATM    3  O3  UNL     1      50.273  52.681  16.863  1.00  0.00    -0.348 OA
HETATM    4  C11 UNL     1      50.475  51.384  17.445  1.00  0.00     0.140 C 
HETATM    5  C12 UNL     1      49.273  50.536  17.294  1.00  0.00     0.051 C 
HETATM    6  C13 UNL     1      48.639  50.148  18.608  1.00  0.00    -0.005 C 
HETATM    7  C14 UNL     1      47.466  49.266  18.491  1.00  0.00     0.008 C 
HETATM    8  C15 UNL     1      47.237  48.653  17.149  1.00  0.00     0.035 C 
HETATM    9  C16 UNL     1      48.528  48.248  16.526  1.00  0.00     0.147 C 
HETATM   10  C17 UNL     1      49.562  49.309  16.433  1.00  0.00     0.153 C 
HETATM   11  C18 UNL     1      49.786  49.575  19.443  1.00  0.00     0.005 C 
HETATM   12  C19 UNL     1      50.514  50.840  19.929  1.00  0.00     0.009 C 
HETATM   13  C20 UNL     1      51.037  51.612  18.789  1.00  0.00     0.030 C 
HETATM   14  C21 UNL     1      50.943  53.108  19.049  1.00  0.00     0.011 C 
HETATM   15  C22 UNL     1      52.297  53.781  18.983  1.00  0.00     0.023 C 
HETATM   16  C23 UNL     1      50.182  53.450  20.286  1.00  0.00     0.017 C 
HETATM   17  C24 UNL     1      50.108  54.953  20.447  1.00  0.00     0.006 C 
HETATM   18  C25 UNL     1      49.585  55.641  19.236  1.00  0.00     0.039 C 
ENDROOT
BRANCH   1  19
HETATM   19  C8  UNL     1      48.786  55.298  16.877  1.00  0.00     0.217 C 
BRANCH  19  20
HETATM   20  O2  UNL     1      49.426  56.362  16.248  1.00  0.00    -0.300 OA
BRANCH  20  21
HETATM   21  C7  UNL     1      48.746  57.440  15.712  1.00  0.00     0.360 C 
HETATM   22  N2  UNL     1      47.662  58.049  16.390  1.00  0.00    -0.337 N 
ATOM     23  H2  UNL     1      47.386  57.683  17.302  1.00  0.00     0.164 HD
HETATM   24  O1  UNL     1      49.126  57.864  14.593  1.00  0.00    -0.239 OA
BRANCH  22  25
HETATM   25  C6  UNL     1      46.938  59.156  15.848  1.00  0.00     0.125 C 
BRANCH  25  26
HETATM   26  C5  UNL     1      46.573  60.132  16.925  1.00  0.00     0.021 C 
BRANCH  26  27
HETATM   27  C4  UNL     1      47.789  60.613  17.668  1.00  0.00     0.021 C 
BRANCH  27  28
HETATM   28  C3  UNL     1      47.756  60.295  19.127  1.00  0.00     0.113 C 
BRANCH  28  29
HETATM   29  N1  UNL     1      48.581  59.196  19.519  1.00  0.00    -0.421 N 
ATOM     30  H1  UNL     1      49.366  58.878  18.952  1.00  0.00     0.153 HD
BRANCH  29  31
HETATM   31  C2  UNL     1      48.238  58.573  20.754  1.00  0.00     0.109 C 
HETATM   32  C1  UNL     1      49.367  58.528  21.743  1.00  0.00     0.026 C 
ENDBRANCH  29  31
ENDBRANCH  28  29
ENDBRANCH  27  28
ENDBRANCH  26  27
ENDBRANCH  25  26
ENDBRANCH  22  25
ENDBRANCH  20  21
ENDBRANCH  19  20
ENDBRANCH   1  19
BRANCH  10  33
HETATM   33  O5  UNL     1      49.709  49.792  15.126  1.00  0.00    -0.393 OA
ATOM     34  H5  UNL     1      48.918  50.287  14.947  1.00  0.00     0.210 HD
ENDBRANCH  10  33
BRANCH   9  35
HETATM   35  O4  UNL     1      49.056  47.118  17.143  1.00  0.00    -0.393 OA
ATOM     36  H4  UNL     1      49.836  46.812  16.695  1.00  0.00     0.210 HD
ENDBRANCH   9  35
TORSDOF 11
ENDMDL
MODEL 5
REMARK VINA RESULT: -8.360669277      2.260      5.234
REMARK  11 active torsions:
REMARK  status: ('A' for Active; 'I' for Inactive)
REMARK    1  A    between atoms: C2_2  and  N1_3 
REMARK    2  A    between atoms: N1_3  and  C3_5 
REMARK    3  A    between atoms: C3_5  and  C4_6 
REMARK    4  A    between atoms: C4_6  and  C5_7 
REMARK    5  A    between atoms: C5_7  and  C6_8 
REMARK    6  A    between atoms: C6_8  and  N2_9 
REMARK       I    between atoms: N2_9  and  C7_11 
REMARK    7  A    between atoms: C7_11  and  O2_13 
REMARK    8  A    between atoms: O2_13  and  C8_14 
REMARK    9  A    between atoms: C8_14  and  C9_15 
REMARK   10  A    between atoms: C16_23  and  O4_24 
REMARK   11  A    between atoms: C17_26  and  O5_27 
ROOT
HETATM    1  C9  UNL     1      51.559  51.854  18.369  1.00  0.00    -0.026 C 
HETATM    2  C10 UNL     1      50.930  52.488  19.335  1.00  0.00     0.060 C 
HETATM    3  O3  UNL     1      49.980  53.515  19.379  1.00  0.00    -0.348 OA
HETATM    4  C11 UNL     1      50.134  54.230  20.615  1.00  0.00     0.140 C 
HETATM    5  C12 UNL     1      50.706  55.574  20.388  1.00  0.00     0.051 C 
HETATM    6  C13 UNL     1      52.058  55.770  21.030  1.00  0.00    -0.005 C 
HETATM    7  C14 UNL     1      52.635  57.115  20.860  1.00  0.00     0.008 C 
HETATM    8  C15 UNL     1      51.708  58.164  20.341  1.00  0.00     0.035 C 
HETATM    9  C16 UNL     1      50.352  58.014  20.938  1.00  0.00     0.147 C 
HETATM   10  C17 UNL     1      49.730  56.673  20.804  1.00  0.00     0.153 C 
HETATM   11  C18 UNL     1      51.868  55.338  22.485  1.00  0.00     0.005 C 
HETATM   12  C19 UNL     1      51.904  53.804  22.389  1.00  0.00     0.009 C 
HETATM   13  C20 UNL     1      50.800  53.306  21.552  1.00  0.00     0.030 C 
HETATM   14  C21 UNL     1      51.230  52.097  20.735  1.00  0.00     0.011 C 
HETATM   15  C22 UNL     1      50.375  50.883  21.028  1.00  0.00     0.023 C 
HETATM   16  C23 UNL     1      52.692  51.814  20.818  1.00  0.00     0.017 C 
HETATM   17  C24 UNL     1      53.035  50.621  19.951  1.00  0.00     0.006 C 
HETATM   18  C25 UNL     1      52.550  50.762  18.552  1.00  0.00     0.039 C 
ENDROOT
BRANCH   1  19
HETATM   19  C8  UNL     1      51.264  52.239  16.975  1.00  0.00     0.217 C 
BRANCH  19  20
HETATM   20  O2  UNL     1      51.688  51.277  16.063  1.00  0.00    -0.300 OA
BRANCH  20  21
HETATM   21  C7  UNL     1      50.822  50.402  15.433  1.00  0.00     0.360 C 
HETATM   22  N2  UNL     1      49.890  49.623  16.161  1.00  0.00    -0.337 N 
ATOM     23  H2  UNL     1      49.856  49.721  17.176  1.00  0.00     0.164 HD
HETATM   24  O1  UNL     1      50.892  50.322  14.182  1.00  0.00    -0.239 OA
BRANCH  22  25
HETATM   25  C6  UNL     1      48.995  48.704  15.530  1.00  0.00     0.125 C 
BRANCH  25  26
HETATM   26  C5  UNL     1      47.710  49.380  15.161  1.00  0.00     0.021 C 
BRANCH  26  27
HETATM   27  C4  UNL     1      46.601  48.383  14.962  1.00  0.00     0.021 C 
BRANCH  27  28
HETATM   28  C3  UNL     1      45.591  48.393  16.062  1.00  0.00     0.113 C 
BRANCH  28  29
HETATM   29  N1  UNL     1      45.907  47.553  17.174  1.00  0.00    -0.421 N 
ATOM     30  H1  UNL     1      46.162  46.573  17.058  1.00  0.00     0.153 HD
BRANCH  29  31
HETATM   31  C2  UNL     1      45.845  48.174  18.456  1.00  0.00     0.109 C 
HETATM   32  C1  UNL     1      46.984  49.114  18.729  1.00  0.00     0.026 C 
ENDBRANCH  29  31
ENDBRANCH  28  29
ENDBRANCH  27  28
ENDBRANCH  26  27
ENDBRANCH  25  26
ENDBRANCH  22  25
ENDBRANCH  20  21
ENDBRANCH  19  20
ENDBRANCH   1  19
BRANCH  10  33
HETATM   33  O5  UNL     1      48.712  56.655  19.841  1.00  0.00    -0.393 OA
ATOM     34  H5  UNL     1      48.965  55.987  19.215  1.00  0.00     0.210 HD
ENDBRANCH  10  33
BRANCH   9  35
HETATM   35  O4  UNL     1      50.337  58.416  22.271  1.00  0.00    -0.393 OA
ATOM     36  H4  UNL     1      49.704  59.108  22.417  1.00  0.00     0.210 HD
ENDBRANCH   9  35
TORSDOF 11
ENDMDL
