MODEL 1
REMARK VINA RESULT: -9.618819511      0.000      0.000
REMARK  9 active torsions:
REMARK  status: ('A' for Active; 'I' for Inactive)
REMARK    1  A    between atoms: N5_15  and  C6_16 
REMARK    2  A    between atoms: C6_16  and  C7_17 
REMARK    3  A    between atoms: C7_17  and  O1_18 
REMARK    4  A    between atoms: C7_17  and  C8_20 
REMARK    5  A    between atoms: C8_20  and  N6_21 
REMARK    6  A    between atoms: C10_23  and  O2_24 
REMARK    7  A    between atoms: C11_26  and  N7_27 
REMARK       I    between atoms: N7_27  and  C12_29 
REMARK       I    between atoms: C12_29  and  N8_30 
REMARK       I    between atoms: C12_29  and  N9_34 
REMARK    8  A    between atoms: C13_40  and  N11_41 
REMARK    9  A    between atoms: N11_41  and  N12_43 
REMARK       I    between atoms: N12_43  and  C14_44 
ROOT
HETATM    1  N6  UNL     1       6.447   8.062  51.469  1.00  0.00    -0.186 N 
HETATM    2  C9  UNL     1       7.547   7.985  52.226  1.00  0.00     0.149 A 
HETATM    3  C10 UNL     1       7.552   7.423  53.483  1.00  0.00     0.126 A 
HETATM    4  C11 UNL     1       6.362   6.900  54.015  1.00  0.00     0.154 A 
HETATM    5  N10 UNL     1       5.281   6.999  53.217  1.00  0.00    -0.172 N 
ATOM      6  H10 UNL     1       4.397   6.630  53.567  1.00  0.00     0.186 HD
HETATM    7  C13 UNL     1       5.287   7.551  51.992  1.00  0.00     0.711 A 
ENDROOT
BRANCH   1   8
HETATM    8  C8  UNL     1       6.436   8.585  50.124  1.00  0.00     0.180 C 
BRANCH   8   9
HETATM    9  C7  UNL     1       6.434  10.025  49.929  1.00  0.00     0.155 C 
BRANCH   9  10
HETATM   10  C6  UNL     1       6.425  10.712  48.646  1.00  0.00     0.164 C 
BRANCH  10  11
HETATM   11  N5  UNL     1       5.314  10.540  47.771  1.00  0.00    -0.325 N 
HETATM   12  C3  UNL     1       5.311  10.392  46.449  1.00  0.00     0.140 A 
HETATM   13  N3  UNL     1       6.228  10.403  45.460  1.00  0.00    -0.336 N 
HETATM   14  C4  UNL     1       3.978  10.208  46.079  1.00  0.00     0.122 A 
HETATM   15  C2  UNL     1       5.961  10.251  44.166  1.00  0.00     0.183 A 
ATOM     16  H3  UNL     1       7.204  10.537  45.726  1.00  0.00     0.168 HD
HETATM   17  N2  UNL     1       4.690  10.073  43.803  1.00  0.00    -0.337 N 
HETATM   18  C1  UNL     1       3.698  10.050  44.742  1.00  0.00     0.131 A 
ATOM     19  H2  UNL     1       4.457   9.953  42.817  1.00  0.00     0.168 HD
HETATM   20  N1  UNL     1       2.482   9.875  44.353  1.00  0.00    -0.383 N 
ATOM     21  H12 UNL     1       2.275   9.758  43.361  1.00  0.00     0.157 HD
ATOM     22  H11 UNL     1       1.741   9.858  45.054  1.00  0.00     0.157 HD
HETATM   23  N4  UNL     1       3.209  10.248  47.180  1.00  0.00    -0.346 N 
HETATM   24  C5  UNL     1       4.020  10.452  48.222  1.00  0.00     0.185 A 
ATOM     25  H4  UNL     1       2.195  10.142  47.214  1.00  0.00     0.167 HD
ENDBRANCH  10  11
ENDBRANCH   9  10
BRANCH   9  26
HETATM   26  O1  UNL     1       5.501  10.638  50.832  1.00  0.00    -0.392 OA
ATOM     27  H1  UNL     1       4.918   9.984  51.200  1.00  0.00     0.210 HD
ENDBRANCH   9  26
ENDBRANCH   8   9
ENDBRANCH   1   8
BRANCH   7  28
HETATM   28  N11 UNL     1       4.215   7.613  51.256  1.00  0.00    -0.059 N 
ATOM     29  H11 UNL     1       4.120   6.885  50.548  1.00  0.00     0.221 HD
BRANCH  28  30
HETATM   30  N12 UNL     1       3.240   8.490  51.308  1.00  0.00    -0.241 NA
HETATM   31  C14 UNL     1       2.241   9.389  51.360  1.00  0.00     0.389 C 
HETATM   32  O3  UNL     1       1.229   9.518  50.638  1.00  0.00    -0.617 OA
HETATM   33  O4  UNL     1       2.285  10.393  52.395  1.00  0.00    -0.617 OA
ENDBRANCH  28  30
ENDBRANCH   7  28
BRANCH   3  34
HETATM   34  O2  UNL     1       8.709   7.358  54.248  1.00  0.00    -0.356 OA
ATOM     35  H2  UNL     1       8.796   7.836  55.064  1.00  0.00     0.218 HD
ENDBRANCH   3  34
BRANCH   4  36
HETATM   36  N7  UNL     1       6.365   6.348  55.162  1.00  0.00    -0.324 N 
HETATM   37  C12 UNL     1       6.056   6.866  56.439  1.00  0.00     0.481 C 
HETATM   38  N8  UNL     1       5.645   5.770  57.299  1.00  0.00    -0.033 N 
HETATM   39  N9  UNL     1       7.126   7.640  57.035  1.00  0.00    -0.033 N 
ATOM     40  H83 UNL     1       4.878   5.229  56.901  1.00  0.00     0.278 HD
ATOM     41  H82 UNL     1       6.340   5.023  57.339  1.00  0.00     0.278 HD
ATOM     42  H81 UNL     1       5.422   6.145  58.221  1.00  0.00     0.278 HD
ATOM     43  H93 UNL     1       7.987   7.094  57.068  1.00  0.00     0.278 HD
ATOM     44  H92 UNL     1       7.420   8.388  56.406  1.00  0.00     0.278 HD
ATOM     45  H91 UNL     1       6.903   8.015  57.957  1.00  0.00     0.278 HD
ATOM     46  H7  UNL     1       6.638   5.365  55.158  1.00  0.00     0.165 HD
ENDBRANCH   4  36
TORSDOF 9
ENDMDL
MODEL 2
REMARK VINA RESULT: -9.465959520      1.288      1.824
REMARK  9 active torsions:
REMARK  status: ('A' for Active; 'I' for Inactive)
REMARK    1  A    between atoms: N5_15  and  C6_16 
REMARK    2  A    between atoms: C6_16  and  C7_17 
REMARK    3  A    between atoms: C7_17  and  O1_18 
REMARK    4  A    between atoms: C7_17  and  C8_20 
REMARK    5  A    between atoms: C8_20  and  N6_21 
REMARK    6  A    between atoms: C10_23  and  O2_24 
REMARK    7  A    between atoms: C11_26  and  N7_27 
REMARK       I    between atoms: N7_27  and  C12_29 
REMARK       I    between atoms: C12_29  and  N8_30 
REMARK       I    between atoms: C12_29  and  N9_34 
REMARK    8  A    between atoms: C13_40  and  N11_41 
REMARK    9  A    between atoms: N11_41  and  N12_43 
REMARK       I    between atoms: N12_43  and  C14_44 
ROOT
HETATM    1  N6  UNL     1       6.124   8.239  50.760  1.00  0.00    -0.186 N 
HETATM    2  C9  UNL     1       7.267   8.295  51.453  1.00  0.00     0.149 A 
HETATM    3  C10 UNL     1       7.417   7.719  52.695  1.00  0.00     0.126 A 
HETATM    4  C11 UNL     1       6.336   7.038  53.280  1.00  0.00     0.154 A 
HETATM    5  N10 UNL     1       5.207   7.009  52.545  1.00  0.00    -0.172 N 
ATOM      6  H10 UNL     1       4.399   6.523  52.935  1.00  0.00     0.186 HD
HETATM    7  C13 UNL     1       5.072   7.574  51.334  1.00  0.00     0.711 A 
ENDROOT
BRANCH   1   8
HETATM    8  C8  UNL     1       5.969   8.776  49.428  1.00  0.00     0.180 C 
BRANCH   8   9
HETATM    9  C7  UNL     1       5.764  10.206  49.267  1.00  0.00     0.155 C 
BRANCH   9  10
HETATM   10  C6  UNL     1       6.121  10.991  48.094  1.00  0.00     0.164 C 
BRANCH  10  11
HETATM   11  N5  UNL     1       5.326  10.887  46.917  1.00  0.00    -0.325 N 
HETATM   12  C3  UNL     1       4.206  11.535  46.609  1.00  0.00     0.140 A 
HETATM   13  N3  UNL     1       3.386  12.418  47.217  1.00  0.00    -0.336 N 
HETATM   14  C4  UNL     1       3.851  11.117  45.326  1.00  0.00     0.122 A 
HETATM   15  C2  UNL     1       2.272  12.917  46.689  1.00  0.00     0.183 A 
ATOM     16  H3  UNL     1       3.641  12.727  48.155  1.00  0.00     0.168 HD
HETATM   17  N2  UNL     1       1.926  12.524  45.462  1.00  0.00    -0.337 N 
HETATM   18  C1  UNL     1       2.701  11.632  44.776  1.00  0.00     0.131 A 
ATOM     19  H2  UNL     1       1.078  12.893  45.033  1.00  0.00     0.168 HD
HETATM   20  N1  UNL     1       2.334  11.277  43.594  1.00  0.00    -0.383 N 
ATOM     21  H12 UNL     1       1.481  11.659  43.186  1.00  0.00     0.157 HD
ATOM     22  H11 UNL     1       2.912  10.611  43.081  1.00  0.00     0.157 HD
HETATM   23  N4  UNL     1       4.761  10.230  44.888  1.00  0.00    -0.346 N 
HETATM   24  C5  UNL     1       5.668  10.082  45.858  1.00  0.00     0.185 A 
ATOM     25  H4  UNL     1       4.759   9.758  43.985  1.00  0.00     0.167 HD
ENDBRANCH  10  11
ENDBRANCH   9  10
BRANCH   9  26
HETATM   26  O1  UNL     1       4.454  10.567  49.732  1.00  0.00    -0.392 OA
ATOM     27  H1  UNL     1       4.481  11.401  50.186  1.00  0.00     0.210 HD
ENDBRANCH   9  26
ENDBRANCH   8   9
ENDBRANCH   1   8
BRANCH   7  28
HETATM   28  N11 UNL     1       3.960   7.508  50.660  1.00  0.00    -0.059 N 
ATOM     29  H11 UNL     1       3.896   6.748  49.983  1.00  0.00     0.221 HD
BRANCH  28  30
HETATM   30  N12 UNL     1       2.911   8.293  50.738  1.00  0.00    -0.241 NA
HETATM   31  C14 UNL     1       1.835   9.096  50.819  1.00  0.00     0.389 C 
HETATM   32  O3  UNL     1       0.745   9.052  50.210  1.00  0.00    -0.617 OA
HETATM   33  O4  UNL     1       1.885  10.207  51.738  1.00  0.00    -0.617 OA
ENDBRANCH  28  30
ENDBRANCH   7  28
BRANCH   3  34
HETATM   34  O2  UNL     1       8.614   7.793  53.393  1.00  0.00    -0.356 OA
ATOM     35  H2  UNL     1       8.642   7.762  54.342  1.00  0.00     0.218 HD
ENDBRANCH   3  34
BRANCH   4  36
HETATM   36  N7  UNL     1       6.476   6.474  54.412  1.00  0.00    -0.324 N 
HETATM   37  C12 UNL     1       6.137   6.911  55.712  1.00  0.00     0.481 C 
HETATM   38  N8  UNL     1       5.947   5.747  56.560  1.00  0.00    -0.033 N 
HETATM   39  N9  UNL     1       7.087   7.841  56.286  1.00  0.00    -0.033 N 
ATOM     40  H83 UNL     1       5.265   5.094  56.177  1.00  0.00     0.278 HD
ATOM     41  H82 UNL     1       6.757   5.125  56.556  1.00  0.00     0.278 HD
ATOM     42  H81 UNL     1       5.702   6.063  57.498  1.00  0.00     0.278 HD
ATOM     43  H93 UNL     1       8.027   7.446  56.275  1.00  0.00     0.278 HD
ATOM     44  H92 UNL     1       7.228   8.638  55.666  1.00  0.00     0.278 HD
ATOM     45  H91 UNL     1       6.842   8.157  57.225  1.00  0.00     0.278 HD
ATOM     46  H7  UNL     1       6.907   5.550  54.374  1.00  0.00     0.165 HD
ENDBRANCH   4  36
TORSDOF 9
ENDMDL
MODEL 3
REMARK VINA RESULT: -9.245750018      2.379      4.291
REMARK  9 active torsions:
REMARK  status: ('A' for Active; 'I' for Inactive)
REMARK    1  A    between atoms: N5_15  and  C6_16 
REMARK    2  A    between atoms: C6_16  and  C7_17 
REMARK    3  A    between atoms: C7_17  and  O1_18 
REMARK    4  A    between atoms: C7_17  and  C8_20 
REMARK    5  A    between atoms: C8_20  and  N6_21 
REMARK    6  A    between atoms: C10_23  and  O2_24 
REMARK    7  A    between atoms: C11_26  and  N7_27 
REMARK       I    between atoms: N7_27  and  C12_29 
REMARK       I    between atoms: C12_29  and  N8_30 
REMARK       I    between atoms: C12_29  and  N9_34 
REMARK    8  A    between atoms: C13_40  and  N11_41 
REMARK    9  A    between atoms: N11_41  and  N12_43 
REMARK       I    between atoms: N12_43  and  C14_44 
ROOT
HETATM    1  N6  UNL     1       3.962   9.158  49.591  1.00  0.00    -0.186 N 
HETATM    2  C9  UNL     1       3.010   8.733  50.429  1.00  0.00     0.149 A 
HETATM    3  C10 UNL     1       3.286   8.020  51.574  1.00  0.00     0.126 A 
HETATM    4  C11 UNL     1       4.618   7.713  51.897  1.00  0.00     0.154 A 
HETATM    5  N10 UNL     1       5.541   8.161  51.024  1.00  0.00    -0.172 N 
ATOM      6  H10 UNL     1       6.521   7.959  51.223  1.00  0.00     0.186 HD
HETATM    7  C13 UNL     1       5.260   8.856  49.909  1.00  0.00     0.711 A 
ENDROOT
BRANCH   1   8
HETATM    8  C8  UNL     1       3.698   9.965  48.423  1.00  0.00     0.180 C 
BRANCH   8   9
HETATM    9  C7  UNL     1       3.743   9.339  47.112  1.00  0.00     0.155 C 
BRANCH   9  10
HETATM   10  C6  UNL     1       4.623   9.719  46.016  1.00  0.00     0.164 C 
BRANCH  10  11
HETATM   11  N5  UNL     1       4.144  10.609  45.013  1.00  0.00    -0.325 N 
HETATM   12  C3  UNL     1       3.462  11.742  45.162  1.00  0.00     0.140 A 
HETATM   13  N3  UNL     1       2.928  12.436  46.188  1.00  0.00    -0.336 N 
HETATM   14  C4  UNL     1       3.280  12.262  43.880  1.00  0.00     0.122 A 
HETATM   15  C2  UNL     1       2.246  13.572  46.071  1.00  0.00     0.183 A 
ATOM     16  H3  UNL     1       3.058  12.061  47.127  1.00  0.00     0.168 HD
HETATM   17  N2  UNL     1       2.069  14.077  44.850  1.00  0.00    -0.337 N 
HETATM   18  C1  UNL     1       2.576  13.436  43.755  1.00  0.00     0.131 A 
ATOM     19  H2  UNL     1       1.551  14.948  44.732  1.00  0.00     0.168 HD
HETATM   20  N1  UNL     1       2.385  13.954  42.591  1.00  0.00    -0.383 N 
ATOM     21  H12 UNL     1       1.863  14.825  42.499  1.00  0.00     0.157 HD
ATOM     22  H11 UNL     1       2.764  13.476  41.774  1.00  0.00     0.157 HD
HETATM   23  N4  UNL     1       3.854  11.436  42.988  1.00  0.00    -0.346 N 
HETATM   24  C5  UNL     1       4.384  10.419  43.675  1.00  0.00     0.185 A 
ATOM     25  H4  UNL     1       3.879  11.561  41.977  1.00  0.00     0.167 HD
ENDBRANCH  10  11
ENDBRANCH   9  10
BRANCH   9  26
HETATM   26  O1  UNL     1       3.705   7.911  47.251  1.00  0.00    -0.392 OA
ATOM     27  H1  UNL     1       2.806   7.609  47.323  1.00  0.00     0.210 HD
ENDBRANCH   9  26
ENDBRANCH   8   9
ENDBRANCH   1   8
BRANCH   7  28
HETATM   28  N11 UNL     1       6.193   9.275  49.102  1.00  0.00    -0.059 N 
ATOM     29  H11 UNL     1       6.717   8.548  48.615  1.00  0.00     0.221 HD
BRANCH  28  30
HETATM   30  N12 UNL     1       6.546  10.511  48.835  1.00  0.00    -0.241 NA
HETATM   31  C14 UNL     1       6.907  11.776  48.562  1.00  0.00     0.389 C 
HETATM   32  O3  UNL     1       7.942  12.407  48.870  1.00  0.00    -0.617 OA
HETATM   33  O4  UNL     1       6.000  12.591  47.791  1.00  0.00    -0.617 OA
ENDBRANCH  28  30
ENDBRANCH   7  28
BRANCH   3  34
HETATM   34  O2  UNL     1       2.277   7.590  52.426  1.00  0.00    -0.356 OA
ATOM     35  H2  UNL     1       1.993   8.113  53.167  1.00  0.00     0.218 HD
ENDBRANCH   3  34
BRANCH   4  36
HETATM   36  N7  UNL     1       4.884   7.084  52.971  1.00  0.00    -0.324 N 
HETATM   37  C12 UNL     1       6.032   7.104  53.795  1.00  0.00     0.481 C 
HETATM   38  N8  UNL     1       5.647   6.707  55.138  1.00  0.00    -0.033 N 
HETATM   39  N9  UNL     1       7.129   6.302  53.295  1.00  0.00    -0.033 N 
ATOM     40  H83 UNL     1       4.889   7.277  55.511  1.00  0.00     0.278 HD
ATOM     41  H82 UNL     1       5.169   5.806  55.157  1.00  0.00     0.278 HD
ATOM     42  H81 UNL     1       6.476   6.722  55.733  1.00  0.00     0.278 HD
ATOM     43  H93 UNL     1       6.824   5.343  53.127  1.00  0.00     0.278 HD
ATOM     44  H92 UNL     1       7.368   6.576  52.342  1.00  0.00     0.278 HD
ATOM     45  H91 UNL     1       7.958   6.316  53.889  1.00  0.00     0.278 HD
ATOM     46  H7  UNL     1       4.143   6.460  53.291  1.00  0.00     0.165 HD
ENDBRANCH   4  36
TORSDOF 9
ENDMDL
MODEL 4
REMARK VINA RESULT: -9.233399001      1.559      2.172
REMARK  9 active torsions:
REMARK  status: ('A' for Active; 'I' for Inactive)
REMARK    1  A    between atoms: N5_15  and  C6_16 
REMARK    2  A    between atoms: C6_16  and  C7_17 
REMARK    3  A    between atoms: C7_17  and  O1_18 
REMARK    4  A    between atoms: C7_17  and  C8_20 
REMARK    5  A    between atoms: C8_20  and  N6_21 
REMARK    6  A    between atoms: C10_23  and  O2_24 
REMARK    7  A    between atoms: C11_26  and  N7_27 
REMARK       I    between atoms: N7_27  and  C12_29 
REMARK       I    between atoms: C12_29  and  N8_30 
REMARK       I    between atoms: C12_29  and  N9_34 
REMARK    8  A    between atoms: C13_40  and  N11_41 
REMARK    9  A    between atoms: N11_41  and  N12_43 
REMARK       I    between atoms: N12_43  and  C14_44 
ROOT
HETATM    1  N6  UNL     1       5.829   9.025  50.515  1.00  0.00    -0.186 N 
HETATM    2  C9  UNL     1       6.936   8.300  50.709  1.00  0.00     0.149 A 
HETATM    3  C10 UNL     1       7.185   7.614  51.876  1.00  0.00     0.126 A 
HETATM    4  C11 UNL     1       6.251   7.664  52.925  1.00  0.00     0.154 A 
HETATM    5  N10 UNL     1       5.153   8.407  52.684  1.00  0.00    -0.172 N 
ATOM      6  H10 UNL     1       4.450   8.468  53.420  1.00  0.00     0.186 HD
HETATM    7  C13 UNL     1       4.920   9.072  51.540  1.00  0.00     0.711 A 
ENDROOT
BRANCH   1   8
HETATM    8  C8  UNL     1       5.517   9.694  49.274  1.00  0.00     0.180 C 
BRANCH   8   9
HETATM    9  C7  UNL     1       6.453  10.676  48.750  1.00  0.00     0.155 C 
BRANCH   9  10
HETATM   10  C6  UNL     1       6.218  11.555  47.614  1.00  0.00     0.164 C 
BRANCH  10  11
HETATM   11  N5  UNL     1       5.324  11.142  46.586  1.00  0.00    -0.325 N 
HETATM   12  C3  UNL     1       4.140  11.653  46.257  1.00  0.00     0.140 A 
HETATM   13  N3  UNL     1       3.327  12.622  46.727  1.00  0.00    -0.336 N 
HETATM   14  C4  UNL     1       3.693  10.927  45.152  1.00  0.00     0.122 A 
HETATM   15  C2  UNL     1       2.139  12.936  46.220  1.00  0.00     0.183 A 
ATOM     16  H3  UNL     1       3.650  13.155  47.534  1.00  0.00     0.168 HD
HETATM   17  N2  UNL     1       1.704  12.249  45.163  1.00  0.00    -0.337 N 
HETATM   18  C1  UNL     1       2.465  11.250  44.624  1.00  0.00     0.131 A 
ATOM     19  H2  UNL     1       0.796  12.471  44.753  1.00  0.00     0.168 HD
HETATM   20  N1  UNL     1       2.011  10.609  43.604  1.00  0.00    -0.383 N 
ATOM     21  H12 UNL     1       1.101  10.849  43.212  1.00  0.00     0.157 HD
ATOM     22  H11 UNL     1       2.579   9.864  43.201  1.00  0.00     0.157 HD
HETATM   23  N4  UNL     1       4.611   9.998  44.839  1.00  0.00    -0.346 N 
HETATM   24  C5  UNL     1       5.614  10.122  45.713  1.00  0.00     0.185 A 
ATOM     25  H4  UNL     1       4.554   9.324  44.076  1.00  0.00     0.167 HD
ENDBRANCH  10  11
ENDBRANCH   9  10
BRANCH   9  26
HETATM   26  O1  UNL     1       7.051  11.405  49.833  1.00  0.00    -0.392 OA
ATOM     27  H1  UNL     1       7.340  10.809  50.514  1.00  0.00     0.210 HD
ENDBRANCH   9  26
ENDBRANCH   8   9
ENDBRANCH   1   8
BRANCH   7  28
HETATM   28  N11 UNL     1       3.836   9.769  51.354  1.00  0.00    -0.059 N 
ATOM     29  H11 UNL     1       3.917  10.771  51.526  1.00  0.00     0.221 HD
BRANCH  28  30
HETATM   30  N12 UNL     1       2.652   9.349  50.974  1.00  0.00    -0.241 NA
HETATM   31  C14 UNL     1       1.438   8.919  50.585  1.00  0.00     0.389 C 
HETATM   32  O3  UNL     1       0.466   9.553  50.121  1.00  0.00    -0.617 OA
HETATM   33  O4  UNL     1       1.150   7.510  50.692  1.00  0.00    -0.617 OA
ENDBRANCH  28  30
ENDBRANCH   7  28
BRANCH   3  34
HETATM   34  O2  UNL     1       8.344   6.869  52.051  1.00  0.00    -0.356 OA
ATOM     35  H2  UNL     1       8.960   6.730  51.342  1.00  0.00     0.218 HD
ENDBRANCH   3  34
BRANCH   4  36
HETATM   36  N7  UNL     1       6.458   7.006  53.994  1.00  0.00    -0.324 N 
HETATM   37  C12 UNL     1       6.413   7.404  55.349  1.00  0.00     0.481 C 
HETATM   38  N8  UNL     1       6.143   6.236  56.169  1.00  0.00    -0.033 N 
HETATM   39  N9  UNL     1       7.599   8.107  55.795  1.00  0.00    -0.033 N 
ATOM     40  H83 UNL     1       5.299   5.743  55.879  1.00  0.00     0.278 HD
ATOM     41  H82 UNL     1       6.811   5.482  56.005  1.00  0.00     0.278 HD
ATOM     42  H81 UNL     1       6.111   6.524  57.147  1.00  0.00     0.278 HD
ATOM     43  H93 UNL     1       8.434   7.552  55.611  1.00  0.00     0.278 HD
ATOM     44  H92 UNL     1       7.788   8.908  55.192  1.00  0.00     0.278 HD
ATOM     45  H91 UNL     1       7.566   8.395  56.773  1.00  0.00     0.278 HD
ATOM     46  H7  UNL     1       6.696   6.025  53.848  1.00  0.00     0.165 HD
ENDBRANCH   4  36
TORSDOF 9
ENDMDL
MODEL 5
REMARK VINA RESULT: -9.212335164      1.649      1.953
REMARK  9 active torsions:
REMARK  status: ('A' for Active; 'I' for Inactive)
REMARK    1  A    between atoms: N5_15  and  C6_16 
REMARK    2  A    between atoms: C6_16  and  C7_17 
REMARK    3  A    between atoms: C7_17  and  O1_18 
REMARK    4  A    between atoms: C7_17  and  C8_20 
REMARK    5  A    between atoms: C8_20  and  N6_21 
REMARK    6  A    between atoms: C10_23  and  O2_24 
REMARK    7  A    between atoms: C11_26  and  N7_27 
REMARK       I    between atoms: N7_27  and  C12_29 
REMARK       I    between atoms: C12_29  and  N8_30 
REMARK       I    between atoms: C12_29  and  N9_34 
REMARK    8  A    between atoms: C13_40  and  N11_41 
REMARK    9  A    between atoms: N11_41  and  N12_43 
REMARK       I    between atoms: N12_43  and  C14_44 
ROOT
HETATM    1  N6  UNL     1       5.995   9.402  50.855  1.00  0.00    -0.186 N 
HETATM    2  C9  UNL     1       7.068   8.633  51.067  1.00  0.00     0.149 A 
HETATM    3  C10 UNL     1       7.174   7.777  52.140  1.00  0.00     0.126 A 
HETATM    4  C11 UNL     1       6.122   7.690  53.066  1.00  0.00     0.154 A 
HETATM    5  N10 UNL     1       5.063   8.483  52.812  1.00  0.00    -0.172 N 
ATOM      6  H10 UNL     1       4.277   8.450  53.461  1.00  0.00     0.186 HD
HETATM    7  C13 UNL     1       4.970   9.315  51.761  1.00  0.00     0.711 A 
ENDROOT
BRANCH   1   8
HETATM    8  C8  UNL     1       5.836  10.254  49.699  1.00  0.00     0.180 C 
BRANCH   8   9
HETATM    9  C7  UNL     1       5.406   9.661  48.444  1.00  0.00     0.155 C 
BRANCH   9  10
HETATM   10  C6  UNL     1       4.057   9.700  47.900  1.00  0.00     0.164 C 
BRANCH  10  11
HETATM   11  N5  UNL     1       3.741  10.647  46.885  1.00  0.00    -0.325 N 
HETATM   12  C3  UNL     1       3.902  10.542  45.568  1.00  0.00     0.140 A 
HETATM   13  N3  UNL     1       4.429   9.638  44.716  1.00  0.00    -0.336 N 
HETATM   14  C4  UNL     1       3.390  11.716  45.015  1.00  0.00     0.122 A 
HETATM   15  C2  UNL     1       4.496   9.781  43.395  1.00  0.00     0.183 A 
ATOM     16  H3  UNL     1       4.804   8.778  45.115  1.00  0.00     0.168 HD
HETATM   17  N2  UNL     1       4.007  10.899  42.857  1.00  0.00    -0.337 N 
HETATM   18  C1  UNL     1       3.457  11.866  43.650  1.00  0.00     0.131 A 
ATOM     19  H2  UNL     1       4.045  11.033  41.846  1.00  0.00     0.168 HD
HETATM   20  N1  UNL     1       2.995  12.932  43.094  1.00  0.00    -0.383 N 
ATOM     21  H12 UNL     1       3.044  13.044  42.081  1.00  0.00     0.157 HD
ATOM     22  H11 UNL     1       2.584  13.654  43.685  1.00  0.00     0.157 HD
HETATM   23  N4  UNL     1       2.932  12.501  46.004  1.00  0.00    -0.346 N 
HETATM   24  C5  UNL     1       3.144  11.855  47.154  1.00  0.00     0.185 A 
ATOM     25  H4  UNL     1       2.503  13.420  45.897  1.00  0.00     0.167 HD
ENDBRANCH  10  11
ENDBRANCH   9  10
BRANCH   9  26
HETATM   26  O1  UNL     1       6.369   9.944  47.416  1.00  0.00    -0.392 OA
ATOM     27  H1  UNL     1       6.699   9.137  47.039  1.00  0.00     0.210 HD
ENDBRANCH   9  26
ENDBRANCH   8   9
ENDBRANCH   1   8
BRANCH   7  28
HETATM   28  N11 UNL     1       3.918  10.054  51.555  1.00  0.00    -0.059 N 
ATOM     29  H11 UNL     1       4.032  11.051  51.742  1.00  0.00     0.221 HD
BRANCH  28  30
HETATM   30  N12 UNL     1       2.730   9.684  51.139  1.00  0.00    -0.241 NA
HETATM   31  C14 UNL     1       1.512   9.305  50.712  1.00  0.00     0.389 C 
HETATM   32  O3  UNL     1       0.639   9.943  50.085  1.00  0.00    -0.617 OA
HETATM   33  O4  UNL     1       1.085   7.955  50.988  1.00  0.00    -0.617 OA
ENDBRANCH  28  30
ENDBRANCH   7  28
BRANCH   3  34
HETATM   34  O2  UNL     1       8.301   6.990  52.336  1.00  0.00    -0.356 OA
ATOM     35  H2  UNL     1       8.425   6.171  51.872  1.00  0.00     0.218 HD
ENDBRANCH   3  34
BRANCH   4  36
HETATM   36  N7  UNL     1       6.197   6.877  54.042  1.00  0.00    -0.324 N 
HETATM   37  C12 UNL     1       6.246   7.105  55.436  1.00  0.00     0.481 C 
HETATM   38  N8  UNL     1       5.749   5.924  56.119  1.00  0.00    -0.033 N 
HETATM   39  N9  UNL     1       7.554   7.493  55.923  1.00  0.00    -0.033 N 
ATOM     40  H83 UNL     1       4.819   5.652  55.800  1.00  0.00     0.278 HD
ATOM     41  H82 UNL     1       6.245   5.076  55.844  1.00  0.00     0.278 HD
ATOM     42  H81 UNL     1       5.784   6.089  57.125  1.00  0.00     0.278 HD
ATOM     43  H93 UNL     1       8.256   6.806  55.647  1.00  0.00     0.278 HD
ATOM     44  H92 UNL     1       7.899   8.306  55.414  1.00  0.00     0.278 HD
ATOM     45  H91 UNL     1       7.589   7.658  56.929  1.00  0.00     0.278 HD
ATOM     46  H7  UNL     1       6.228   5.893  53.772  1.00  0.00     0.165 HD
ENDBRANCH   4  36
TORSDOF 9
ENDMDL
