MODEL 1
REMARK VINA RESULT: -9.752788770      0.000      0.000
REMARK  11 active torsions:
REMARK  status: ('A' for Active; 'I' for Inactive)
REMARK    1  A    between atoms: C2_2  and  C3_3 
REMARK    2  A    between atoms: C2_2  and  C8_21 
REMARK    3  A    between atoms: C3_3  and  O1_4 
REMARK    4  A    between atoms: O1_4  and  C4_5 
REMARK       I    between atoms: C4_5  and  N1_7 
REMARK    5  A    between atoms: N1_7  and  C5_9 
REMARK    6  A    between atoms: C6_15  and  C7_16 
REMARK    7  A    between atoms: C7_16  and  N4_17 
REMARK    8  A    between atoms: N4_17  and  N5_18 
REMARK    9  A    between atoms: C8_21  and  N6_22 
REMARK   10  A    between atoms: C9_26  and  C10_27 
REMARK   11  A    between atoms: C11_30  and  N10_31 
ROOT
HETATM    1  C8  UNL     1       2.691  10.264  49.696  1.00  0.00     0.173 C 
ENDROOT
BRANCH   1   2
HETATM    2  C2  UNL     1       2.606   9.074  50.624  1.00  0.00     0.027 C 
HETATM    3  C1  UNL     1       1.252   8.403  50.550  1.00  0.00     0.014 C 
BRANCH   2   4
HETATM    4  C3  UNL     1       2.763   9.591  52.032  1.00  0.00     0.186 C 
BRANCH   4   5
HETATM    5  O1  UNL     1       3.386  10.855  52.071  1.00  0.00    -0.303 OA
BRANCH   5   6
HETATM    6  C4  UNL     1       4.655  11.116  52.517  1.00  0.00     0.366 C 
HETATM    7  O2  UNL     1       4.921  12.258  52.969  1.00  0.00    -0.238 OA
HETATM    8  N1  UNL     1       5.712  10.160  52.502  1.00  0.00    -0.285 N 
ATOM      9  H1  UNL     1       6.127   9.817  53.368  1.00  0.00     0.172 HD
BRANCH   8  10
HETATM   10  C5  UNL     1       6.125   9.744  51.348  1.00  0.00     0.158 A 
HETATM   11  N2  UNL     1       6.603  10.504  50.350  1.00  0.00    -0.223 N 
HETATM   12  O3  UNL     1       6.901   9.706  49.382  1.00  0.00    -0.155 OA
ATOM     13  H2  UNL     1       6.711  11.519  50.357  1.00  0.00     0.198 HD
HETATM   14  N3  UNL     1       6.660   8.480  49.657  1.00  0.00    -0.241 N 
HETATM   15  C6  UNL     1       6.161   8.429  50.899  1.00  0.00     0.096 A 
ATOM     16  H3  UNL     1       6.818   7.683  49.040  1.00  0.00     0.196 HD
BRANCH  15  17
HETATM   17  C7  UNL     1       5.723   7.274  51.687  1.00  0.00     0.197 C 
BRANCH  17  18
HETATM   18  N4  UNL     1       6.840   6.541  52.257  1.00  0.00    -0.142 NA
BRANCH  18  19
HETATM   19  N5  UNL     1       6.809   6.530  53.634  1.00  0.00    -0.348 N 
ATOM     20  H52 UNL     1       6.130   7.062  54.179  1.00  0.00     0.172 HD
ATOM     21  H51 UNL     1       7.536   5.936  54.032  1.00  0.00     0.172 HD
ENDBRANCH  18  19
ENDBRANCH  17  18
ENDBRANCH  15  17
ENDBRANCH   8  10
ENDBRANCH   5   6
ENDBRANCH   4   5
ENDBRANCH   2   4
ENDBRANCH   1   2
BRANCH   1  22
HETATM   22  N6  UNL     1       3.207   9.857  48.379  1.00  0.00    -0.216 N 
HETATM   23  N7  UNL     1       3.894   8.760  48.100  1.00  0.00    -0.003 NA
HETATM   24  N8  UNL     1       4.191   8.724  46.813  1.00  0.00    -0.265 N 
HETATM   25  C9  UNL     1       3.677   9.843  46.232  1.00  0.00     0.164 A 
ATOM     26  H8  UNL     1       4.713   7.987  46.338  1.00  0.00     0.186 HD
HETATM   27  N13 UNL     1       3.082  10.505  47.238  1.00  0.00    -0.268 N 
ATOM     28  H13 UNL     1       2.596  11.396  47.133  1.00  0.00     0.190 HD
BRANCH  25  29
HETATM   29  C10 UNL     1       3.766  10.215  44.827  1.00  0.00     0.125 A 
HETATM   30  N9  UNL     1       4.174   9.358  43.882  1.00  0.00    -0.186 N 
HETATM   31  C11 UNL     1       4.248   9.734  42.577  1.00  0.00     0.679 A 
ATOM     32  H9  UNL     1       4.433   8.407  44.145  1.00  0.00     0.184 HD
HETATM   33  N11 UNL     1       3.921  10.970  42.168  1.00  0.00    -0.155 N 
HETATM   34  C12 UNL     1       3.507  11.864  43.080  1.00  0.00     0.286 A 
ATOM     35  H11 UNL     1       3.985  11.225  41.183  1.00  0.00     0.187 HD
HETATM   36  O4  UNL     1       3.197  13.026  42.714  1.00  0.00    -0.266 OA
HETATM   37  C13 UNL     1       3.428  11.484  44.428  1.00  0.00     0.145 A 
HETATM   38  N12 UNL     1       2.992  12.413  45.415  1.00  0.00    -0.094 NA
BRANCH  31  39
HETATM   39  N10 UNL     1       4.641   8.905  41.668  1.00  0.00    -0.234 N 
ATOM     40 2H10 UNL     1       5.619   8.614  41.702  1.00  0.00     0.174 HD
ATOM     41 1H10 UNL     1       3.996   8.563  40.955  1.00  0.00     0.174 HD
ENDBRANCH  31  39
ENDBRANCH  25  29
ENDBRANCH   1  22
TORSDOF 11
ENDMDL
MODEL 2
REMARK VINA RESULT: -9.740642973      2.278      3.883
REMARK  11 active torsions:
REMARK  status: ('A' for Active; 'I' for Inactive)
REMARK    1  A    between atoms: C2_2  and  C3_3 
REMARK    2  A    between atoms: C2_2  and  C8_21 
REMARK    3  A    between atoms: C3_3  and  O1_4 
REMARK    4  A    between atoms: O1_4  and  C4_5 
REMARK       I    between atoms: C4_5  and  N1_7 
REMARK    5  A    between atoms: N1_7  and  C5_9 
REMARK    6  A    between atoms: C6_15  and  C7_16 
REMARK    7  A    between atoms: C7_16  and  N4_17 
REMARK    8  A    between atoms: N4_17  and  N5_18 
REMARK    9  A    between atoms: C8_21  and  N6_22 
REMARK   10  A    between atoms: C9_26  and  C10_27 
REMARK   11  A    between atoms: C11_30  and  N10_31 
ROOT
HETATM    1  C8  UNL     1       6.792  10.111  51.007  1.00  0.00     0.173 C 
ENDROOT
BRANCH   1   2
HETATM    2  C2  UNL     1       5.494   9.687  51.654  1.00  0.00     0.027 C 
HETATM    3  C1  UNL     1       4.708  10.875  52.162  1.00  0.00     0.014 C 
BRANCH   2   4
HETATM    4  C3  UNL     1       5.844   8.847  52.856  1.00  0.00     0.186 C 
BRANCH   4   5
HETATM    5  O1  UNL     1       5.198   7.593  52.838  1.00  0.00    -0.303 OA
BRANCH   5   6
HETATM    6  C4  UNL     1       4.846   6.882  51.722  1.00  0.00     0.366 C 
HETATM    7  O2  UNL     1       5.749   6.430  50.974  1.00  0.00    -0.238 OA
HETATM    8  N1  UNL     1       3.497   6.616  51.346  1.00  0.00    -0.285 N 
ATOM      9  H1  UNL     1       3.130   5.665  51.330  1.00  0.00     0.172 HD
BRANCH   8  10
HETATM   10  C5  UNL     1       2.756   7.628  51.025  1.00  0.00     0.158 A 
HETATM   11  N2  UNL     1       1.900   8.278  51.831  1.00  0.00    -0.223 N 
HETATM   12  O3  UNL     1       1.365   9.216  51.127  1.00  0.00    -0.155 OA
ATOM     13  H2  UNL     1       1.711   8.069  52.811  1.00  0.00     0.198 HD
HETATM   14  N3  UNL     1       1.795   9.242  49.923  1.00  0.00    -0.241 N 
HETATM   15  C6  UNL     1       2.689   8.254  49.786  1.00  0.00     0.096 A 
ATOM     16  H3  UNL     1       1.509   9.899  49.196  1.00  0.00     0.196 HD
BRANCH  15  17
HETATM   17  C7  UNL     1       3.470   7.852  48.613  1.00  0.00     0.197 C 
BRANCH  17  18
HETATM   18  N4  UNL     1       3.363   6.429  48.342  1.00  0.00    -0.142 NA
BRANCH  18  19
HETATM   19  N5  UNL     1       4.597   5.823  48.241  1.00  0.00    -0.348 N 
ATOM     20  H52 UNL     1       5.293   6.093  47.546  1.00  0.00     0.172 HD
ATOM     21  H51 UNL     1       4.723   5.086  48.934  1.00  0.00     0.172 HD
ENDBRANCH  18  19
ENDBRANCH  17  18
ENDBRANCH  15  17
ENDBRANCH   8  10
ENDBRANCH   5   6
ENDBRANCH   4   5
ENDBRANCH   2   4
ENDBRANCH   1   2
BRANCH   1  22
HETATM   22  N6  UNL     1       6.542  10.693  49.679  1.00  0.00    -0.216 N 
HETATM   23  N7  UNL     1       7.148  11.742  49.145  1.00  0.00    -0.003 NA
HETATM   24  N8  UNL     1       6.668  11.979  47.937  1.00  0.00    -0.265 N 
HETATM   25  C9  UNL     1       5.712  11.046  47.674  1.00  0.00     0.164 A 
ATOM     26  H8  UNL     1       6.963  12.729  47.311  1.00  0.00     0.186 HD
HETATM   27  N13 UNL     1       5.674  10.280  48.777  1.00  0.00    -0.268 N 
ATOM     28  H13 UNL     1       5.053   9.480  48.901  1.00  0.00     0.190 HD
BRANCH  25  29
HETATM   29  C10 UNL     1       4.920  10.928  46.458  1.00  0.00     0.125 A 
HETATM   30  N9  UNL     1       5.285  10.139  45.439  1.00  0.00    -0.186 N 
HETATM   31  C11 UNL     1       4.525  10.049  44.314  1.00  0.00     0.679 A 
ATOM     32  H9  UNL     1       6.147   9.597  45.506  1.00  0.00     0.184 HD
HETATM   33  N11 UNL     1       3.382  10.735  44.165  1.00  0.00    -0.155 N 
HETATM   34  C12 UNL     1       2.976  11.539  45.161  1.00  0.00     0.286 A 
ATOM     35  H11 UNL     1       2.831  10.647  43.311  1.00  0.00     0.187 HD
HETATM   36  O4  UNL     1       1.908  12.189  45.038  1.00  0.00    -0.266 OA
HETATM   37  C13 UNL     1       3.753  11.639  46.324  1.00  0.00     0.145 A 
HETATM   38  N12 UNL     1       3.346  12.484  47.394  1.00  0.00    -0.094 NA
BRANCH  31  39
HETATM   39  N10 UNL     1       4.879   9.287  43.333  1.00  0.00    -0.234 N 
ATOM     40 2H10 UNL     1       4.887   8.282  43.510  1.00  0.00     0.174 HD
ATOM     41 1H10 UNL     1       5.137   9.682  42.428  1.00  0.00     0.174 HD
ENDBRANCH  31  39
ENDBRANCH  25  29
ENDBRANCH   1  22
TORSDOF 11
ENDMDL
MODEL 3
REMARK VINA RESULT: -9.688035735      2.292      3.810
REMARK  11 active torsions:
REMARK  status: ('A' for Active; 'I' for Inactive)
REMARK    1  A    between atoms: C2_2  and  C3_3 
REMARK    2  A    between atoms: C2_2  and  C8_21 
REMARK    3  A    between atoms: C3_3  and  O1_4 
REMARK    4  A    between atoms: O1_4  and  C4_5 
REMARK       I    between atoms: C4_5  and  N1_7 
REMARK    5  A    between atoms: N1_7  and  C5_9 
REMARK    6  A    between atoms: C6_15  and  C7_16 
REMARK    7  A    between atoms: C7_16  and  N4_17 
REMARK    8  A    between atoms: N4_17  and  N5_18 
REMARK    9  A    between atoms: C8_21  and  N6_22 
REMARK   10  A    between atoms: C9_26  and  C10_27 
REMARK   11  A    between atoms: C11_30  and  N10_31 
ROOT
HETATM    1  C8  UNL     1       5.645   9.202  48.556  1.00  0.00     0.173 C 
ENDROOT
BRANCH   1   2
HETATM    2  C2  UNL     1       5.774  10.348  49.532  1.00  0.00     0.027 C 
HETATM    3  C1  UNL     1       6.835  11.336  49.098  1.00  0.00     0.014 C 
BRANCH   2   4
HETATM    4  C3  UNL     1       6.229   9.767  50.848  1.00  0.00     0.186 C 
BRANCH   4   5
HETATM    5  O1  UNL     1       6.561   8.401  50.743  1.00  0.00    -0.303 OA
BRANCH   5   6
HETATM    6  C4  UNL     1       6.008   7.377  51.466  1.00  0.00     0.366 C 
HETATM    7  O2  UNL     1       6.766   6.555  52.041  1.00  0.00    -0.238 OA
HETATM    8  N1  UNL     1       4.605   7.180  51.614  1.00  0.00    -0.285 N 
ATOM      9  H1  UNL     1       4.151   7.263  52.523  1.00  0.00     0.172 HD
BRANCH   8  10
HETATM   10  C5  UNL     1       3.927   6.890  50.549  1.00  0.00     0.158 A 
HETATM   11  N2  UNL     1       4.324   6.094  49.543  1.00  0.00    -0.223 N 
HETATM   12  O3  UNL     1       3.362   6.071  48.685  1.00  0.00    -0.155 OA
ATOM     13  H2  UNL     1       5.215   5.603  49.472  1.00  0.00     0.198 HD
HETATM   14  N3  UNL     1       2.361   6.784  49.039  1.00  0.00    -0.241 N 
HETATM   15  C6  UNL     1       2.653   7.339  50.223  1.00  0.00     0.096 A 
ATOM     16  H3  UNL     1       1.495   6.910  48.514  1.00  0.00     0.196 HD
BRANCH  15  17
HETATM   17  C7  UNL     1       1.853   8.238  51.060  1.00  0.00     0.197 C 
BRANCH  17  18
HETATM   18  N4  UNL     1       1.184   9.265  50.281  1.00  0.00    -0.142 NA
BRANCH  18  19
HETATM   19  N5  UNL     1       2.075  10.086  49.625  1.00  0.00    -0.348 N 
ATOM     20  H52 UNL     1       3.086   9.980  49.699  1.00  0.00     0.172 HD
ATOM     21  H51 UNL     1       1.604  10.799  49.068  1.00  0.00     0.172 HD
ENDBRANCH  18  19
ENDBRANCH  17  18
ENDBRANCH  15  17
ENDBRANCH   8  10
ENDBRANCH   5   6
ENDBRANCH   4   5
ENDBRANCH   2   4
ENDBRANCH   1   2
BRANCH   1  22
HETATM   22  N6  UNL     1       4.700   9.544  47.480  1.00  0.00    -0.216 N 
HETATM   23  N7  UNL     1       3.637   8.850  47.107  1.00  0.00    -0.003 NA
HETATM   24  N8  UNL     1       3.023   9.460  46.108  1.00  0.00    -0.265 N 
HETATM   25  C9  UNL     1       3.716  10.595  45.820  1.00  0.00     0.164 A 
ATOM     26  H8  UNL     1       2.178   9.136  45.636  1.00  0.00     0.186 HD
HETATM   27  N13 UNL     1       4.738  10.600  46.692  1.00  0.00    -0.268 N 
ATOM     28  H13 UNL     1       5.451  11.328  46.738  1.00  0.00     0.190 HD
BRANCH  25  29
HETATM   29  C10 UNL     1       3.398  11.572  44.788  1.00  0.00     0.125 A 
HETATM   30  N9  UNL     1       3.819  11.442  43.522  1.00  0.00    -0.186 N 
HETATM   31  C11 UNL     1       3.506  12.371  42.580  1.00  0.00     0.679 A 
ATOM     32  H9  UNL     1       4.382  10.633  43.261  1.00  0.00     0.184 HD
HETATM   33  N11 UNL     1       2.769  13.456  42.860  1.00  0.00    -0.155 N 
HETATM   34  C12 UNL     1       2.325  13.629  44.115  1.00  0.00     0.286 A 
ATOM     35  H11 UNL     1       2.549  14.137  42.132  1.00  0.00     0.187 HD
HETATM   36  O4  UNL     1       1.632  14.640  44.395  1.00  0.00    -0.266 OA
HETATM   37  C13 UNL     1       2.642  12.676  45.094  1.00  0.00     0.145 A 
HETATM   38  N12 UNL     1       2.183  12.836  46.432  1.00  0.00    -0.094 NA
BRANCH  31  39
HETATM   39  N10 UNL     1       3.914  12.243  41.360  1.00  0.00    -0.234 N 
ATOM     40 2H10 UNL     1       4.665  12.864  41.058  1.00  0.00     0.174 HD
ATOM     41 1H10 UNL     1       3.497  11.550  40.738  1.00  0.00     0.174 HD
ENDBRANCH  31  39
ENDBRANCH  25  29
ENDBRANCH   1  22
TORSDOF 11
ENDMDL
MODEL 4
REMARK VINA RESULT: -9.598388259      2.212      4.107
REMARK  11 active torsions:
REMARK  status: ('A' for Active; 'I' for Inactive)
REMARK    1  A    between atoms: C2_2  and  C3_3 
REMARK    2  A    between atoms: C2_2  and  C8_21 
REMARK    3  A    between atoms: C3_3  and  O1_4 
REMARK    4  A    between atoms: O1_4  and  C4_5 
REMARK       I    between atoms: C4_5  and  N1_7 
REMARK    5  A    between atoms: N1_7  and  C5_9 
REMARK    6  A    between atoms: C6_15  and  C7_16 
REMARK    7  A    between atoms: C7_16  and  N4_17 
REMARK    8  A    between atoms: N4_17  and  N5_18 
REMARK    9  A    between atoms: C8_21  and  N6_22 
REMARK   10  A    between atoms: C9_26  and  C10_27 
REMARK   11  A    between atoms: C11_30  and  N10_31 
ROOT
HETATM    1  C8  UNL     1       5.363   9.405  48.130  1.00  0.00     0.173 C 
ENDROOT
BRANCH   1   2
HETATM    2  C2  UNL     1       5.520  10.529  49.127  1.00  0.00     0.027 C 
HETATM    3  C1  UNL     1       6.816  11.281  48.922  1.00  0.00     0.014 C 
BRANCH   2   4
HETATM    4  C3  UNL     1       5.588   9.906  50.499  1.00  0.00     0.186 C 
BRANCH   4   5
HETATM    5  O1  UNL     1       6.495   8.828  50.552  1.00  0.00    -0.303 OA
BRANCH   5   6
HETATM    6  C4  UNL     1       6.249   7.592  51.088  1.00  0.00     0.366 C 
HETATM    7  O2  UNL     1       7.218   6.877  51.449  1.00  0.00    -0.238 OA
HETATM    8  N1  UNL     1       4.942   7.053  51.268  1.00  0.00    -0.285 N 
ATOM      9  H1  UNL     1       4.570   6.864  52.199  1.00  0.00     0.172 HD
BRANCH   8  10
HETATM   10  C5  UNL     1       4.244   6.811  50.205  1.00  0.00     0.158 A 
HETATM   11  N2  UNL     1       4.652   6.135  49.119  1.00  0.00    -0.223 N 
HETATM   12  O3  UNL     1       3.661   6.120  48.294  1.00  0.00    -0.155 OA
ATOM     13  H2  UNL     1       5.570   5.714  48.975  1.00  0.00     0.198 HD
HETATM   14  N3  UNL     1       2.630   6.730  48.744  1.00  0.00    -0.241 N 
HETATM   15  C6  UNL     1       2.931   7.198  49.963  1.00  0.00     0.096 A 
ATOM     16  H3  UNL     1       1.738   6.841  48.261  1.00  0.00     0.196 HD
BRANCH  15  17
HETATM   17  C7  UNL     1       2.108   7.964  50.903  1.00  0.00     0.197 C 
BRANCH  17  18
HETATM   18  N4  UNL     1       1.278   8.949  50.231  1.00  0.00    -0.142 NA
BRANCH  18  19
HETATM   19  N5  UNL     1       2.028   9.913  49.592  1.00  0.00    -0.348 N 
ATOM     20  H52 UNL     1       2.792  10.414  50.046  1.00  0.00     0.172 HD
ATOM     21  H51 UNL     1       1.728  10.059  48.629  1.00  0.00     0.172 HD
ENDBRANCH  18  19
ENDBRANCH  17  18
ENDBRANCH  15  17
ENDBRANCH   8  10
ENDBRANCH   5   6
ENDBRANCH   4   5
ENDBRANCH   2   4
ENDBRANCH   1   2
BRANCH   1  22
HETATM   22  N6  UNL     1       4.448   9.799  47.046  1.00  0.00    -0.216 N 
HETATM   23  N7  UNL     1       3.463   9.077  46.537  1.00  0.00    -0.003 NA
HETATM   24  N8  UNL     1       2.853   9.752  45.578  1.00  0.00    -0.265 N 
HETATM   25  C9  UNL     1       3.467  10.961  45.459  1.00  0.00     0.164 A 
ATOM     26  H8  UNL     1       2.061   9.424  45.025  1.00  0.00     0.186 HD
HETATM   27  N13 UNL     1       4.441  10.940  46.384  1.00  0.00    -0.268 N 
ATOM     28  H13 UNL     1       5.091  11.707  46.553  1.00  0.00     0.190 HD
BRANCH  25  29
HETATM   29  C10 UNL     1       3.124  12.025  44.526  1.00  0.00     0.125 A 
HETATM   30  N9  UNL     1       2.495  13.143  44.913  1.00  0.00    -0.186 N 
HETATM   31  C11 UNL     1       2.187  14.120  44.018  1.00  0.00     0.679 A 
ATOM     32  H9  UNL     1       2.242  13.263  45.894  1.00  0.00     0.184 HD
HETATM   33  N11 UNL     1       2.493  14.022  42.716  1.00  0.00    -0.155 N 
HETATM   34  C12 UNL     1       3.124  12.919  42.282  1.00  0.00     0.286 A 
ATOM     35  H11 UNL     1       2.251  14.771  42.067  1.00  0.00     0.187 HD
HETATM   36  O4  UNL     1       3.418  12.811  41.065  1.00  0.00    -0.266 OA
HETATM   37  C13 UNL     1       3.445  11.906  43.197  1.00  0.00     0.145 A 
HETATM   38  N12 UNL     1       4.115  10.727  42.763  1.00  0.00    -0.094 NA
BRANCH  31  39
HETATM   39  N10 UNL     1       1.580  15.197  44.395  1.00  0.00    -0.234 N 
ATOM     40 2H10 UNL     1       1.933  16.079  44.021  1.00  0.00     0.174 HD
ATOM     41 1H10 UNL     1       0.787  15.156  45.035  1.00  0.00     0.174 HD
ENDBRANCH  31  39
ENDBRANCH  25  29
ENDBRANCH   1  22
TORSDOF 11
ENDMDL
MODEL 5
REMARK VINA RESULT: -9.585733474      2.255      3.874
REMARK  11 active torsions:
REMARK  status: ('A' for Active; 'I' for Inactive)
REMARK    1  A    between atoms: C2_2  and  C3_3 
REMARK    2  A    between atoms: C2_2  and  C8_21 
REMARK    3  A    between atoms: C3_3  and  O1_4 
REMARK    4  A    between atoms: O1_4  and  C4_5 
REMARK       I    between atoms: C4_5  and  N1_7 
REMARK    5  A    between atoms: N1_7  and  C5_9 
REMARK    6  A    between atoms: C6_15  and  C7_16 
REMARK    7  A    between atoms: C7_16  and  N4_17 
REMARK    8  A    between atoms: N4_17  and  N5_18 
REMARK    9  A    between atoms: C8_21  and  N6_22 
REMARK   10  A    between atoms: C9_26  and  C10_27 
REMARK   11  A    between atoms: C11_30  and  N10_31 
ROOT
HETATM    1  C8  UNL     1       5.528   9.641  48.402  1.00  0.00     0.173 C 
ENDROOT
BRANCH   1   2
HETATM    2  C2  UNL     1       4.708   9.465  49.659  1.00  0.00     0.027 C 
HETATM    3  C1  UNL     1       3.499  10.374  49.670  1.00  0.00     0.014 C 
BRANCH   2   4
HETATM    4  C3  UNL     1       5.576   9.877  50.822  1.00  0.00     0.186 C 
BRANCH   4   5
HETATM    5  O1  UNL     1       5.692   8.857  51.789  1.00  0.00    -0.303 OA
BRANCH   5   6
HETATM    6  C4  UNL     1       5.334   7.545  51.626  1.00  0.00     0.366 C 
HETATM    7  O2  UNL     1       6.073   6.789  50.947  1.00  0.00    -0.238 OA
HETATM    8  N1  UNL     1       4.156   6.970  52.187  1.00  0.00    -0.285 N 
ATOM      9  H1  UNL     1       4.210   6.240  52.896  1.00  0.00     0.172 HD
BRANCH   8  10
HETATM   10  C5  UNL     1       3.016   7.411  51.761  1.00  0.00     0.158 A 
HETATM   11  N2  UNL     1       2.288   8.398  52.307  1.00  0.00    -0.223 N 
HETATM   12  O3  UNL     1       1.228   8.524  51.583  1.00  0.00    -0.155 OA
ATOM     13  H2  UNL     1       2.527   8.944  53.134  1.00  0.00     0.198 HD
HETATM   14  N3  UNL     1       1.193   7.702  50.604  1.00  0.00    -0.241 N 
HETATM   15  C6  UNL     1       2.306   6.958  50.655  1.00  0.00     0.096 A 
ATOM     16  H3  UNL     1       0.451   7.626  49.907  1.00  0.00     0.196 HD
BRANCH  15  17
HETATM   17  C7  UNL     1       2.754   5.877  49.771  1.00  0.00     0.197 C 
BRANCH  17  18
HETATM   18  N4  UNL     1       3.257   6.376  48.504  1.00  0.00    -0.142 NA
BRANCH  18  19
HETATM   19  N5  UNL     1       4.595   6.095  48.327  1.00  0.00    -0.348 N 
ATOM     20  H52 UNL     1       4.928   5.246  47.871  1.00  0.00     0.172 HD
ATOM     21  H51 UNL     1       5.196   6.828  48.702  1.00  0.00     0.172 HD
ENDBRANCH  18  19
ENDBRANCH  17  18
ENDBRANCH  15  17
ENDBRANCH   8  10
ENDBRANCH   5   6
ENDBRANCH   4   5
ENDBRANCH   2   4
ENDBRANCH   1   2
BRANCH   1  22
HETATM   22  N6  UNL     1       4.655   9.913  47.249  1.00  0.00    -0.216 N 
HETATM   23  N7  UNL     1       3.813   9.069  46.674  1.00  0.00    -0.003 NA
HETATM   24  N8  UNL     1       3.194   9.658  45.666  1.00  0.00    -0.265 N 
HETATM   25  C9  UNL     1       3.653  10.937  45.582  1.00  0.00     0.164 A 
ATOM     26  H8  UNL     1       2.495   9.230  45.059  1.00  0.00     0.186 HD
HETATM   27  N13 UNL     1       4.549  11.043  46.577  1.00  0.00    -0.268 N 
ATOM     28  H13 UNL     1       5.080  11.888  46.786  1.00  0.00     0.190 HD
BRANCH  25  29
HETATM   29  C10 UNL     1       3.246  11.947  44.615  1.00  0.00     0.125 A 
HETATM   30  N9  UNL     1       2.578  13.053  44.971  1.00  0.00    -0.186 N 
HETATM   31  C11 UNL     1       2.211  13.980  44.046  1.00  0.00     0.679 A 
ATOM     32  H9  UNL     1       2.342  13.203  45.953  1.00  0.00     0.184 HD
HETATM   33  N11 UNL     1       2.493  13.841  42.742  1.00  0.00    -0.155 N 
HETATM   34  C12 UNL     1       3.160  12.749  42.338  1.00  0.00     0.286 A 
ATOM     35  H11 UNL     1       2.206  14.553  42.070  1.00  0.00     0.187 HD
HETATM   36  O4  UNL     1       3.433  12.603  41.120  1.00  0.00    -0.266 OA
HETATM   37  C13 UNL     1       3.543  11.788  43.285  1.00  0.00     0.145 A 
HETATM   38  N12 UNL     1       4.252  10.620  42.882  1.00  0.00    -0.094 NA
BRANCH  31  39
HETATM   39  N10 UNL     1       1.567  15.045  44.393  1.00  0.00    -0.234 N 
ATOM     40 2H10 UNL     1       2.075  15.725  44.961  1.00  0.00     0.174 HD
ATOM     41 1H10 UNL     1       0.599  15.190  44.108  1.00  0.00     0.174 HD
ENDBRANCH  31  39
ENDBRANCH  25  29
ENDBRANCH   1  22
TORSDOF 11
ENDMDL
