MODEL 1
REMARK VINA RESULT: -5.691000296      0.000      0.000
REMARK  6 active torsions:
REMARK  status: ('A' for Active; 'I' for Inactive)
REMARK    1  A    between atoms: C4_7  and  N3_8 
REMARK    2  A    between atoms: N3_8  and  N4_10 
REMARK    3  A    between atoms: N4_10  and  N5_11 
REMARK    4  A    between atoms: N4_10  and  C5_14 
REMARK    5  A    between atoms: C5_14  and  C6_15 
REMARK    6  A    between atoms: C6_15  and  N6_16 
ROOT
HETATM    1  C1  UNL     1      -4.218 -10.677   1.412  1.00  0.00     0.158 C 
HETATM    2  N1  UNL     1      -3.584  -9.506   1.956  1.00  0.00    -0.331 N 
HETATM    3  C2  UNL     1      -3.602  -9.143   3.254  1.00  0.00     0.184 A 
HETATM    4  N2  UNL     1      -2.901  -8.000   3.350  1.00  0.00    -0.346 N 
ATOM      5  H2  UNL     1      -2.745  -7.490   4.218  1.00  0.00     0.167 HD
HETATM    6  C3  UNL     1      -2.431  -7.615   2.141  1.00  0.00     0.125 A 
HETATM    7  C4  UNL     1      -1.683  -6.566   1.677  1.00  0.00     0.167 A 
HETATM    8  N7  UNL     1      -1.392  -6.496   0.375  1.00  0.00    -0.173 N 
ATOM      9  H7  UNL     1      -0.835  -5.717   0.023  1.00  0.00     0.186 HD
HETATM   10  C7  UNL     1      -1.835  -7.461  -0.490  1.00  0.00     0.679 A 
HETATM   11  N8  UNL     1      -1.556  -7.390  -1.729  1.00  0.00    -0.234 N 
ATOM     12  H81 UNL     1      -1.887  -8.109  -2.374  1.00  0.00     0.174 HD
ATOM     13  H82 UNL     1      -0.998  -6.602  -2.058  1.00  0.00     0.174 HD
HETATM   14  N9  UNL     1      -2.572  -8.502  -0.055  1.00  0.00    -0.174 N 
ATOM     15  H9  UNL     1      -2.892  -9.213  -0.713  1.00  0.00     0.186 HD
HETATM   16  C8  UNL     1      -2.882  -8.601   1.250  1.00  0.00     0.154 A 
ENDROOT
BRANCH   7  17
HETATM   17  N3  UNL     1      -1.270  -5.669   2.476  1.00  0.00    -0.267 N 
ATOM     18  H3  UNL     1      -1.979  -5.146   2.992  1.00  0.00     0.190 HD
BRANCH  17  19
HETATM   19  N4  UNL     1       0.046  -5.337   2.710  1.00  0.00    -0.238 N 
BRANCH  19  20
HETATM   20  N5  UNL     1       0.472  -4.027   2.630  1.00  0.00    -0.329 N 
ATOM     21  H52 UNL     1      -0.201  -3.263   2.682  1.00  0.00     0.178 HD
ATOM     22  H51 UNL     1       1.461  -3.803   2.516  1.00  0.00     0.178 HD
ENDBRANCH  19  20
BRANCH  19  23
HETATM   23  C5  UNL     1       0.983  -6.390   3.046  1.00  0.00     0.196 C 
BRANCH  23  24
HETATM   24  C6  UNL     1       2.079  -6.524   2.012  1.00  0.00     0.253 C 
BRANCH  24  25
HETATM   25  N6  UNL     1       3.324  -6.121   2.639  1.00  0.00    -0.078 N 
ATOM     26  H63 UNL     1       4.120  -6.159   2.002  1.00  0.00     0.274 HD
ATOM     27  H62 UNL     1       3.362  -5.122   2.841  1.00  0.00     0.274 HD
ATOM     28  H61 UNL     1       3.451  -6.699   3.469  1.00  0.00     0.274 HD
ENDBRANCH  24  25
ENDBRANCH  23  24
ENDBRANCH  19  23
ENDBRANCH  17  19
ENDBRANCH   7  17
TORSDOF 6
ENDMDL
MODEL 2
REMARK VINA RESULT: -5.601668337      1.834      2.442
REMARK  6 active torsions:
REMARK  status: ('A' for Active; 'I' for Inactive)
REMARK    1  A    between atoms: C4_7  and  N3_8 
REMARK    2  A    between atoms: N3_8  and  N4_10 
REMARK    3  A    between atoms: N4_10  and  N5_11 
REMARK    4  A    between atoms: N4_10  and  C5_14 
REMARK    5  A    between atoms: C5_14  and  C6_15 
REMARK    6  A    between atoms: C6_15  and  N6_16 
ROOT
HETATM    1  C1  UNL     1      -1.311 -11.179   4.569  1.00  0.00     0.158 C 
HETATM    2  N1  UNL     1      -1.343  -9.786   4.213  1.00  0.00    -0.331 N 
HETATM    3  C2  UNL     1      -0.862  -8.778   4.966  1.00  0.00     0.184 A 
HETATM    4  N2  UNL     1      -1.083  -7.641   4.285  1.00  0.00    -0.346 N 
ATOM      5  H2  UNL     1      -0.822  -6.711   4.614  1.00  0.00     0.167 HD
HETATM    6  C3  UNL     1      -1.696  -7.891   3.106  1.00  0.00     0.125 A 
HETATM    7  C4  UNL     1      -2.138  -7.129   2.057  1.00  0.00     0.167 A 
HETATM    8  N7  UNL     1      -2.720  -7.726   1.014  1.00  0.00    -0.173 N 
ATOM      9  H7  UNL     1      -3.051  -7.165   0.230  1.00  0.00     0.186 HD
HETATM   10  C7  UNL     1      -2.875  -9.087   0.989  1.00  0.00     0.679 A 
HETATM   11  N8  UNL     1      -3.430  -9.653  -0.007  1.00  0.00    -0.234 N 
ATOM     12  H81 UNL     1      -3.546 -10.666  -0.025  1.00  0.00     0.174 HD
ATOM     13  H82 UNL     1      -3.753  -9.070  -0.779  1.00  0.00     0.174 HD
HETATM   14  N9  UNL     1      -2.447  -9.857   2.009  1.00  0.00    -0.174 N 
ATOM     15  H9  UNL     1      -2.569 -10.868   1.973  1.00  0.00     0.186 HD
HETATM   16  C8  UNL     1      -1.858  -9.285   3.075  1.00  0.00     0.154 A 
ENDROOT
BRANCH   7  17
HETATM   17  N3  UNL     1      -1.996  -5.867   2.077  1.00  0.00    -0.267 N 
ATOM     18  H3  UNL     1      -2.780  -5.318   2.432  1.00  0.00     0.190 HD
BRANCH  17  19
HETATM   19  N4  UNL     1      -0.882  -5.171   1.663  1.00  0.00    -0.238 N 
BRANCH  19  20
HETATM   20  N5  UNL     1      -0.559  -5.080   0.324  1.00  0.00    -0.329 N 
ATOM     21  H52 UNL     1      -0.800  -4.242  -0.206  1.00  0.00     0.178 HD
ATOM     22  H51 UNL     1      -0.080  -5.843  -0.154  1.00  0.00     0.178 HD
ENDBRANCH  19  20
BRANCH  19  23
HETATM   23  C5  UNL     1      -0.047  -4.531   2.660  1.00  0.00     0.196 C 
BRANCH  23  24
HETATM   24  C6  UNL     1       1.180  -5.355   2.986  1.00  0.00     0.253 C 
BRANCH  24  25
HETATM   25  N6  UNL     1       2.098  -4.502   3.716  1.00  0.00    -0.078 N 
ATOM     26  H63 UNL     1       2.290  -3.622   3.236  1.00  0.00     0.274 HD
ATOM     27  H62 UNL     1       1.686  -4.107   4.561  1.00  0.00     0.274 HD
ATOM     28  H61 UNL     1       2.940  -5.046   3.902  1.00  0.00     0.274 HD
ENDBRANCH  24  25
ENDBRANCH  23  24
ENDBRANCH  19  23
ENDBRANCH  17  19
ENDBRANCH   7  17
TORSDOF 6
ENDMDL
MODEL 3
REMARK VINA RESULT: -5.579985071      2.023      2.644
REMARK  6 active torsions:
REMARK  status: ('A' for Active; 'I' for Inactive)
REMARK    1  A    between atoms: C4_7  and  N3_8 
REMARK    2  A    between atoms: N3_8  and  N4_10 
REMARK    3  A    between atoms: N4_10  and  N5_11 
REMARK    4  A    between atoms: N4_10  and  C5_14 
REMARK    5  A    between atoms: C5_14  and  C6_15 
REMARK    6  A    between atoms: C6_15  and  N6_16 
ROOT
HETATM    1  C1  UNL     1      -0.371 -11.236   4.092  1.00  0.00     0.158 C 
HETATM    2  N1  UNL     1      -0.787  -9.872   3.902  1.00  0.00    -0.331 N 
HETATM    3  C2  UNL     1      -0.469  -8.841   4.709  1.00  0.00     0.184 A 
HETATM    4  N2  UNL     1      -1.048  -7.745   4.190  1.00  0.00    -0.346 N 
ATOM      5  H2  UNL     1      -0.979  -6.811   4.592  1.00  0.00     0.167 HD
HETATM    6  C3  UNL     1      -1.733  -8.045   3.063  1.00  0.00     0.125 A 
HETATM    7  C4  UNL     1      -2.482  -7.336   2.162  1.00  0.00     0.167 A 
HETATM    8  N7  UNL     1      -3.035  -7.972   1.126  1.00  0.00    -0.173 N 
ATOM      9  H7  UNL     1      -3.594  -7.450   0.451  1.00  0.00     0.186 HD
HETATM   10  C7  UNL     1      -2.857  -9.320   0.963  1.00  0.00     0.679 A 
HETATM   11  N8  UNL     1      -3.386  -9.924  -0.025  1.00  0.00    -0.234 N 
ATOM     12  H81 UNL     1      -3.254 -10.928  -0.146  1.00  0.00     0.174 HD
ATOM     13  H82 UNL     1      -3.941  -9.381  -0.686  1.00  0.00     0.174 HD
HETATM   14  N9  UNL     1      -2.123 -10.038   1.837  1.00  0.00    -0.174 N 
ATOM     15  H9  UNL     1      -2.000 -11.041   1.699  1.00  0.00     0.186 HD
HETATM   16  C8  UNL     1      -1.554  -9.426   2.890  1.00  0.00     0.154 A 
ENDROOT
BRANCH   7  17
HETATM   17  N3  UNL     1      -2.650  -6.085   2.310  1.00  0.00    -0.267 N 
ATOM     18  H3  UNL     1      -3.589  -5.769   2.554  1.00  0.00     0.190 HD
BRANCH  17  19
HETATM   19  N4  UNL     1      -1.680  -5.117   2.171  1.00  0.00    -0.238 N 
BRANCH  19  20
HETATM   20  N5  UNL     1      -1.504  -4.146   3.137  1.00  0.00    -0.329 N 
ATOM     21  H52 UNL     1      -2.252  -3.484   3.342  1.00  0.00     0.178 HD
ATOM     22  H51 UNL     1      -0.628  -4.074   3.655  1.00  0.00     0.178 HD
ENDBRANCH  19  20
BRANCH  19  23
HETATM   23  C5  UNL     1      -0.840  -5.133   0.991  1.00  0.00     0.196 C 
BRANCH  23  24
HETATM   24  C6  UNL     1       0.629  -5.031   1.339  1.00  0.00     0.253 C 
BRANCH  24  25
HETATM   25  N6  UNL     1       1.121  -6.379   1.556  1.00  0.00    -0.078 N 
ATOM     26  H63 UNL     1       0.470  -7.096   1.236  1.00  0.00     0.274 HD
ATOM     27  H62 UNL     1       1.899  -6.621   0.943  1.00  0.00     0.274 HD
ATOM     28  H61 UNL     1       1.353  -6.465   2.545  1.00  0.00     0.274 HD
ENDBRANCH  24  25
ENDBRANCH  23  24
ENDBRANCH  19  23
ENDBRANCH  17  19
ENDBRANCH   7  17
TORSDOF 6
ENDMDL
MODEL 4
REMARK VINA RESULT: -5.549764314      2.079      3.078
REMARK  6 active torsions:
REMARK  status: ('A' for Active; 'I' for Inactive)
REMARK    1  A    between atoms: C4_7  and  N3_8 
REMARK    2  A    between atoms: N3_8  and  N4_10 
REMARK    3  A    between atoms: N4_10  and  N5_11 
REMARK    4  A    between atoms: N4_10  and  C5_14 
REMARK    5  A    between atoms: C5_14  and  C6_15 
REMARK    6  A    between atoms: C6_15  and  N6_16 
ROOT
HETATM    1  C1  UNL     1      -0.330 -11.020   3.692  1.00  0.00     0.158 C 
HETATM    2  N1  UNL     1      -0.282  -9.799   2.934  1.00  0.00    -0.331 N 
HETATM    3  C2  UNL     1       0.653  -8.837   3.066  1.00  0.00     0.184 A 
HETATM    4  N2  UNL     1       0.346  -7.870   2.186  1.00  0.00    -0.346 N 
ATOM      5  H2  UNL     1       0.882  -7.011   2.061  1.00  0.00     0.167 HD
HETATM    6  C3  UNL     1      -0.769  -8.185   1.486  1.00  0.00     0.125 A 
HETATM    7  C4  UNL     1      -1.500  -7.581   0.498  1.00  0.00     0.167 A 
HETATM    8  N7  UNL     1      -2.584  -8.196   0.019  1.00  0.00    -0.173 N 
ATOM      9  H7  UNL     1      -3.134  -7.753  -0.717  1.00  0.00     0.186 HD
HETATM   10  C7  UNL     1      -2.964  -9.418   0.508  1.00  0.00     0.679 A 
HETATM   11  N8  UNL     1      -3.998 -10.002   0.050  1.00  0.00    -0.234 N 
ATOM     12  H81 UNL     1      -4.281 -10.911   0.414  1.00  0.00     0.174 HD
ATOM     13  H82 UNL     1      -4.531  -9.538  -0.686  1.00  0.00     0.174 HD
HETATM   14  N9  UNL     1      -2.259 -10.031   1.480  1.00  0.00    -0.174 N 
ATOM     15  H9  UNL     1      -2.555 -10.941   1.831  1.00  0.00     0.186 HD
HETATM   16  C8  UNL     1      -1.163  -9.436   1.984  1.00  0.00     0.154 A 
ENDROOT
BRANCH   7  17
HETATM   17  N3  UNL     1      -1.151  -6.448   0.042  1.00  0.00    -0.267 N 
ATOM     18  H3  UNL     1      -1.196  -6.322  -0.969  1.00  0.00     0.190 HD
BRANCH  17  19
HETATM   19  N4  UNL     1      -0.718  -5.374   0.788  1.00  0.00    -0.238 N 
BRANCH  19  20
HETATM   20  N5  UNL     1       0.481  -4.751   0.505  1.00  0.00    -0.329 N 
ATOM     21  H52 UNL     1       0.745  -3.897   0.996  1.00  0.00     0.178 HD
ATOM     22  H51 UNL     1       1.117  -5.131  -0.197  1.00  0.00     0.178 HD
ENDBRANCH  19  20
BRANCH  19  23
HETATM   23  C5  UNL     1      -1.544  -4.903   1.881  1.00  0.00     0.196 C 
BRANCH  23  24
HETATM   24  C6  UNL     1      -0.727  -4.224   2.958  1.00  0.00     0.253 C 
BRANCH  24  25
HETATM   25  N6  UNL     1      -0.479  -5.202   4.001  1.00  0.00    -0.078 N 
ATOM     26  H63 UNL     1       0.040  -6.015   3.668  1.00  0.00     0.274 HD
ATOM     27  H62 UNL     1       0.201  -4.883   4.690  1.00  0.00     0.274 HD
ATOM     28  H61 UNL     1      -1.379  -5.445   4.413  1.00  0.00     0.274 HD
ENDBRANCH  24  25
ENDBRANCH  23  24
ENDBRANCH  19  23
ENDBRANCH  17  19
ENDBRANCH   7  17
TORSDOF 6
ENDMDL
MODEL 5
REMARK VINA RESULT: -5.482283221      1.886      2.688
REMARK  6 active torsions:
REMARK  status: ('A' for Active; 'I' for Inactive)
REMARK    1  A    between atoms: C4_7  and  N3_8 
REMARK    2  A    between atoms: N3_8  and  N4_10 
REMARK    3  A    between atoms: N4_10  and  N5_11 
REMARK    4  A    between atoms: N4_10  and  C5_14 
REMARK    5  A    between atoms: C5_14  and  C6_15 
REMARK    6  A    between atoms: C6_15  and  N6_16 
ROOT
HETATM    1  C1  UNL     1      -3.086 -10.573   5.209  1.00  0.00     0.158 C 
HETATM    2  N1  UNL     1      -2.287  -9.584   4.537  1.00  0.00    -0.331 N 
HETATM    3  C2  UNL     1      -1.376  -8.786   5.127  1.00  0.00     0.184 A 
HETATM    4  N2  UNL     1      -0.852  -8.010   4.163  1.00  0.00    -0.346 N 
ATOM      5  H2  UNL     1      -0.133  -7.304   4.318  1.00  0.00     0.167 HD
HETATM    6  C3  UNL     1      -1.405  -8.289   2.960  1.00  0.00     0.125 A 
HETATM    7  C4  UNL     1      -1.248  -7.817   1.684  1.00  0.00     0.167 A 
HETATM    8  N7  UNL     1      -1.983  -8.339   0.699  1.00  0.00    -0.173 N 
ATOM      9  H7  UNL     1      -1.872  -7.992  -0.253  1.00  0.00     0.186 HD
HETATM   10  C7  UNL     1      -2.887  -9.335   0.958  1.00  0.00     0.679 A 
HETATM   11  N8  UNL     1      -3.587  -9.829   0.017  1.00  0.00    -0.234 N 
ATOM     12  H81 UNL     1      -4.260 -10.571   0.210  1.00  0.00     0.174 HD
ATOM     13  H82 UNL     1      -3.457  -9.466  -0.927  1.00  0.00     0.174 HD
HETATM   14  N9  UNL     1      -3.058  -9.815   2.206  1.00  0.00    -0.174 N 
ATOM     15  H9  UNL     1      -3.734 -10.558   2.381  1.00  0.00     0.186 HD
HETATM   16  C8  UNL     1      -2.332  -9.310   3.220  1.00  0.00     0.154 A 
ENDROOT
BRANCH   7  17
HETATM   17  N3  UNL     1      -0.411  -6.893   1.440  1.00  0.00    -0.267 N 
ATOM     18  H3  UNL     1       0.577  -7.147   1.458  1.00  0.00     0.190 HD
BRANCH  17  19
HETATM   19  N4  UNL     1      -0.715  -5.581   1.154  1.00  0.00    -0.238 N 
BRANCH  19  20
HETATM   20  N5  UNL     1      -0.465  -5.050  -0.096  1.00  0.00    -0.329 N 
ATOM     21  H52 UNL     1       0.388  -4.518  -0.267  1.00  0.00     0.178 HD
ATOM     22  H51 UNL     1      -1.126  -5.181  -0.862  1.00  0.00     0.178 HD
ENDBRANCH  19  20
BRANCH  19  23
HETATM   23  C5  UNL     1      -1.307  -4.758   2.191  1.00  0.00     0.196 C 
BRANCH  23  24
HETATM   24  C6  UNL     1      -0.404  -4.633   3.399  1.00  0.00     0.253 C 
BRANCH  24  25
HETATM   25  N6  UNL     1       0.882  -4.147   2.935  1.00  0.00    -0.078 N 
ATOM     26  H63 UNL     1       1.084  -3.197   3.249  1.00  0.00     0.274 HD
ATOM     27  H62 UNL     1       1.668  -4.609   3.390  1.00  0.00     0.274 HD
ATOM     28  H61 UNL     1       0.898  -4.242   1.920  1.00  0.00     0.274 HD
ENDBRANCH  24  25
ENDBRANCH  23  24
ENDBRANCH  19  23
ENDBRANCH  17  19
ENDBRANCH   7  17
TORSDOF 6
ENDMDL
