MODEL 1
REMARK VINA RESULT: -8.045896375      0.000      0.000
REMARK  4 active torsions:
REMARK  status: ('A' for Active; 'I' for Inactive)
REMARK    1  A    between atoms: N1_1  and  C1_4 
REMARK    2  A    between atoms: C1_4  and  C2_6 
REMARK    3  A    between atoms: C6_11  and  C7_12 
REMARK    4  A    between atoms: N3_13  and  O1_15 
ROOT
HETATM    1  C2  UNL     1      36.796  47.058  76.361  1.00  0.00     0.048 A 
HETATM    2  C3  UNL     1      37.407  48.226  76.517  1.00  0.00     0.053 A 
HETATM    3  C4  UNL     1      36.741  49.448  76.455  1.00  0.00     0.052 A 
HETATM    4  C5  UNL     1      35.420  49.211  76.214  1.00  0.00     0.044 A 
HETATM    5  S1  UNL     1      35.180  47.494  76.098  1.00  0.00    -0.084 SA
HETATM    6  C6  UNL     1      34.313  50.208  76.042  1.00  0.00     0.002 C 
HETATM    7  C8  UNL     1      34.671  51.532  76.162  1.00  0.00     0.039 C 
HETATM    8  C9  UNL     1      34.390  52.894  76.166  1.00  0.00     0.143 C 
HETATM    9  O2  UNL     1      35.650  53.462  76.542  1.00  0.00    -0.320 OA
HETATM   10  C10 UNL     1      36.654  53.028  77.396  1.00  0.00     0.103 A 
HETATM   11  C11 UNL     1      36.897  54.023  78.375  1.00  0.00     0.066 A 
HETATM   12  C12 UNL     1      37.831  53.931  79.369  1.00  0.00     0.049 A 
HETATM   13  N4  UNL     1      38.044  54.943  80.337  1.00  0.00    -0.102 NA
HETATM   14  C13 UNL     1      38.592  52.815  79.438  1.00  0.00     0.029 A 
HETATM   15  C14 UNL     1      38.371  51.858  78.511  1.00  0.00     0.034 A 
HETATM   16  C15 UNL     1      37.421  51.870  77.451  1.00  0.00     0.067 A 
HETATM   17  N5  UNL     1      37.462  50.693  76.672  1.00  0.00    -0.353 N 
ATOM     18  H5  UNL     1      38.270  50.727  76.051  1.00  0.00     0.166 HD
ENDROOT
BRANCH   1  19
HETATM   19  C1  UNL     1      37.319  45.684  76.401  1.00  0.00     0.127 C 
HETATM   20  N2  UNL     1      38.147  45.244  75.370  1.00  0.00    -0.082 NA
BRANCH  19  21
HETATM   21  N1  UNL     1      37.004  44.927  77.359  1.00  0.00    -0.387 N 
ATOM     22  H12 UNL     1      36.187  44.323  77.275  1.00  0.00     0.157 HD
ATOM     23  H11 UNL     1      37.555  44.899  78.218  1.00  0.00     0.157 HD
ENDBRANCH  19  21
ENDBRANCH   1  19
BRANCH   6  24
HETATM   24  C7  UNL     1      33.096  49.811  75.788  1.00  0.00     0.126 C 
HETATM   25  N3  UNL     1      31.851  49.526  76.014  1.00  0.00    -0.280 N 
ATOM     26  H3  UNL     1      31.359  48.862  75.414  1.00  0.00     0.193 HD
BRANCH  25  27
HETATM   27  O1  UNL     1      31.187  50.133  77.082  1.00  0.00    -0.290 OA
ATOM     28  H1  UNL     1      30.699  49.597  77.695  1.00  0.00     0.244 HD
ENDBRANCH  25  27
ENDBRANCH   6  24
TORSDOF 4
ENDMDL
MODEL 2
REMARK VINA RESULT: -6.576182360      4.144      6.538
REMARK  4 active torsions:
REMARK  status: ('A' for Active; 'I' for Inactive)
REMARK    1  A    between atoms: N1_1  and  C1_4 
REMARK    2  A    between atoms: C1_4  and  C2_6 
REMARK    3  A    between atoms: C6_11  and  C7_12 
REMARK    4  A    between atoms: N3_13  and  O1_15 
ROOT
HETATM    1  C2  UNL     1      34.072  55.163  73.469  1.00  0.00     0.048 A 
HETATM    2  C3  UNL     1      34.342  54.661  74.668  1.00  0.00     0.053 A 
HETATM    3  C4  UNL     1      34.942  53.418  74.856  1.00  0.00     0.052 A 
HETATM    4  C5  UNL     1      35.175  52.859  73.635  1.00  0.00     0.044 A 
HETATM    5  S1  UNL     1      34.618  53.958  72.410  1.00  0.00    -0.084 SA
HETATM    6  C6  UNL     1      35.780  51.522  73.324  1.00  0.00     0.002 C 
HETATM    7  C8  UNL     1      36.168  50.770  74.410  1.00  0.00     0.039 C 
HETATM    8  C9  UNL     1      36.720  49.636  74.996  1.00  0.00     0.143 C 
HETATM    9  O2  UNL     1      36.733  49.988  76.385  1.00  0.00    -0.320 OA
HETATM   10  C10 UNL     1      36.937  51.193  77.042  1.00  0.00     0.103 A 
HETATM   11  C11 UNL     1      38.006  51.049  77.961  1.00  0.00     0.066 A 
HETATM   12  C12 UNL     1      38.468  52.036  78.785  1.00  0.00     0.049 A 
HETATM   13  N4  UNL     1      39.544  51.860  79.689  1.00  0.00    -0.102 NA
HETATM   14  C13 UNL     1      37.872  53.250  78.736  1.00  0.00     0.029 A 
HETATM   15  C14 UNL     1      36.851  53.401  77.864  1.00  0.00     0.034 A 
HETATM   16  C15 UNL     1      36.313  52.433  76.970  1.00  0.00     0.067 A 
HETATM   17  N5  UNL     1      35.246  52.942  76.196  1.00  0.00    -0.353 N 
ATOM     18  H5  UNL     1      34.406  52.991  76.771  1.00  0.00     0.166 HD
ENDROOT
BRANCH   1  19
HETATM   19  C1  UNL     1      33.461  56.441  73.074  1.00  0.00     0.127 C 
HETATM   20  N2  UNL     1      32.509  57.024  73.909  1.00  0.00    -0.082 NA
BRANCH  19  21
HETATM   21  N1  UNL     1      33.800  56.982  71.986  1.00  0.00    -0.387 N 
ATOM     22  H12 UNL     1      33.793  56.432  71.128  1.00  0.00     0.157 HD
ATOM     23  H11 UNL     1      34.075  57.963  71.944  1.00  0.00     0.157 HD
ENDBRANCH  19  21
ENDBRANCH   1  19
BRANCH   6  24
HETATM   24  C7  UNL     1      35.910  51.124  72.089  1.00  0.00     0.126 C 
HETATM   25  N3  UNL     1      36.499  50.867  70.962  1.00  0.00    -0.280 N 
ATOM     26  H3  UNL     1      35.960  50.830  70.097  1.00  0.00     0.193 HD
BRANCH  25  27
HETATM   27  O1  UNL     1      37.877  50.641  70.941  1.00  0.00    -0.290 OA
ATOM     28  H1  UNL     1      38.394  50.967  70.214  1.00  0.00     0.244 HD
ENDBRANCH  25  27
ENDBRANCH   6  24
TORSDOF 4
ENDMDL
MODEL 3
REMARK VINA RESULT: -6.130104444      1.686      1.752
REMARK  4 active torsions:
REMARK  status: ('A' for Active; 'I' for Inactive)
REMARK    1  A    between atoms: N1_1  and  C1_4 
REMARK    2  A    between atoms: C1_4  and  C2_6 
REMARK    3  A    between atoms: C6_11  and  C7_12 
REMARK    4  A    between atoms: N3_13  and  O1_15 
ROOT
HETATM    1  C2  UNL     1      35.305  47.014  74.975  1.00  0.00     0.048 A 
HETATM    2  C3  UNL     1      36.177  47.975  75.255  1.00  0.00     0.053 A 
HETATM    3  C4  UNL     1      35.816  49.313  75.398  1.00  0.00     0.052 A 
HETATM    4  C5  UNL     1      34.472  49.425  75.198  1.00  0.00     0.044 A 
HETATM    5  S1  UNL     1      33.832  47.845  74.862  1.00  0.00    -0.084 SA
HETATM    6  C6  UNL     1      33.628  50.664  75.225  1.00  0.00     0.002 C 
HETATM    7  C8  UNL     1      34.291  51.839  75.505  1.00  0.00     0.039 C 
HETATM    8  C9  UNL     1      34.339  53.213  75.711  1.00  0.00     0.143 C 
HETATM    9  O2  UNL     1      35.705  53.414  76.092  1.00  0.00    -0.320 OA
HETATM   10  C10 UNL     1      36.596  52.641  76.823  1.00  0.00     0.103 A 
HETATM   11  C11 UNL     1      37.087  53.399  77.915  1.00  0.00     0.066 A 
HETATM   12  C12 UNL     1      37.993  52.951  78.834  1.00  0.00     0.049 A 
HETATM   13  N4  UNL     1      38.459  53.733  79.918  1.00  0.00    -0.102 NA
HETATM   14  C13 UNL     1      38.471  51.691  78.709  1.00  0.00     0.029 A 
HETATM   15  C14 UNL     1      38.011  50.957  77.673  1.00  0.00     0.034 A 
HETATM   16  C15 UNL     1      37.069  51.341  76.678  1.00  0.00     0.067 A 
HETATM   17  N5  UNL     1      36.815  50.313  75.743  1.00  0.00    -0.353 N 
ATOM     18  H5  UNL     1      37.595  50.251  75.090  1.00  0.00     0.166 HD
ENDROOT
BRANCH   1  19
HETATM   19  C1  UNL     1      35.489  45.567  74.797  1.00  0.00     0.127 C 
HETATM   20  N2  UNL     1      34.846  44.927  73.739  1.00  0.00    -0.082 NA
BRANCH  19  21
HETATM   21  N1  UNL     1      36.216  44.929  75.606  1.00  0.00    -0.387 N 
ATOM     22  H12 UNL     1      35.791  44.479  76.417  1.00  0.00     0.157 HD
ATOM     23  H11 UNL     1      37.223  44.846  75.464  1.00  0.00     0.157 HD
ENDBRANCH  19  21
ENDBRANCH   1  19
BRANCH   6  24
HETATM   24  C7  UNL     1      32.347  50.600  74.986  1.00  0.00     0.126 C 
HETATM   25  N3  UNL     1      31.151  51.019  74.709  1.00  0.00    -0.280 N 
ATOM     26  H3  UNL     1      30.338  50.465  74.978  1.00  0.00     0.193 HD
BRANCH  25  27
HETATM   27  O1  UNL     1      30.984  52.233  74.039  1.00  0.00    -0.290 OA
ATOM     28  H1  UNL     1      30.929  53.039  74.538  1.00  0.00     0.244 HD
ENDBRANCH  25  27
ENDBRANCH   6  24
TORSDOF 4
ENDMDL
MODEL 4
REMARK VINA RESULT: -6.012871993      2.840      4.227
REMARK  4 active torsions:
REMARK  status: ('A' for Active; 'I' for Inactive)
REMARK    1  A    between atoms: N1_1  and  C1_4 
REMARK    2  A    between atoms: C1_4  and  C2_6 
REMARK    3  A    between atoms: C6_11  and  C7_12 
REMARK    4  A    between atoms: N3_13  and  O1_15 
ROOT
HETATM    1  C2  UNL     1      37.243  49.362  76.583  1.00  0.00     0.048 A 
HETATM    2  C3  UNL     1      38.289  49.739  77.309  1.00  0.00     0.053 A 
HETATM    3  C4  UNL     1      38.388  50.992  77.909  1.00  0.00     0.052 A 
HETATM    4  C5  UNL     1      37.265  51.706  77.612  1.00  0.00     0.044 A 
HETATM    5  S1  UNL     1      36.229  50.719  76.626  1.00  0.00    -0.084 SA
HETATM    6  C6  UNL     1      36.923  53.111  78.011  1.00  0.00     0.002 C 
HETATM    7  C8  UNL     1      37.854  53.758  78.794  1.00  0.00     0.039 C 
HETATM    8  C9  UNL     1      38.318  54.853  79.514  1.00  0.00     0.143 C 
HETATM    9  O2  UNL     1      39.522  54.343  80.099  1.00  0.00    -0.320 OA
HETATM   10  C10 UNL     1      39.871  53.088  80.577  1.00  0.00     0.103 A 
HETATM   11  C11 UNL     1      40.294  53.202  81.924  1.00  0.00     0.066 A 
HETATM   12  C12 UNL     1      40.720  52.162  82.702  1.00  0.00     0.049 A 
HETATM   13  N4  UNL     1      41.130  52.310  84.049  1.00  0.00    -0.102 NA
HETATM   14  C13 UNL     1      40.749  50.922  82.161  1.00  0.00     0.029 A 
HETATM   15  C14 UNL     1      40.348  50.799  80.877  1.00  0.00     0.034 A 
HETATM   16  C15 UNL     1      39.887  51.822  80.002  1.00  0.00     0.067 A 
HETATM   17  N5  UNL     1      39.545  51.331  78.723  1.00  0.00    -0.353 N 
ATOM     18  H5  UNL     1      40.396  51.152  78.191  1.00  0.00     0.166 HD
ENDROOT
BRANCH   1  19
HETATM   19  C1  UNL     1      36.956  48.098  75.889  1.00  0.00     0.127 C 
HETATM   20  N2  UNL     1      37.717  47.749  74.775  1.00  0.00    -0.082 NA
BRANCH  19  21
HETATM   21  N1  UNL     1      36.025  47.357  76.307  1.00  0.00    -0.387 N 
ATOM     22  H12 UNL     1      35.093  47.748  76.442  1.00  0.00     0.157 HD
ATOM     23  H11 UNL     1      36.182  46.369  76.508  1.00  0.00     0.157 HD
ENDBRANCH  19  21
ENDBRANCH   1  19
BRANCH   6  24
HETATM   24  C7  UNL     1      35.807  53.659  77.619  1.00  0.00     0.126 C 
HETATM   25  N3  UNL     1      34.750  54.410  77.671  1.00  0.00    -0.280 N 
ATOM     26  H3  UNL     1      33.933  54.186  77.103  1.00  0.00     0.193 HD
BRANCH  25  27
HETATM   27  O1  UNL     1      34.738  55.525  78.511  1.00  0.00    -0.290 OA
ATOM     28  H1  UNL     1      33.918  55.972  78.684  1.00  0.00     0.244 HD
ENDBRANCH  25  27
ENDBRANCH   6  24
TORSDOF 4
ENDMDL
MODEL 5
REMARK VINA RESULT: -5.977784260      2.920      5.033
REMARK  4 active torsions:
REMARK  status: ('A' for Active; 'I' for Inactive)
REMARK    1  A    between atoms: N1_1  and  C1_4 
REMARK    2  A    between atoms: C1_4  and  C2_6 
REMARK    3  A    between atoms: C6_11  and  C7_12 
REMARK    4  A    between atoms: N3_13  and  O1_15 
ROOT
HETATM    1  C2  UNL     1      36.993  48.508  75.329  1.00  0.00     0.048 A 
HETATM    2  C3  UNL     1      36.025  49.300  74.885  1.00  0.00     0.053 A 
HETATM    3  C4  UNL     1      35.783  50.571  75.403  1.00  0.00     0.052 A 
HETATM    4  C5  UNL     1      36.684  50.813  76.397  1.00  0.00     0.044 A 
HETATM    5  S1  UNL     1      37.718  49.427  76.554  1.00  0.00    -0.084 SA
HETATM    6  C6  UNL     1      36.808  52.032  77.263  1.00  0.00     0.002 C 
HETATM    7  C8  UNL     1      35.908  53.044  77.010  1.00  0.00     0.039 C 
HETATM    8  C9  UNL     1      35.363  54.301  77.245  1.00  0.00     0.143 C 
HETATM    9  O2  UNL     1      34.390  54.410  76.198  1.00  0.00    -0.320 OA
HETATM   10  C10 UNL     1      34.374  53.956  74.887  1.00  0.00     0.103 A 
HETATM   11  C11 UNL     1      34.159  55.052  74.015  1.00  0.00     0.066 A 
HETATM   12  C12 UNL     1      34.074  54.964  72.654  1.00  0.00     0.049 A 
HETATM   13  N4  UNL     1      33.865  56.082  71.810  1.00  0.00    -0.102 NA
HETATM   14  C13 UNL     1      34.199  53.747  72.076  1.00  0.00     0.029 A 
HETATM   15  C14 UNL     1      34.403  52.693  72.896  1.00  0.00     0.034 A 
HETATM   16  C15 UNL     1      34.510  52.696  74.315  1.00  0.00     0.067 A 
HETATM   17  N5  UNL     1      34.730  51.406  74.846  1.00  0.00    -0.353 N 
ATOM     18  H5  UNL     1      33.855  50.883  74.836  1.00  0.00     0.166 HD
ENDROOT
BRANCH   1  19
HETATM   19  C1  UNL     1      37.404  47.160  74.910  1.00  0.00     0.127 C 
HETATM   20  N2  UNL     1      37.026  46.065  75.686  1.00  0.00    -0.082 NA
BRANCH  19  21
HETATM   21  N1  UNL     1      38.094  47.017  73.865  1.00  0.00    -0.387 N 
ATOM     22  H12 UNL     1      37.628  46.848  72.973  1.00  0.00     0.157 HD
ATOM     23  H11 UNL     1      39.113  47.072  73.889  1.00  0.00     0.157 HD
ENDBRANCH  19  21
ENDBRANCH   1  19
BRANCH   6  24
HETATM   24  C7  UNL     1      37.718  52.094  78.194  1.00  0.00     0.126 C 
HETATM   25  N3  UNL     1      38.506  52.630  79.075  1.00  0.00    -0.280 N 
ATOM     26  H3  UNL     1      39.361  52.152  79.358  1.00  0.00     0.193 HD
BRANCH  25  27
HETATM   27  O1  UNL     1      38.175  53.867  79.632  1.00  0.00    -0.290 OA
ATOM     28  H1  UNL     1      37.648  54.479  79.134  1.00  0.00     0.244 HD
ENDBRANCH  25  27
ENDBRANCH   6  24
TORSDOF 4
ENDMDL
