MODEL 1
REMARK VINA RESULT: -7.332871885      0.000      0.000
REMARK  13 active torsions:
REMARK  status: ('A' for Active; 'I' for Inactive)
REMARK    1  A    between atoms: O1_1  and  C1_3 
REMARK    2  A    between atoms: C1_3  and  C2_4 
REMARK    3  A    between atoms: C3_6  and  O3_7 
REMARK    4  A    between atoms: C4_9  and  O4_10 
REMARK    5  A    between atoms: O4_10  and  C5_11 
REMARK    6  A    between atoms: C5_11  and  C6_12 
REMARK    7  A    between atoms: C7_13  and  O5_14 
REMARK    8  A    between atoms: C8_16  and  O6_17 
REMARK    9  A    between atoms: C9_19  and  O7_20 
REMARK   10  A    between atoms: C10_22  and  O8_23 
REMARK   11  A    between atoms: O8_23  and  C11_24 
REMARK   12  A    between atoms: C11_24  and  C12_25 
REMARK   13  A    between atoms: C22_35  and  O9_36 
ROOT
HETATM    1  C6  UNL     1       5.626   7.353   8.835  1.00  0.00     0.072 C 
HETATM    2  C7  UNL     1       6.579   7.753   9.911  1.00  0.00     0.158 C 
HETATM    3  C8  UNL     1       7.757   8.444   9.304  1.00  0.00     0.178 C 
HETATM    4  C9  UNL     1       8.565   7.610   8.354  1.00  0.00     0.180 C 
HETATM    5  C10 UNL     1       7.775   6.294   8.106  1.00  0.00     0.181 C 
HETATM    6  C22 UNL     1       6.418   6.772   7.680  1.00  0.00     0.158 C 
ENDROOT
BRANCH   1   7
HETATM    7  C5  UNL     1       4.828   8.562   8.403  1.00  0.00     0.181 C 
BRANCH   7   8
HETATM    8  O4  UNL     1       3.754   8.811   9.231  1.00  0.00    -0.356 OA
BRANCH   8   9
HETATM    9  C4  UNL     1       2.582   8.480   8.556  1.00  0.00     0.317 C 
HETATM   10  C3  UNL     1       1.699   7.546   9.338  1.00  0.00     0.315 C 
HETATM   11  O2  UNL     1       0.627   8.327   9.822  1.00  0.00    -0.324 OA
HETATM   12  C2  UNL     1       1.148   9.593   9.729  1.00  0.00     0.289 C 
HETATM   13  O10 UNL     1       1.761   9.627   8.454  1.00  0.00    -0.324 OA
BRANCH  10  14
HETATM   14  O3  UNL     1       2.357   6.875  10.346  1.00  0.00    -0.367 OA
ATOM     15  H3  UNL     1       2.776   6.080  10.038  1.00  0.00     0.212 HD
ENDBRANCH  10  14
BRANCH  12  16
HETATM   16  C1  UNL     1       0.106  10.686   9.740  1.00  0.00     0.225 C 
BRANCH  16  17
HETATM   17  O1  UNL     1       0.661  11.935   9.491  1.00  0.00    -0.396 OA
ATOM     18  H1  UNL     1       1.108  12.284  10.253  1.00  0.00     0.209 HD
ENDBRANCH  16  17
ENDBRANCH  12  16
ENDBRANCH   8   9
ENDBRANCH   7   8
ENDBRANCH   1   7
BRANCH   2  19
HETATM   19  O5  UNL     1       5.985   8.687  10.791  1.00  0.00    -0.392 OA
ATOM     20  H5  UNL     1       6.010   9.563  10.424  1.00  0.00     0.210 HD
ENDBRANCH   2  19
BRANCH   6  21
HETATM   21  O9  UNL     1       5.654   5.793   7.086  1.00  0.00    -0.392 OA
ATOM     22  H9  UNL     1       5.321   5.221   7.767  1.00  0.00     0.210 HD
ENDBRANCH   6  21
BRANCH   3  23
HETATM   23  O6  UNL     1       8.540   8.916  10.377  1.00  0.00    -0.390 OA
ATOM     24  H6  UNL     1       9.421   8.595  10.230  1.00  0.00     0.210 HD
ENDBRANCH   3  23
BRANCH   5  25
HETATM   25  O8  UNL     1       8.344   5.527   7.188  1.00  0.00    -0.380 OA
BRANCH  25  26
HETATM   26  C11 UNL     1       9.076   4.448   7.358  1.00  0.00     0.177 C 
BRANCH  26  27
HETATM   27  C12 UNL     1       8.605   3.059   7.112  1.00  0.00    -0.018 C 
HETATM   28  C13 UNL     1       7.798   2.903   5.853  1.00  0.00     0.016 C 
HETATM   29  C14 UNL     1       7.139   1.544   5.747  1.00  0.00    -0.013 C 
HETATM   30  C15 UNL     1       8.207   0.470   5.777  1.00  0.00     0.009 C 
HETATM   31  C19 UNL     1       6.186   1.340   6.874  1.00  0.00     0.009 C 
HETATM   32  C16 UNL     1       9.003   0.634   7.037  1.00  0.00    -0.013 C 
HETATM   33  C17 UNL     1       8.089   0.366   8.202  1.00  0.00     0.009 C 
HETATM   34  C21 UNL     1       9.652   1.996   7.160  1.00  0.00     0.016 C 
HETATM   35  C18 UNL     1       6.999   1.405   8.151  1.00  0.00    -0.013 C 
HETATM   36  C20 UNL     1       7.580   2.755   8.257  1.00  0.00     0.016 C 
ENDBRANCH  26  27
ENDBRANCH  25  26
ENDBRANCH   5  25
BRANCH   4  37
HETATM   37  O7  UNL     1       8.735   8.317   7.182  1.00  0.00    -0.390 OA
ATOM     38  H7  UNL     1       8.902   7.702   6.477  1.00  0.00     0.210 HD
ENDBRANCH   4  37
TORSDOF 13
ENDMDL
MODEL 2
REMARK VINA RESULT: -7.301575762      0.119      1.305
REMARK  13 active torsions:
REMARK  status: ('A' for Active; 'I' for Inactive)
REMARK    1  A    between atoms: O1_1  and  C1_3 
REMARK    2  A    between atoms: C1_3  and  C2_4 
REMARK    3  A    between atoms: C3_6  and  O3_7 
REMARK    4  A    between atoms: C4_9  and  O4_10 
REMARK    5  A    between atoms: O4_10  and  C5_11 
REMARK    6  A    between atoms: C5_11  and  C6_12 
REMARK    7  A    between atoms: C7_13  and  O5_14 
REMARK    8  A    between atoms: C8_16  and  O6_17 
REMARK    9  A    between atoms: C9_19  and  O7_20 
REMARK   10  A    between atoms: C10_22  and  O8_23 
REMARK   11  A    between atoms: O8_23  and  C11_24 
REMARK   12  A    between atoms: C11_24  and  C12_25 
REMARK   13  A    between atoms: C22_35  and  O9_36 
ROOT
HETATM    1  C6  UNL     1       5.646   7.346   8.791  1.00  0.00     0.072 C 
HETATM    2  C7  UNL     1       6.583   7.746   9.881  1.00  0.00     0.158 C 
HETATM    3  C8  UNL     1       7.764   8.449   9.291  1.00  0.00     0.178 C 
HETATM    4  C9  UNL     1       8.589   7.627   8.345  1.00  0.00     0.180 C 
HETATM    5  C10 UNL     1       7.809   6.306   8.080  1.00  0.00     0.181 C 
HETATM    6  C22 UNL     1       6.454   6.778   7.642  1.00  0.00     0.158 C 
ENDROOT
BRANCH   1   7
HETATM    7  C5  UNL     1       4.845   8.553   8.358  1.00  0.00     0.181 C 
BRANCH   7   8
HETATM    8  O4  UNL     1       3.779   8.809   9.195  1.00  0.00    -0.356 OA
BRANCH   8   9
HETATM    9  C4  UNL     1       2.600   8.474   8.535  1.00  0.00     0.317 C 
HETATM   10  C3  UNL     1       1.731   7.537   9.329  1.00  0.00     0.315 C 
HETATM   11  O2  UNL     1       0.662   8.314   9.826  1.00  0.00    -0.324 OA
HETATM   12  C2  UNL     1       1.177   9.582   9.726  1.00  0.00     0.289 C 
HETATM   13  O10 UNL     1       1.773   9.617   8.443  1.00  0.00    -0.324 OA
BRANCH  10  14
HETATM   14  O3  UNL     1       2.404   6.869  10.329  1.00  0.00    -0.367 OA
ATOM     15  H3  UNL     1       3.142   6.371   9.997  1.00  0.00     0.212 HD
ENDBRANCH  10  14
BRANCH  12  16
HETATM   16  C1  UNL     1       0.131  10.671   9.750  1.00  0.00     0.225 C 
BRANCH  16  17
HETATM   17  O1  UNL     1       0.653  11.901   9.368  1.00  0.00    -0.396 OA
ATOM     18  H1  UNL     1       0.395  12.596   9.962  1.00  0.00     0.209 HD
ENDBRANCH  16  17
ENDBRANCH  12  16
ENDBRANCH   8   9
ENDBRANCH   7   8
ENDBRANCH   1   7
BRANCH   2  19
HETATM   19  O5  UNL     1       5.974   8.670  10.759  1.00  0.00    -0.392 OA
ATOM     20  H5  UNL     1       6.430   8.699  11.593  1.00  0.00     0.210 HD
ENDBRANCH   2  19
BRANCH   6  21
HETATM   21  O9  UNL     1       5.704   5.798   7.033  1.00  0.00    -0.392 OA
ATOM     22  H9  UNL     1       5.225   6.194   6.314  1.00  0.00     0.210 HD
ENDBRANCH   6  21
BRANCH   3  23
HETATM   23  O6  UNL     1       8.531   8.919  10.376  1.00  0.00    -0.390 OA
ATOM     24  H6  UNL     1       8.314   9.838  10.481  1.00  0.00     0.210 HD
ENDBRANCH   3  23
BRANCH   5  25
HETATM   25  O8  UNL     1       8.395   5.549   7.164  1.00  0.00    -0.380 OA
BRANCH  25  26
HETATM   26  C11 UNL     1       8.978   4.381   7.314  1.00  0.00     0.177 C 
BRANCH  26  27
HETATM   27  C12 UNL     1       8.298   3.068   7.156  1.00  0.00    -0.018 C 
HETATM   28  C13 UNL     1       7.403   2.703   8.308  1.00  0.00     0.016 C 
HETATM   29  C14 UNL     1       6.910   1.274   8.232  1.00  0.00    -0.013 C 
HETATM   30  C15 UNL     1       6.144   1.079   6.941  1.00  0.00     0.009 C 
HETATM   31  C19 UNL     1       8.058   0.325   8.288  1.00  0.00     0.009 C 
HETATM   32  C16 UNL     1       7.046   1.444   5.800  1.00  0.00    -0.013 C 
HETATM   33  C17 UNL     1       8.186   0.461   5.778  1.00  0.00     0.009 C 
HETATM   34  C21 UNL     1       7.558   2.866   5.875  1.00  0.00     0.016 C 
HETATM   35  C18 UNL     1       8.925   0.620   7.080  1.00  0.00    -0.013 C 
HETATM   36  C20 UNL     1       9.438   1.995   7.209  1.00  0.00     0.016 C 
ENDBRANCH  26  27
ENDBRANCH  25  26
ENDBRANCH   5  25
BRANCH   4  37
HETATM   37  O7  UNL     1       8.767   8.342   7.179  1.00  0.00    -0.390 OA
ATOM     38  H7  UNL     1       8.165   8.009   6.524  1.00  0.00     0.210 HD
ENDBRANCH   4  37
TORSDOF 13
ENDMDL
MODEL 3
REMARK VINA RESULT: -7.285905508      0.104      1.319
REMARK  13 active torsions:
REMARK  status: ('A' for Active; 'I' for Inactive)
REMARK    1  A    between atoms: O1_1  and  C1_3 
REMARK    2  A    between atoms: C1_3  and  C2_4 
REMARK    3  A    between atoms: C3_6  and  O3_7 
REMARK    4  A    between atoms: C4_9  and  O4_10 
REMARK    5  A    between atoms: O4_10  and  C5_11 
REMARK    6  A    between atoms: C5_11  and  C6_12 
REMARK    7  A    between atoms: C7_13  and  O5_14 
REMARK    8  A    between atoms: C8_16  and  O6_17 
REMARK    9  A    between atoms: C9_19  and  O7_20 
REMARK   10  A    between atoms: C10_22  and  O8_23 
REMARK   11  A    between atoms: O8_23  and  C11_24 
REMARK   12  A    between atoms: C11_24  and  C12_25 
REMARK   13  A    between atoms: C22_35  and  O9_36 
ROOT
HETATM    1  C6  UNL     1       5.643   7.344   8.805  1.00  0.00     0.072 C 
HETATM    2  C7  UNL     1       6.587   7.730   9.894  1.00  0.00     0.158 C 
HETATM    3  C8  UNL     1       7.771   8.428   9.306  1.00  0.00     0.178 C 
HETATM    4  C9  UNL     1       8.587   7.607   8.351  1.00  0.00     0.180 C 
HETATM    5  C10 UNL     1       7.798   6.294   8.080  1.00  0.00     0.181 C 
HETATM    6  C22 UNL     1       6.444   6.777   7.650  1.00  0.00     0.158 C 
ENDROOT
BRANCH   1   7
HETATM    7  C5  UNL     1       4.849   8.558   8.382  1.00  0.00     0.181 C 
BRANCH   7   8
HETATM    8  O4  UNL     1       3.778   8.806   9.215  1.00  0.00    -0.356 OA
BRANCH   8   9
HETATM    9  C4  UNL     1       2.603   8.471   8.546  1.00  0.00     0.317 C 
HETATM   10  C3  UNL     1       1.726   7.538   9.336  1.00  0.00     0.315 C 
HETATM   11  O2  UNL     1       0.655   8.318   9.822  1.00  0.00    -0.324 OA
HETATM   12  C2  UNL     1       1.173   9.585   9.722  1.00  0.00     0.289 C 
HETATM   13  O10 UNL     1       1.779   9.615   8.443  1.00  0.00    -0.324 OA
BRANCH  10  14
HETATM   14  O3  UNL     1       2.391   6.873  10.343  1.00  0.00    -0.367 OA
ATOM     15  H3  UNL     1       2.071   5.986  10.464  1.00  0.00     0.212 HD
ENDBRANCH  10  14
BRANCH  12  16
HETATM   16  C1  UNL     1       0.129  10.676   9.733  1.00  0.00     0.225 C 
BRANCH  16  17
HETATM   17  O1  UNL     1       0.671  11.918   9.423  1.00  0.00    -0.396 OA
ATOM     18  H1  UNL     1       0.132  12.631   9.746  1.00  0.00     0.209 HD
ENDBRANCH  16  17
ENDBRANCH  12  16
ENDBRANCH   8   9
ENDBRANCH   7   8
ENDBRANCH   1   7
BRANCH   2  19
HETATM   19  O5  UNL     1       5.986   8.652  10.781  1.00  0.00    -0.392 OA
ATOM     20  H5  UNL     1       5.939   8.297  11.661  1.00  0.00     0.210 HD
ENDBRANCH   2  19
BRANCH   6  21
HETATM   21  O9  UNL     1       5.686   5.806   7.036  1.00  0.00    -0.392 OA
ATOM     22  H9  UNL     1       4.825   5.804   7.438  1.00  0.00     0.210 HD
ENDBRANCH   6  21
BRANCH   3  23
HETATM   23  O6  UNL     1       8.544   8.887  10.391  1.00  0.00    -0.390 OA
ATOM     24  H6  UNL     1       9.424   9.016  10.060  1.00  0.00     0.210 HD
ENDBRANCH   3  23
BRANCH   5  25
HETATM   25  O8  UNL     1       8.375   5.539   7.157  1.00  0.00    -0.380 OA
BRANCH  25  26
HETATM   26  C11 UNL     1       9.085   4.444   7.318  1.00  0.00     0.177 C 
BRANCH  26  27
HETATM   27  C12 UNL     1       8.536   3.063   7.263  1.00  0.00    -0.018 C 
HETATM   28  C13 UNL     1       9.588   1.988   7.278  1.00  0.00     0.016 C 
HETATM   29  C14 UNL     1       9.021   0.615   6.988  1.00  0.00    -0.013 C 
HETATM   30  C15 UNL     1       7.970   0.281   8.026  1.00  0.00     0.009 C 
HETATM   31  C19 UNL     1       8.416   0.579   5.627  1.00  0.00     0.009 C 
HETATM   32  C16 UNL     1       6.927   1.357   8.001  1.00  0.00    -0.013 C 
HETATM   33  C17 UNL     1       6.241   1.308   6.662  1.00  0.00     0.009 C 
HETATM   34  C21 UNL     1       7.486   2.738   8.274  1.00  0.00     0.016 C 
HETATM   35  C18 UNL     1       7.292   1.596   5.622  1.00  0.00    -0.013 C 
HETATM   36  C20 UNL     1       7.878   2.928   5.848  1.00  0.00     0.016 C 
ENDBRANCH  26  27
ENDBRANCH  25  26
ENDBRANCH   5  25
BRANCH   4  37
HETATM   37  O7  UNL     1       8.766   8.328   7.190  1.00  0.00    -0.390 OA
ATOM     38  H7  UNL     1       7.942   8.354   6.717  1.00  0.00     0.210 HD
ENDBRANCH   4  37
TORSDOF 13
ENDMDL
MODEL 4
REMARK VINA RESULT: -7.254707585      1.508      2.261
REMARK  13 active torsions:
REMARK  status: ('A' for Active; 'I' for Inactive)
REMARK    1  A    between atoms: O1_1  and  C1_3 
REMARK    2  A    between atoms: C1_3  and  C2_4 
REMARK    3  A    between atoms: C3_6  and  O3_7 
REMARK    4  A    between atoms: C4_9  and  O4_10 
REMARK    5  A    between atoms: O4_10  and  C5_11 
REMARK    6  A    between atoms: C5_11  and  C6_12 
REMARK    7  A    between atoms: C7_13  and  O5_14 
REMARK    8  A    between atoms: C8_16  and  O6_17 
REMARK    9  A    between atoms: C9_19  and  O7_20 
REMARK   10  A    between atoms: C10_22  and  O8_23 
REMARK   11  A    between atoms: O8_23  and  C11_24 
REMARK   12  A    between atoms: C11_24  and  C12_25 
REMARK   13  A    between atoms: C22_35  and  O9_36 
ROOT
HETATM    1  C6  UNL     1       5.521   7.466   8.879  1.00  0.00     0.072 C 
HETATM    2  C7  UNL     1       6.478   7.819   9.967  1.00  0.00     0.158 C 
HETATM    3  C8  UNL     1       7.692   8.462   9.377  1.00  0.00     0.178 C 
HETATM    4  C9  UNL     1       8.474   7.599   8.430  1.00  0.00     0.180 C 
HETATM    5  C10 UNL     1       7.629   6.319   8.167  1.00  0.00     0.181 C 
HETATM    6  C22 UNL     1       6.299   6.857   7.730  1.00  0.00     0.158 C 
ENDROOT
BRANCH   1   7
HETATM    7  C5  UNL     1       4.781   8.711   8.446  1.00  0.00     0.181 C 
BRANCH   7   8
HETATM    8  O4  UNL     1       3.683   8.977   9.238  1.00  0.00    -0.356 OA
BRANCH   8   9
HETATM    9  C4  UNL     1       2.536   8.560   8.568  1.00  0.00     0.317 C 
HETATM   10  C3  UNL     1       1.746   7.538   9.341  1.00  0.00     0.315 C 
HETATM   11  O2  UNL     1       0.617   8.213   9.852  1.00  0.00    -0.324 OA
HETATM   12  C2  UNL     1       1.026   9.521   9.779  1.00  0.00     0.289 C 
HETATM   13  O10 UNL     1       1.618   9.632   8.498  1.00  0.00    -0.324 OA
BRANCH  10  14
HETATM   14  O3  UNL     1       2.473   6.907  10.328  1.00  0.00    -0.367 OA
ATOM     15  H3  UNL     1       3.408   6.934  10.163  1.00  0.00     0.212 HD
ENDBRANCH  10  14
BRANCH  12  16
HETATM   16  C1  UNL     1      -0.106  10.519   9.823  1.00  0.00     0.225 C 
BRANCH  16  17
HETATM   17  O1  UNL     1      -1.197  10.037  10.536  1.00  0.00    -0.396 OA
ATOM     18  H1  UNL     1      -1.206  10.356  11.431  1.00  0.00     0.209 HD
ENDBRANCH  16  17
ENDBRANCH  12  16
ENDBRANCH   8   9
ENDBRANCH   7   8
ENDBRANCH   1   7
BRANCH   2  19
HETATM   19  O5  UNL     1       5.916   8.773  10.846  1.00  0.00    -0.392 OA
ATOM     20  H5  UNL     1       6.497   8.944  11.579  1.00  0.00     0.210 HD
ENDBRANCH   2  19
BRANCH   6  21
HETATM   21  O9  UNL     1       5.501   5.916   7.122  1.00  0.00    -0.392 OA
ATOM     22  H9  UNL     1       6.043   5.399   6.537  1.00  0.00     0.210 HD
ENDBRANCH   6  21
BRANCH   3  23
HETATM   23  O6  UNL     1       8.482   8.894  10.461  1.00  0.00    -0.390 OA
ATOM     24  H6  UNL     1       9.360   9.020  10.121  1.00  0.00     0.210 HD
ENDBRANCH   3  23
BRANCH   5  25
HETATM   25  O8  UNL     1       8.176   5.534   7.251  1.00  0.00    -0.380 OA
BRANCH  25  26
HETATM   26  C11 UNL     1       8.720   4.347   7.405  1.00  0.00     0.177 C 
BRANCH  26  27
HETATM   27  C12 UNL     1       9.745   3.762   6.500  1.00  0.00    -0.018 C 
HETATM   28  C13 UNL     1      10.344   4.751   5.538  1.00  0.00     0.016 C 
HETATM   29  C14 UNL     1      11.204   4.089   4.483  1.00  0.00    -0.013 C 
HETATM   30  C15 UNL     1      12.326   3.330   5.159  1.00  0.00     0.009 C 
HETATM   31  C19 UNL     1      10.387   3.155   3.657  1.00  0.00     0.009 C 
HETATM   32  C16 UNL     1      11.718   2.347   6.114  1.00  0.00    -0.013 C 
HETATM   33  C17 UNL     1      10.939   1.340   5.311  1.00  0.00     0.009 C 
HETATM   34  C21 UNL     1      10.842   2.997   7.164  1.00  0.00     0.016 C 
HETATM   35  C18 UNL     1       9.849   2.098   4.600  1.00  0.00    -0.013 C 
HETATM   36  C20 UNL     1       8.970   2.761   5.578  1.00  0.00     0.016 C 
ENDBRANCH  26  27
ENDBRANCH  25  26
ENDBRANCH   5  25
BRANCH   4  37
HETATM   37  O7  UNL     1       8.686   8.304   7.264  1.00  0.00    -0.390 OA
ATOM     38  H7  UNL     1       9.622   8.362   7.110  1.00  0.00     0.210 HD
ENDBRANCH   4  37
TORSDOF 13
ENDMDL
MODEL 5
REMARK VINA RESULT: -7.242534925      1.004      1.771
REMARK  13 active torsions:
REMARK  status: ('A' for Active; 'I' for Inactive)
REMARK    1  A    between atoms: O1_1  and  C1_3 
REMARK    2  A    between atoms: C1_3  and  C2_4 
REMARK    3  A    between atoms: C3_6  and  O3_7 
REMARK    4  A    between atoms: C4_9  and  O4_10 
REMARK    5  A    between atoms: O4_10  and  C5_11 
REMARK    6  A    between atoms: C5_11  and  C6_12 
REMARK    7  A    between atoms: C7_13  and  O5_14 
REMARK    8  A    between atoms: C8_16  and  O6_17 
REMARK    9  A    between atoms: C9_19  and  O7_20 
REMARK   10  A    between atoms: C10_22  and  O8_23 
REMARK   11  A    between atoms: O8_23  and  C11_24 
REMARK   12  A    between atoms: C11_24  and  C12_25 
REMARK   13  A    between atoms: C22_35  and  O9_36 
ROOT
HETATM    1  C6  UNL     1       5.537   7.467   8.873  1.00  0.00     0.072 C 
HETATM    2  C7  UNL     1       6.513   7.807   9.949  1.00  0.00     0.158 C 
HETATM    3  C8  UNL     1       7.716   8.458   9.346  1.00  0.00     0.178 C 
HETATM    4  C9  UNL     1       8.482   7.608   8.375  1.00  0.00     0.180 C 
HETATM    5  C10 UNL     1       7.634   6.332   8.109  1.00  0.00     0.181 C 
HETATM    6  C22 UNL     1       6.295   6.874   7.702  1.00  0.00     0.158 C 
ENDROOT
BRANCH   1   7
HETATM    7  C5  UNL     1       4.789   8.717   8.468  1.00  0.00     0.181 C 
BRANCH   7   8
HETATM    8  O4  UNL     1       3.687   8.954   9.263  1.00  0.00    -0.356 OA
BRANCH   8   9
HETATM    9  C4  UNL     1       2.545   8.539   8.582  1.00  0.00     0.317 C 
HETATM   10  C3  UNL     1       1.752   7.511   9.343  1.00  0.00     0.315 C 
HETATM   11  O2  UNL     1       0.617   8.182   9.848  1.00  0.00    -0.324 OA
HETATM   12  C2  UNL     1       1.024   9.491   9.785  1.00  0.00     0.289 C 
HETATM   13  O10 UNL     1       1.626   9.610   8.510  1.00  0.00    -0.324 OA
BRANCH  10  14
HETATM   14  O3  UNL     1       2.471   6.876  10.332  1.00  0.00    -0.367 OA
ATOM     15  H3  UNL     1       2.990   7.482  10.848  1.00  0.00     0.212 HD
ENDBRANCH  10  14
BRANCH  12  16
HETATM   16  C1  UNL     1      -0.110  10.487   9.826  1.00  0.00     0.225 C 
BRANCH  16  17
HETATM   17  O1  UNL     1      -1.204  10.001  10.532  1.00  0.00    -0.396 OA
ATOM     18  H1  UNL     1      -1.940  10.601  10.504  1.00  0.00     0.209 HD
ENDBRANCH  16  17
ENDBRANCH  12  16
ENDBRANCH   8   9
ENDBRANCH   7   8
ENDBRANCH   1   7
BRANCH   2  19
HETATM   19  O5  UNL     1       5.966   8.749  10.850  1.00  0.00    -0.392 OA
ATOM     20  H5  UNL     1       5.081   8.508  11.099  1.00  0.00     0.210 HD
ENDBRANCH   2  19
BRANCH   6  21
HETATM   21  O9  UNL     1       5.487   5.940   7.096  1.00  0.00    -0.392 OA
ATOM     22  H9  UNL     1       5.996   5.496   6.427  1.00  0.00     0.210 HD
ENDBRANCH   6  21
BRANCH   3  23
HETATM   23  O6  UNL     1       8.525   8.877  10.421  1.00  0.00    -0.390 OA
ATOM     24  H6  UNL     1       8.764   9.779  10.243  1.00  0.00     0.210 HD
ENDBRANCH   3  23
BRANCH   5  25
HETATM   25  O8  UNL     1       8.164   5.558   7.173  1.00  0.00    -0.380 OA
BRANCH  25  26
HETATM   26  C11 UNL     1       9.301   4.899   7.200  1.00  0.00     0.177 C 
BRANCH  26  27
HETATM   27  C12 UNL     1       9.463   3.474   6.806  1.00  0.00    -0.018 C 
HETATM   28  C13 UNL     1       8.643   2.518   7.629  1.00  0.00     0.016 C 
HETATM   29  C14 UNL     1       9.000   1.071   7.367  1.00  0.00    -0.013 C 
HETATM   30  C15 UNL     1       8.782   0.761   5.901  1.00  0.00     0.009 C 
HETATM   31  C19 UNL     1      10.421   0.812   7.732  1.00  0.00     0.009 C 
HETATM   32  C16 UNL     1       9.604   1.718   5.092  1.00  0.00    -0.013 C 
HETATM   33  C17 UNL     1      11.056   1.440   5.379  1.00  0.00     0.009 C 
HETATM   34  C21 UNL     1       9.267   3.170   5.358  1.00  0.00     0.016 C 
HETATM   35  C18 UNL     1      11.268   1.704   6.847  1.00  0.00    -0.013 C 
HETATM   36  C20 UNL     1      10.943   3.105   7.164  1.00  0.00     0.016 C 
ENDBRANCH  26  27
ENDBRANCH  25  26
ENDBRANCH   5  25
BRANCH   4  37
HETATM   37  O7  UNL     1       8.673   8.328   7.214  1.00  0.00    -0.390 OA
ATOM     38  H7  UNL     1       9.528   8.742   7.250  1.00  0.00     0.210 HD
ENDBRANCH   4  37
TORSDOF 13
ENDMDL
