MODEL 1
REMARK VINA RESULT: -6.605410587      0.000      0.000
REMARK  12 active torsions:
REMARK  status: ('A' for Active; 'I' for Inactive)
REMARK    1  A    between atoms: C2_2  and  C3_3 
REMARK    2  A    between atoms: C3_3  and  C4_4 
REMARK    3  A    between atoms: C5_6  and  O2_7 
REMARK    4  A    between atoms: O2_7  and  C6_8 
REMARK    5  A    between atoms: C7_10  and  C8_11 
REMARK    6  A    between atoms: C8_11  and  N1_12 
REMARK    7  A    between atoms: N1_12  and  C9_14 
REMARK    8  A    between atoms: C19_24  and  O4_25 
REMARK    9  A    between atoms: C20_27  and  O5_28 
REMARK   10  A    between atoms: C21_30  and  O6_31 
REMARK   11  A    between atoms: C22_33  and  O7_34 
REMARK   12  A    between atoms: C23_36  and  O8_37 
ROOT
HETATM    1  C6  UNL     1       6.326   6.995   8.648  1.00  0.00     0.294 C 
HETATM    2  O3  UNL     1       7.381   6.600   9.454  1.00  0.00    -0.349 OA
HETATM    3  C7  UNL     1       8.604   7.143   9.082  1.00  0.00     0.173 C 
HETATM    4  C19 UNL     1       8.555   8.598   9.453  1.00  0.00     0.180 C 
HETATM    5  C20 UNL     1       7.274   9.277   9.121  1.00  0.00     0.183 C 
HETATM    6  C21 UNL     1       6.261   8.455   8.393  1.00  0.00     0.204 C 
ENDROOT
BRANCH   1   7
HETATM    7  O2  UNL     1       5.136   6.561   9.220  1.00  0.00    -0.326 OA
BRANCH   7   8
HETATM    8  C5  UNL     1       4.687   5.350   8.781  1.00  0.00     0.294 C 
HETATM    9  O1  UNL     1       3.341   5.252   9.120  1.00  0.00    -0.351 OA
HETATM   10  C4  UNL     1       2.621   5.996   8.199  1.00  0.00     0.156 C 
HETATM   11  C23 UNL     1       3.483   6.285   7.019  1.00  0.00     0.180 C 
HETATM   12  C22 UNL     1       4.675   5.348   7.267  1.00  0.00     0.204 C 
BRANCH  10  13
HETATM   13  C3  UNL     1       2.138   7.274   8.852  1.00  0.00     0.034 C 
BRANCH  13  14
HETATM   14  C2  UNL     1       1.124   6.992   9.928  1.00  0.00    -0.002 C 
HETATM   15  C1  UNL     1       0.288   8.163  10.319  1.00  0.00     0.005 C 
ENDBRANCH  13  14
ENDBRANCH  10  13
BRANCH  11  16
HETATM   16  O8  UNL     1       2.874   5.996   5.803  1.00  0.00    -0.390 OA
ATOM     17  H8  UNL     1       2.907   5.075   5.572  1.00  0.00     0.210 HD
ENDBRANCH  11  16
BRANCH  12  18
HETATM   18  O7  UNL     1       4.379   4.069   6.781  1.00  0.00    -0.388 OA
ATOM     19  H7  UNL     1       4.733   3.403   7.359  1.00  0.00     0.210 HD
ENDBRANCH  12  18
ENDBRANCH   7   8
ENDBRANCH   1   7
BRANCH   6  20
HETATM   20  O6  UNL     1       4.993   8.954   8.777  1.00  0.00    -0.388 OA
ATOM     21  H6  UNL     1       4.308   8.379   8.456  1.00  0.00     0.210 HD
ENDBRANCH   6  20
BRANCH   3  22
HETATM   22  C8  UNL     1       8.949   6.873   7.650  1.00  0.00     0.149 C 
BRANCH  22  23
HETATM   23  N1  UNL     1       9.916   5.863   7.423  1.00  0.00    -0.410 N 
ATOM     24  H1  UNL     1      10.825   5.885   7.886  1.00  0.00     0.154 HD
BRANCH  23  25
HETATM   25  C9  UNL     1       9.571   4.815   6.522  1.00  0.00     0.026 C 
HETATM   26  C10 UNL     1      10.300   4.861   5.201  1.00  0.00     0.035 C 
HETATM   27  C11 UNL     1       9.822   3.725   4.334  1.00  0.00    -0.012 C 
HETATM   28  C12 UNL     1      10.236   2.424   4.969  1.00  0.00     0.009 C 
HETATM   29  C16 UNL     1       8.330   3.779   4.125  1.00  0.00     0.009 C 
HETATM   30  C13 UNL     1       9.599   2.353   6.329  1.00  0.00    -0.012 C 
HETATM   31  C14 UNL     1       8.095   2.303   6.134  1.00  0.00     0.009 C 
HETATM   32  C18 UNL     1      10.015   3.509   7.200  1.00  0.00     0.035 C 
HETATM   33  C15 UNL     1       7.672   3.570   5.456  1.00  0.00    -0.012 C 
HETATM   34  C17 UNL     1       8.088   4.729   6.372  1.00  0.00     0.035 C 
ENDBRANCH  23  25
ENDBRANCH  22  23
ENDBRANCH   3  22
BRANCH   5  35
HETATM   35  O5  UNL     1       6.690   9.834  10.285  1.00  0.00    -0.390 OA
ATOM     36  H5  UNL     1       5.887  10.292  10.068  1.00  0.00     0.210 HD
ENDBRANCH   5  35
BRANCH   4  37
HETATM   37  O4  UNL     1       8.722   8.638  10.863  1.00  0.00    -0.390 OA
ATOM     38  H4  UNL     1       7.897   8.958  11.208  1.00  0.00     0.210 HD
ENDBRANCH   4  37
TORSDOF 12
ENDMDL
MODEL 2
REMARK VINA RESULT: -6.393057364      3.563      6.961
REMARK  12 active torsions:
REMARK  status: ('A' for Active; 'I' for Inactive)
REMARK    1  A    between atoms: C2_2  and  C3_3 
REMARK    2  A    between atoms: C3_3  and  C4_4 
REMARK    3  A    between atoms: C5_6  and  O2_7 
REMARK    4  A    between atoms: O2_7  and  C6_8 
REMARK    5  A    between atoms: C7_10  and  C8_11 
REMARK    6  A    between atoms: C8_11  and  N1_12 
REMARK    7  A    between atoms: N1_12  and  C9_14 
REMARK    8  A    between atoms: C19_24  and  O4_25 
REMARK    9  A    between atoms: C20_27  and  O5_28 
REMARK   10  A    between atoms: C21_30  and  O6_31 
REMARK   11  A    between atoms: C22_33  and  O7_34 
REMARK   12  A    between atoms: C23_36  and  O8_37 
ROOT
HETATM    1  C6  UNL     1       4.240   4.850   7.341  1.00  0.00     0.294 C 
HETATM    2  O3  UNL     1       5.257   4.040   7.819  1.00  0.00    -0.349 OA
HETATM    3  C7  UNL     1       5.308   2.789   7.217  1.00  0.00     0.173 C 
HETATM    4  C19 UNL     1       5.817   3.009   5.821  1.00  0.00     0.180 C 
HETATM    5  C20 UNL     1       5.221   4.179   5.124  1.00  0.00     0.183 C 
HETATM    6  C21 UNL     1       4.148   4.912   5.862  1.00  0.00     0.204 C 
ENDROOT
BRANCH   1   7
HETATM    7  O2  UNL     1       4.402   6.128   7.861  1.00  0.00    -0.326 OA
BRANCH   7   8
HETATM    8  C5  UNL     1       3.798   6.350   9.063  1.00  0.00     0.294 C 
HETATM    9  O1  UNL     1       4.699   7.041   9.867  1.00  0.00    -0.351 OA
HETATM   10  C4  UNL     1       4.680   8.369   9.471  1.00  0.00     0.156 C 
HETATM   11  C23 UNL     1       3.473   8.617   8.635  1.00  0.00     0.180 C 
HETATM   12  C22 UNL     1       2.662   7.333   8.871  1.00  0.00     0.204 C 
BRANCH  10  13
HETATM   13  C3  UNL     1       5.950   8.682   8.706  1.00  0.00     0.034 C 
BRANCH  13  14
HETATM   14  C2  UNL     1       6.998   9.283   9.604  1.00  0.00    -0.002 C 
HETATM   15  C1  UNL     1       7.968   8.303  10.172  1.00  0.00     0.005 C 
ENDBRANCH  13  14
ENDBRANCH  10  13
BRANCH  11  16
HETATM   16  O8  UNL     1       2.747   9.736   9.027  1.00  0.00    -0.390 OA
ATOM     17  H8  UNL     1       2.204  10.097   8.336  1.00  0.00     0.210 HD
ENDBRANCH  11  16
BRANCH  12  18
HETATM   18  O7  UNL     1       1.915   7.456  10.049  1.00  0.00    -0.388 OA
ATOM     19  H7  UNL     1       1.641   8.356  10.177  1.00  0.00     0.210 HD
ENDBRANCH  12  18
ENDBRANCH   7   8
ENDBRANCH   1   7
BRANCH   6  20
HETATM   20  O6  UNL     1       4.218   6.260   5.433  1.00  0.00    -0.388 OA
ATOM     21  H6  UNL     1       5.126   6.533   5.375  1.00  0.00     0.210 HD
ENDBRANCH   6  20
BRANCH   3  22
HETATM   22  C8  UNL     1       4.007   2.050   7.301  1.00  0.00     0.149 C 
BRANCH  22  23
HETATM   23  N1  UNL     1       3.688   1.494   8.565  1.00  0.00    -0.410 N 
ATOM     24  H1  UNL     1       4.401   1.049   9.143  1.00  0.00     0.154 HD
BRANCH  23  25
HETATM   25  C9  UNL     1       2.334   1.584   8.997  1.00  0.00     0.026 C 
HETATM   26  C10 UNL     1       1.712   2.948   8.821  1.00  0.00     0.035 C 
HETATM   27  C11 UNL     1       0.298   2.916   9.343  1.00  0.00    -0.012 C 
HETATM   28  C12 UNL     1      -0.517   1.994   8.476  1.00  0.00     0.009 C 
HETATM   29  C16 UNL     1       0.253   2.487  10.787  1.00  0.00     0.009 C 
HETATM   30  C13 UNL     1       0.101   0.627   8.548  1.00  0.00    -0.012 C 
HETATM   31  C14 UNL     1      -0.027   0.134   9.977  1.00  0.00     0.009 C 
HETATM   32  C18 UNL     1       1.535   0.638   8.085  1.00  0.00     0.035 C 
HETATM   33  C15 UNL     1       0.738   1.070  10.862  1.00  0.00    -0.012 C 
HETATM   34  C17 UNL     1       2.196   1.048  10.383  1.00  0.00     0.035 C 
ENDBRANCH  23  25
ENDBRANCH  22  23
ENDBRANCH   3  22
BRANCH   5  35
HETATM   35  O5  UNL     1       6.232   5.088   4.725  1.00  0.00    -0.390 OA
ATOM     36  H5  UNL     1       5.917   5.983   4.780  1.00  0.00     0.210 HD
ENDBRANCH   5  35
BRANCH   4  37
HETATM   37  O4  UNL     1       7.211   3.239   5.955  1.00  0.00    -0.390 OA
ATOM     38  H4  UNL     1       7.632   2.574   5.423  1.00  0.00     0.210 HD
ENDBRANCH   4  37
TORSDOF 12
ENDMDL
MODEL 3
REMARK VINA RESULT: -6.386262346      3.562      6.969
REMARK  12 active torsions:
REMARK  status: ('A' for Active; 'I' for Inactive)
REMARK    1  A    between atoms: C2_2  and  C3_3 
REMARK    2  A    between atoms: C3_3  and  C4_4 
REMARK    3  A    between atoms: C5_6  and  O2_7 
REMARK    4  A    between atoms: O2_7  and  C6_8 
REMARK    5  A    between atoms: C7_10  and  C8_11 
REMARK    6  A    between atoms: C8_11  and  N1_12 
REMARK    7  A    between atoms: N1_12  and  C9_14 
REMARK    8  A    between atoms: C19_24  and  O4_25 
REMARK    9  A    between atoms: C20_27  and  O5_28 
REMARK   10  A    between atoms: C21_30  and  O6_31 
REMARK   11  A    between atoms: C22_33  and  O7_34 
REMARK   12  A    between atoms: C23_36  and  O8_37 
ROOT
HETATM    1  C6  UNL     1       4.307   4.858   7.405  1.00  0.00     0.294 C 
HETATM    2  O3  UNL     1       5.334   4.032   7.830  1.00  0.00    -0.349 OA
HETATM    3  C7  UNL     1       5.346   2.788   7.210  1.00  0.00     0.173 C 
HETATM    4  C19 UNL     1       5.798   3.021   5.797  1.00  0.00     0.180 C 
HETATM    5  C20 UNL     1       5.187   4.206   5.140  1.00  0.00     0.183 C 
HETATM    6  C21 UNL     1       4.154   4.940   5.932  1.00  0.00     0.204 C 
ENDROOT
BRANCH   1   7
HETATM    7  O2  UNL     1       4.505   6.128   7.933  1.00  0.00    -0.326 OA
BRANCH   7   8
HETATM    8  C5  UNL     1       3.886   6.367   9.125  1.00  0.00     0.294 C 
HETATM    9  O1  UNL     1       4.761   7.108   9.913  1.00  0.00    -0.351 OA
HETATM   10  C4  UNL     1       4.706   8.423   9.478  1.00  0.00     0.156 C 
HETATM   11  C23 UNL     1       3.497   8.609   8.628  1.00  0.00     0.180 C 
HETATM   12  C22 UNL     1       2.723   7.310   8.897  1.00  0.00     0.204 C 
BRANCH  10  13
HETATM   13  C3  UNL     1       5.970   8.751   8.712  1.00  0.00     0.034 C 
BRANCH  13  14
HETATM   14  C2  UNL     1       7.039   9.295   9.622  1.00  0.00    -0.002 C 
HETATM   15  C1  UNL     1       8.088   8.310  10.010  1.00  0.00     0.005 C 
ENDBRANCH  13  14
ENDBRANCH  10  13
BRANCH  11  16
HETATM   16  O8  UNL     1       2.736   9.718   8.982  1.00  0.00    -0.390 OA
ATOM     17  H8  UNL     1       1.804   9.599   8.839  1.00  0.00     0.210 HD
ENDBRANCH  11  16
BRANCH  12  18
HETATM   18  O7  UNL     1       1.965   7.444  10.067  1.00  0.00    -0.388 OA
ATOM     19  H7  UNL     1       1.304   8.118   9.959  1.00  0.00     0.210 HD
ENDBRANCH  12  18
ENDBRANCH   7   8
ENDBRANCH   1   7
BRANCH   6  20
HETATM   20  O6  UNL     1       4.220   6.293   5.517  1.00  0.00    -0.388 OA
ATOM     21  H6  UNL     1       3.644   6.431   4.775  1.00  0.00     0.210 HD
ENDBRANCH   6  20
BRANCH   3  22
HETATM   22  C8  UNL     1       4.042   2.062   7.339  1.00  0.00     0.149 C 
BRANCH  22  23
HETATM   23  N1  UNL     1       3.785   1.464   8.599  1.00  0.00    -0.410 N 
ATOM     24  H1  UNL     1       4.540   1.077   9.166  1.00  0.00     0.154 HD
BRANCH  23  25
HETATM   25  C9  UNL     1       2.432   1.425   9.042  1.00  0.00     0.026 C 
HETATM   26  C10 UNL     1       2.258   0.990  10.477  1.00  0.00     0.035 C 
HETATM   27  C11 UNL     1       0.787   0.960  10.808  1.00  0.00    -0.012 C 
HETATM   28  C12 UNL     1       0.250   2.365  10.752  1.00  0.00     0.009 C 
HETATM   29  C16 UNL     1       0.030   0.050   9.875  1.00  0.00     0.009 C 
HETATM   30  C13 UNL     1       0.466   2.886   9.359  1.00  0.00    -0.012 C 
HETATM   31  C14 UNL     1      -0.371   2.044   8.415  1.00  0.00     0.009 C 
HETATM   32  C18 UNL     1       1.924   2.875   8.979  1.00  0.00     0.035 C 
HETATM   33  C15 UNL     1       0.117   0.630   8.495  1.00  0.00    -0.012 C 
HETATM   34  C17 UNL     1       1.596   0.644   8.084  1.00  0.00     0.035 C 
ENDBRANCH  23  25
ENDBRANCH  22  23
ENDBRANCH   3  22
BRANCH   5  35
HETATM   35  O5  UNL     1       6.190   5.109   4.710  1.00  0.00    -0.390 OA
ATOM     36  H5  UNL     1       6.210   5.158   3.762  1.00  0.00     0.210 HD
ENDBRANCH   5  35
BRANCH   4  37
HETATM   37  O4  UNL     1       7.199   3.234   5.875  1.00  0.00    -0.390 OA
ATOM     38  H4  UNL     1       7.317   3.925   6.517  1.00  0.00     0.210 HD
ENDBRANCH   4  37
TORSDOF 12
ENDMDL
MODEL 4
REMARK VINA RESULT: -6.295137020      3.689      7.160
REMARK  12 active torsions:
REMARK  status: ('A' for Active; 'I' for Inactive)
REMARK    1  A    between atoms: C2_2  and  C3_3 
REMARK    2  A    between atoms: C3_3  and  C4_4 
REMARK    3  A    between atoms: C5_6  and  O2_7 
REMARK    4  A    between atoms: O2_7  and  C6_8 
REMARK    5  A    between atoms: C7_10  and  C8_11 
REMARK    6  A    between atoms: C8_11  and  N1_12 
REMARK    7  A    between atoms: N1_12  and  C9_14 
REMARK    8  A    between atoms: C19_24  and  O4_25 
REMARK    9  A    between atoms: C20_27  and  O5_28 
REMARK   10  A    between atoms: C21_30  and  O6_31 
REMARK   11  A    between atoms: C22_33  and  O7_34 
REMARK   12  A    between atoms: C23_36  and  O8_37 
ROOT
HETATM    1  C6  UNL     1       3.889   4.768   7.021  1.00  0.00     0.294 C 
HETATM    2  O3  UNL     1       4.661   3.723   7.502  1.00  0.00    -0.349 OA
HETATM    3  C7  UNL     1       4.536   2.550   6.768  1.00  0.00     0.173 C 
HETATM    4  C19 UNL     1       5.243   2.786   5.464  1.00  0.00     0.180 C 
HETATM    5  C20 UNL     1       4.980   4.114   4.850  1.00  0.00     0.183 C 
HETATM    6  C21 UNL     1       3.992   4.984   5.558  1.00  0.00     0.204 C 
ENDROOT
BRANCH   1   7
HETATM    7  O2  UNL     1       4.237   5.931   7.698  1.00  0.00    -0.326 OA
BRANCH   7   8
HETATM    8  C5  UNL     1       3.581   6.139   8.875  1.00  0.00     0.294 C 
HETATM    9  O1  UNL     1       4.511   6.599   9.801  1.00  0.00    -0.351 OA
HETATM   10  C4  UNL     1       4.732   7.942   9.542  1.00  0.00     0.156 C 
HETATM   11  C23 UNL     1       3.648   8.457   8.660  1.00  0.00     0.180 C 
HETATM   12  C22 UNL     1       2.631   7.307   8.711  1.00  0.00     0.204 C 
BRANCH  10  13
HETATM   13  C3  UNL     1       6.092   8.112   8.896  1.00  0.00     0.034 C 
BRANCH  13  14
HETATM   14  C2  UNL     1       7.039   8.856   9.799  1.00  0.00    -0.002 C 
HETATM   15  C1  UNL     1       8.163   8.036  10.335  1.00  0.00     0.005 C 
ENDBRANCH  13  14
ENDBRANCH  10  13
BRANCH  11  16
HETATM   16  O8  UNL     1       3.077   9.640   9.116  1.00  0.00    -0.390 OA
ATOM     17  H8  UNL     1       2.270   9.867   8.670  1.00  0.00     0.210 HD
ENDBRANCH  11  16
BRANCH  12  18
HETATM   18  O7  UNL     1       1.821   7.443   9.845  1.00  0.00    -0.388 OA
ATOM     19  H7  UNL     1       1.725   8.359  10.078  1.00  0.00     0.210 HD
ENDBRANCH  12  18
ENDBRANCH   7   8
ENDBRANCH   1   7
BRANCH   6  20
HETATM   20  O6  UNL     1       4.378   6.321   5.295  1.00  0.00    -0.388 OA
ATOM     21  H6  UNL     1       3.795   6.704   4.649  1.00  0.00     0.210 HD
ENDBRANCH   6  20
BRANCH   3  22
HETATM   22  C8  UNL     1       3.115   2.095   6.636  1.00  0.00     0.149 C 
BRANCH  22  23
HETATM   23  N1  UNL     1       2.738   0.991   7.442  1.00  0.00    -0.410 N 
ATOM     24  H1  UNL     1       3.141   0.066   7.296  1.00  0.00     0.154 HD
BRANCH  23  25
HETATM   25  C9  UNL     1       1.775   1.226   8.465  1.00  0.00     0.026 C 
HETATM   26  C10 UNL     1       0.762   0.119   8.635  1.00  0.00     0.035 C 
HETATM   27  C11 UNL     1      -0.212   0.504   9.719  1.00  0.00    -0.012 C 
HETATM   28  C12 UNL     1       0.525   0.570  11.030  1.00  0.00     0.009 C 
HETATM   29  C16 UNL     1      -0.893   1.812   9.409  1.00  0.00     0.009 C 
HETATM   30  C13 UNL     1       1.604   1.608  10.900  1.00  0.00    -0.012 C 
HETATM   31  C14 UNL     1       0.932   2.952  10.690  1.00  0.00     0.009 C 
HETATM   32  C18 UNL     1       2.562   1.279   9.785  1.00  0.00     0.035 C 
HETATM   33  C15 UNL     1       0.152   2.887   9.412  1.00  0.00    -0.012 C 
HETATM   34  C17 UNL     1       1.153   2.572   8.292  1.00  0.00     0.035 C 
ENDBRANCH  23  25
ENDBRANCH  22  23
ENDBRANCH   3  22
BRANCH   5  35
HETATM   35  O5  UNL     1       6.191   4.823   4.661  1.00  0.00    -0.390 OA
ATOM     36  H5  UNL     1       6.501   4.722   3.769  1.00  0.00     0.210 HD
ENDBRANCH   5  35
BRANCH   4  37
HETATM   37  O4  UNL     1       6.629   2.706   5.762  1.00  0.00    -0.390 OA
ATOM     38  H4  UNL     1       7.035   3.421   5.286  1.00  0.00     0.210 HD
ENDBRANCH   4  37
TORSDOF 12
ENDMDL
MODEL 5
REMARK VINA RESULT: -6.287418185      3.762      8.018
REMARK  12 active torsions:
REMARK  status: ('A' for Active; 'I' for Inactive)
REMARK    1  A    between atoms: C2_2  and  C3_3 
REMARK    2  A    between atoms: C3_3  and  C4_4 
REMARK    3  A    between atoms: C5_6  and  O2_7 
REMARK    4  A    between atoms: O2_7  and  C6_8 
REMARK    5  A    between atoms: C7_10  and  C8_11 
REMARK    6  A    between atoms: C8_11  and  N1_12 
REMARK    7  A    between atoms: N1_12  and  C9_14 
REMARK    8  A    between atoms: C19_24  and  O4_25 
REMARK    9  A    between atoms: C20_27  and  O5_28 
REMARK   10  A    between atoms: C21_30  and  O6_31 
REMARK   11  A    between atoms: C22_33  and  O7_34 
REMARK   12  A    between atoms: C23_36  and  O8_37 
ROOT
HETATM    1  C6  UNL     1       3.682   6.007   7.756  1.00  0.00     0.294 C 
HETATM    2  O3  UNL     1       4.138   5.012   8.605  1.00  0.00    -0.349 OA
HETATM    3  C7  UNL     1       3.479   3.799   8.453  1.00  0.00     0.173 C 
HETATM    4  C19 UNL     1       3.942   3.224   7.144  1.00  0.00     0.180 C 
HETATM    5  C20 UNL     1       4.020   4.207   6.032  1.00  0.00     0.183 C 
HETATM    6  C21 UNL     1       3.549   5.591   6.339  1.00  0.00     0.204 C 
ENDROOT
BRANCH   1   7
HETATM    7  O2  UNL     1       4.531   7.103   7.852  1.00  0.00    -0.326 OA
BRANCH   7   8
HETATM    8  C5  UNL     1       4.776   7.541   9.120  1.00  0.00     0.294 C 
HETATM    9  O1  UNL     1       5.953   6.939   9.554  1.00  0.00    -0.351 OA
HETATM   10  C4  UNL     1       7.012   7.624   8.978  1.00  0.00     0.156 C 
HETATM   11  C23 UNL     1       6.524   8.928   8.448  1.00  0.00     0.180 C 
HETATM   12  C22 UNL     1       5.124   9.015   9.075  1.00  0.00     0.204 C 
BRANCH  10  13
HETATM   13  C3  UNL     1       7.618   6.778   7.877  1.00  0.00     0.034 C 
BRANCH  13  14
HETATM   14  C2  UNL     1       7.587   5.314   8.230  1.00  0.00    -0.002 C 
HETATM   15  C1  UNL     1       8.513   4.461   7.431  1.00  0.00     0.005 C 
ENDBRANCH  13  14
ENDBRANCH  10  13
BRANCH  11  16
HETATM   16  O8  UNL     1       7.305  10.011   8.836  1.00  0.00    -0.390 OA
ATOM     17  H8  UNL     1       8.211   9.944   8.558  1.00  0.00     0.210 HD
ENDBRANCH  11  16
BRANCH  12  18
HETATM   18  O7  UNL     1       5.218   9.536  10.371  1.00  0.00    -0.388 OA
ATOM     19  H7  UNL     1       5.049  10.471  10.366  1.00  0.00     0.210 HD
ENDBRANCH  12  18
ENDBRANCH   7   8
ENDBRANCH   1   7
BRANCH   6  20
HETATM   20  O6  UNL     1       4.299   6.461   5.511  1.00  0.00    -0.388 OA
ATOM     21  H6  UNL     1       5.038   5.994   5.138  1.00  0.00     0.210 HD
ENDBRANCH   6  20
BRANCH   3  22
HETATM   22  C8  UNL     1       1.992   3.923   8.592  1.00  0.00     0.149 C 
BRANCH  22  23
HETATM   23  N1  UNL     1       1.445   3.491   9.826  1.00  0.00    -0.410 N 
ATOM     24  H1  UNL     1       1.910   3.691  10.711  1.00  0.00     0.154 HD
BRANCH  23  25
HETATM   25  C9  UNL     1       0.219   2.767   9.780  1.00  0.00     0.026 C 
HETATM   26  C10 UNL     1      -0.055   2.087   8.461  1.00  0.00     0.035 C 
HETATM   27  C11 UNL     1      -1.389   1.388   8.535  1.00  0.00    -0.012 C 
HETATM   28  C12 UNL     1      -1.295   0.273   9.542  1.00  0.00     0.009 C 
HETATM   29  C16 UNL     1      -2.497   2.347   8.886  1.00  0.00     0.009 C 
HETATM   30  C13 UNL     1      -0.945   0.881  10.871  1.00  0.00    -0.012 C 
HETATM   31  C14 UNL     1      -2.098   1.774  11.290  1.00  0.00     0.009 C 
HETATM   32  C18 UNL     1       0.357   1.636  10.813  1.00  0.00     0.035 C 
HETATM   33  C15 UNL     1      -2.239   2.862  10.270  1.00  0.00    -0.012 C 
HETATM   34  C17 UNL     1      -0.908   3.627  10.245  1.00  0.00     0.035 C 
ENDBRANCH  23  25
ENDBRANCH  22  23
ENDBRANCH   3  22
BRANCH   5  35
HETATM   35  O5  UNL     1       5.333   4.256   5.503  1.00  0.00    -0.390 OA
ATOM     36  H5  UNL     1       5.477   3.536   4.900  1.00  0.00     0.210 HD
ENDBRANCH   5  35
BRANCH   4  37
HETATM   37  O4  UNL     1       5.250   2.728   7.387  1.00  0.00    -0.390 OA
ATOM     38  H4  UNL     1       5.236   1.822   7.102  1.00  0.00     0.210 HD
ENDBRANCH   4  37
TORSDOF 12
ENDMDL
