MODEL 1
REMARK VINA RESULT: -6.984651308      0.000      0.000
REMARK  11 active torsions:
REMARK  status: ('A' for Active; 'I' for Inactive)
REMARK    1  A    between atoms: C2_2  and  S1_4 
REMARK    2  A    between atoms: S1_4  and  C4_5 
REMARK    3  A    between atoms: C5_7  and  O2_8 
REMARK    4  A    between atoms: O2_8  and  C6_9 
REMARK    5  A    between atoms: C7_11  and  C8_12 
REMARK    6  A    between atoms: C8_12  and  O4_13 
REMARK    7  A    between atoms: C10_16  and  N1_17 
REMARK       I    between atoms: N1_17  and  C11_19 
REMARK       I    between atoms: C11_19  and  N2_21 
REMARK    8  A    between atoms: N2_21  and  C12_23 
REMARK    9  A    between atoms: C16_28  and  O7_29 
REMARK   10  A    between atoms: C17_31  and  O8_32 
REMARK   11  A    between atoms: C18_34  and  O9_35 
ROOT
HETATM    1  C6  UNL     1       3.558   8.657   8.558  1.00  0.00     0.286 C 
HETATM    2  O3  UNL     1       3.074   9.814   9.118  1.00  0.00    -0.352 OA
HETATM    3  C7  UNL     1       1.692   9.793   8.921  1.00  0.00     0.150 C 
HETATM    4  C9  UNL     1       1.305   8.349   9.131  1.00  0.00     0.064 C 
HETATM    5  C10 UNL     1       2.451   7.645   8.453  1.00  0.00     0.144 C 
ENDROOT
BRANCH   1   6
HETATM    6  O2  UNL     1       4.524   8.119   9.426  1.00  0.00    -0.327 OA
BRANCH   6   7
HETATM    7  C5  UNL     1       5.791   8.194   8.893  1.00  0.00     0.295 C 
HETATM    8  O1  UNL     1       6.322   6.874   8.908  1.00  0.00    -0.340 OA
HETATM    9  C4  UNL     1       7.403   6.800   8.030  1.00  0.00     0.217 C 
HETATM   10  C18 UNL     1       8.450   7.809   8.265  1.00  0.00     0.188 C 
HETATM   11  C17 UNL     1       8.145   8.870   9.268  1.00  0.00     0.183 C 
HETATM   12  C16 UNL     1       6.753   8.969   9.755  1.00  0.00     0.204 C 
BRANCH   9  13
HETATM   13  S1  UNL     1       7.973   5.093   8.050  1.00  0.00    -0.131 SA
BRANCH  13  14
HETATM   14  C2  UNL     1       8.912   4.594   6.617  1.00  0.00     0.041 C 
HETATM   15  C1  UNL     1      10.219   3.927   6.965  1.00  0.00     0.021 C 
HETATM   16  C3  UNL     1       8.125   3.851   5.565  1.00  0.00     0.021 C 
ENDBRANCH  13  14
ENDBRANCH   9  13
BRANCH  10  17
HETATM   17  O9  UNL     1       8.794   8.407   7.025  1.00  0.00    -0.389 OA
ATOM     18  H9  UNL     1       9.740   8.428   6.949  1.00  0.00     0.210 HD
ENDBRANCH  10  17
BRANCH  11  19
HETATM   19  O8  UNL     1       8.999   8.800  10.394  1.00  0.00    -0.390 OA
ATOM     20  H8  UNL     1       9.781   9.302  10.201  1.00  0.00     0.210 HD
ENDBRANCH  11  19
BRANCH  12  21
HETATM   21  O7  UNL     1       6.677   8.366  11.035  1.00  0.00    -0.388 OA
ATOM     22  H7  UNL     1       6.890   7.452  10.893  1.00  0.00     0.210 HD
ENDBRANCH  12  21
ENDBRANCH   6   7
ENDBRANCH   1   6
BRANCH   5  23
HETATM   23  N1  UNL     1       2.779   6.395   9.079  1.00  0.00    -0.334 N 
HETATM   24  C11 UNL     1       3.074   5.271   8.266  1.00  0.00     0.317 C 
HETATM   25  O5  UNL     1       3.046   5.377   6.996  1.00  0.00    -0.247 OA
HETATM   26  N2  UNL     1       3.405   4.004   8.819  1.00  0.00    -0.336 N 
ATOM     27  H2  UNL     1       3.437   3.890   9.833  1.00  0.00     0.164 HD
ATOM     28  H1  UNL     1       2.800   6.316  10.096  1.00  0.00     0.164 HD
BRANCH  26  29
HETATM   29  C12 UNL     1       3.692   2.895   7.981  1.00  0.00     0.112 C 
HETATM   30  C13 UNL     1       3.323   1.561   8.648  1.00  0.00     0.053 C 
HETATM   31  C14 UNL     1       4.231   0.620   7.917  1.00  0.00     0.169 C 
HETATM   32  O6  UNL     1       5.361   1.311   7.558  1.00  0.00    -0.389 OA
HETATM   33  C15 UNL     1       5.184   2.651   7.783  1.00  0.00     0.192 C 
ENDBRANCH  26  29
ENDBRANCH   5  23
BRANCH   3  34
HETATM   34  C8  UNL     1       0.960  10.723   9.848  1.00  0.00     0.196 C 
BRANCH  34  35
HETATM   35  O4  UNL     1       1.039  12.011   9.363  1.00  0.00    -0.398 OA
ATOM     36  H4  UNL     1       0.214  12.456   9.513  1.00  0.00     0.209 HD
ENDBRANCH  34  35
ENDBRANCH   3  34
TORSDOF 11
ENDMDL
MODEL 2
REMARK VINA RESULT: -6.953305961      2.175      6.361
REMARK  11 active torsions:
REMARK  status: ('A' for Active; 'I' for Inactive)
REMARK    1  A    between atoms: C2_2  and  S1_4 
REMARK    2  A    between atoms: S1_4  and  C4_5 
REMARK    3  A    between atoms: C5_7  and  O2_8 
REMARK    4  A    between atoms: O2_8  and  C6_9 
REMARK    5  A    between atoms: C7_11  and  C8_12 
REMARK    6  A    between atoms: C8_12  and  O4_13 
REMARK    7  A    between atoms: C10_16  and  N1_17 
REMARK       I    between atoms: N1_17  and  C11_19 
REMARK       I    between atoms: C11_19  and  N2_21 
REMARK    8  A    between atoms: N2_21  and  C12_23 
REMARK    9  A    between atoms: C16_28  and  O7_29 
REMARK   10  A    between atoms: C17_31  and  O8_32 
REMARK   11  A    between atoms: C18_34  and  O9_35 
ROOT
HETATM    1  C6  UNL     1       7.858   7.171   8.795  1.00  0.00     0.286 C 
HETATM    2  O3  UNL     1       8.935   7.138   9.646  1.00  0.00    -0.352 OA
HETATM    3  C7  UNL     1       8.824   8.269  10.458  1.00  0.00     0.150 C 
HETATM    4  C9  UNL     1       7.345   8.389  10.732  1.00  0.00     0.064 C 
HETATM    5  C10 UNL     1       6.775   8.032   9.385  1.00  0.00     0.144 C 
ENDROOT
BRANCH   1   6
HETATM    6  O2  UNL     1       7.337   5.869   8.695  1.00  0.00    -0.327 OA
BRANCH   6   7
HETATM    7  C5  UNL     1       6.830   5.615   7.440  1.00  0.00     0.295 C 
HETATM    8  O1  UNL     1       5.547   5.029   7.627  1.00  0.00    -0.340 OA
HETATM    9  C4  UNL     1       4.818   5.124   6.441  1.00  0.00     0.217 C 
HETATM   10  C18 UNL     1       5.501   4.571   5.260  1.00  0.00     0.188 C 
HETATM   11  C17 UNL     1       6.922   4.157   5.440  1.00  0.00     0.183 C 
HETATM   12  C16 UNL     1       7.596   4.553   6.694  1.00  0.00     0.204 C 
BRANCH   9  13
HETATM   13  S1  UNL     1       3.191   4.431   6.775  1.00  0.00    -0.131 SA
BRANCH  13  14
HETATM   14  C2  UNL     1       3.032   3.599   8.346  1.00  0.00     0.041 C 
HETATM   15  C1  UNL     1       1.814   4.025   9.124  1.00  0.00     0.021 C 
HETATM   16  C3  UNL     1       3.214   2.101   8.295  1.00  0.00     0.021 C 
ENDBRANCH  13  14
ENDBRANCH   9  13
BRANCH  10  17
HETATM   17  O9  UNL     1       5.406   5.508   4.199  1.00  0.00    -0.389 OA
ATOM     18  H9  UNL     1       6.158   6.088   4.235  1.00  0.00     0.210 HD
ENDBRANCH  10  17
BRANCH  11  19
HETATM   19  O8  UNL     1       7.096   2.762   5.272  1.00  0.00    -0.390 OA
ATOM     20  H8  UNL     1       7.255   2.382   6.127  1.00  0.00     0.210 HD
ENDBRANCH  11  19
BRANCH  12  21
HETATM   21  O7  UNL     1       7.628   3.436   7.563  1.00  0.00    -0.388 OA
ATOM     22  H7  UNL     1       6.766   3.403   7.962  1.00  0.00     0.210 HD
ENDBRANCH  12  21
ENDBRANCH   6   7
ENDBRANCH   1   6
BRANCH   5  23
HETATM   23  N1  UNL     1       5.514   7.351   9.481  1.00  0.00    -0.334 N 
HETATM   24  C11 UNL     1       4.319   8.070   9.229  1.00  0.00     0.317 C 
HETATM   25  O5  UNL     1       4.370   9.306   8.920  1.00  0.00    -0.247 OA
HETATM   26  N2  UNL     1       3.037   7.459   9.308  1.00  0.00    -0.336 N 
ATOM     27  H2  UNL     1       2.965   6.471   9.551  1.00  0.00     0.164 HD
ATOM     28  H1  UNL     1       5.478   6.362   9.728  1.00  0.00     0.164 HD
BRANCH  26  29
HETATM   29  C12 UNL     1       1.857   8.206   9.053  1.00  0.00     0.112 C 
HETATM   30  C13 UNL     1       2.045   9.699   9.365  1.00  0.00     0.053 C 
HETATM   31  C14 UNL     1       0.628  10.113   9.619  1.00  0.00     0.169 C 
HETATM   32  O6  UNL     1      -0.046   9.034  10.133  1.00  0.00    -0.389 OA
HETATM   33  C15 UNL     1       0.725   7.906  10.030  1.00  0.00     0.192 C 
ENDBRANCH  26  29
ENDBRANCH   5  23
BRANCH   3  34
HETATM   34  C8  UNL     1       9.633   8.156  11.720  1.00  0.00     0.196 C 
BRANCH  34  35
HETATM   35  O4  UNL     1       9.291   6.998  12.384  1.00  0.00    -0.398 OA
ATOM     36  H4  UNL     1       9.633   6.249  11.910  1.00  0.00     0.209 HD
ENDBRANCH  34  35
ENDBRANCH   3  34
TORSDOF 11
ENDMDL
MODEL 3
REMARK VINA RESULT: -6.783852412      2.339      6.324
REMARK  11 active torsions:
REMARK  status: ('A' for Active; 'I' for Inactive)
REMARK    1  A    between atoms: C2_2  and  S1_4 
REMARK    2  A    between atoms: S1_4  and  C4_5 
REMARK    3  A    between atoms: C5_7  and  O2_8 
REMARK    4  A    between atoms: O2_8  and  C6_9 
REMARK    5  A    between atoms: C7_11  and  C8_12 
REMARK    6  A    between atoms: C8_12  and  O4_13 
REMARK    7  A    between atoms: C10_16  and  N1_17 
REMARK       I    between atoms: N1_17  and  C11_19 
REMARK       I    between atoms: C11_19  and  N2_21 
REMARK    8  A    between atoms: N2_21  and  C12_23 
REMARK    9  A    between atoms: C16_28  and  O7_29 
REMARK   10  A    between atoms: C17_31  and  O8_32 
REMARK   11  A    between atoms: C18_34  and  O9_35 
ROOT
HETATM    1  C6  UNL     1       7.805   7.184   8.798  1.00  0.00     0.286 C 
HETATM    2  O3  UNL     1       8.880   7.149   9.651  1.00  0.00    -0.352 OA
HETATM    3  C7  UNL     1       8.776   8.287  10.455  1.00  0.00     0.150 C 
HETATM    4  C9  UNL     1       7.297   8.420  10.726  1.00  0.00     0.064 C 
HETATM    5  C10 UNL     1       6.727   8.057   9.380  1.00  0.00     0.144 C 
ENDROOT
BRANCH   1   6
HETATM    6  O2  UNL     1       7.275   5.885   8.706  1.00  0.00    -0.327 OA
BRANCH   6   7
HETATM    7  C5  UNL     1       7.244   5.434   7.406  1.00  0.00     0.295 C 
HETATM    8  O1  UNL     1       6.210   4.460   7.333  1.00  0.00    -0.340 OA
HETATM    9  C4  UNL     1       5.850   4.266   6.000  1.00  0.00     0.217 C 
HETATM   10  C18 UNL     1       6.973   3.934   5.107  1.00  0.00     0.188 C 
HETATM   11  C17 UNL     1       8.343   4.025   5.690  1.00  0.00     0.183 C 
HETATM   12  C16 UNL     1       8.480   4.666   7.015  1.00  0.00     0.204 C 
BRANCH   9  13
HETATM   13  S1  UNL     1       4.496   3.080   5.994  1.00  0.00    -0.131 SA
BRANCH  13  14
HETATM   14  C2  UNL     1       2.893   3.764   6.380  1.00  0.00     0.041 C 
HETATM   15  C1  UNL     1       1.754   2.988   5.770  1.00  0.00     0.021 C 
HETATM   16  C3  UNL     1       2.676   4.097   7.836  1.00  0.00     0.021 C 
ENDBRANCH  13  14
ENDBRANCH   9  13
BRANCH  10  17
HETATM   17  O9  UNL     1       6.891   4.750   3.949  1.00  0.00    -0.389 OA
ATOM     18  H9  UNL     1       7.539   4.453   3.320  1.00  0.00     0.210 HD
ENDBRANCH  10  17
BRANCH  11  19
HETATM   19  O8  UNL     1       8.983   2.765   5.745  1.00  0.00    -0.390 OA
ATOM     20  H8  UNL     1       8.495   2.163   5.196  1.00  0.00     0.210 HD
ENDBRANCH  11  19
BRANCH  12  21
HETATM   21  O7  UNL     1       8.616   3.653   7.995  1.00  0.00    -0.388 OA
ATOM     22  H7  UNL     1       9.547   3.470   8.039  1.00  0.00     0.210 HD
ENDBRANCH  12  21
ENDBRANCH   6   7
ENDBRANCH   1   6
BRANCH   5  23
HETATM   23  N1  UNL     1       5.461   7.386   9.479  1.00  0.00    -0.334 N 
HETATM   24  C11 UNL     1       4.271   8.116   9.236  1.00  0.00     0.317 C 
HETATM   25  O5  UNL     1       4.331   9.354   8.934  1.00  0.00    -0.247 OA
HETATM   26  N2  UNL     1       2.984   7.516   9.319  1.00  0.00    -0.336 N 
ATOM     27  H2  UNL     1       2.905   6.527   9.556  1.00  0.00     0.164 HD
ATOM     28  H1  UNL     1       5.419   6.396   9.720  1.00  0.00     0.164 HD
BRANCH  26  29
HETATM   29  C12 UNL     1       1.809   8.274   9.074  1.00  0.00     0.112 C 
HETATM   30  C13 UNL     1       2.012   9.764   9.391  1.00  0.00     0.053 C 
HETATM   31  C14 UNL     1       0.600  10.189   9.656  1.00  0.00     0.169 C 
HETATM   32  O6  UNL     1      -0.080   9.114  10.169  1.00  0.00    -0.389 OA
HETATM   33  C15 UNL     1       0.681   7.980  10.056  1.00  0.00     0.192 C 
ENDBRANCH  26  29
ENDBRANCH   5  23
BRANCH   3  34
HETATM   34  C8  UNL     1       9.582   8.178  11.720  1.00  0.00     0.196 C 
BRANCH  34  35
HETATM   35  O4  UNL     1       9.272   6.998  12.362  1.00  0.00    -0.398 OA
ATOM     36  H4  UNL     1       9.904   6.331  12.121  1.00  0.00     0.209 HD
ENDBRANCH  34  35
ENDBRANCH   3  34
TORSDOF 11
ENDMDL
MODEL 4
REMARK VINA RESULT: -6.618496415      2.655      6.331
REMARK  11 active torsions:
REMARK  status: ('A' for Active; 'I' for Inactive)
REMARK    1  A    between atoms: C2_2  and  S1_4 
REMARK    2  A    between atoms: S1_4  and  C4_5 
REMARK    3  A    between atoms: C5_7  and  O2_8 
REMARK    4  A    between atoms: O2_8  and  C6_9 
REMARK    5  A    between atoms: C7_11  and  C8_12 
REMARK    6  A    between atoms: C8_12  and  O4_13 
REMARK    7  A    between atoms: C10_16  and  N1_17 
REMARK       I    between atoms: N1_17  and  C11_19 
REMARK       I    between atoms: C11_19  and  N2_21 
REMARK    8  A    between atoms: N2_21  and  C12_23 
REMARK    9  A    between atoms: C16_28  and  O7_29 
REMARK   10  A    between atoms: C17_31  and  O8_32 
REMARK   11  A    between atoms: C18_34  and  O9_35 
ROOT
HETATM    1  C6  UNL     1       7.845   7.066   8.731  1.00  0.00     0.286 C 
HETATM    2  O3  UNL     1       8.896   7.059   9.615  1.00  0.00    -0.352 OA
HETATM    3  C7  UNL     1       8.765   8.217  10.385  1.00  0.00     0.150 C 
HETATM    4  C9  UNL     1       7.279   8.351  10.610  1.00  0.00     0.064 C 
HETATM    5  C10 UNL     1       6.748   7.950   9.259  1.00  0.00     0.144 C 
ENDROOT
BRANCH   1   6
HETATM    6  O2  UNL     1       7.322   5.764   8.659  1.00  0.00    -0.327 OA
BRANCH   6   7
HETATM    7  C5  UNL     1       7.366   5.263   7.377  1.00  0.00     0.295 C 
HETATM    8  O1  UNL     1       6.021   5.015   6.987  1.00  0.00    -0.340 OA
HETATM    9  C4  UNL     1       5.955   4.905   5.598  1.00  0.00     0.217 C 
HETATM   10  C18 UNL     1       6.880   3.915   5.021  1.00  0.00     0.188 C 
HETATM   11  C17 UNL     1       7.873   3.303   5.950  1.00  0.00     0.183 C 
HETATM   12  C16 UNL     1       8.013   3.905   7.292  1.00  0.00     0.204 C 
BRANCH   9  13
HETATM   13  S1  UNL     1       4.222   4.665   5.177  1.00  0.00    -0.131 SA
BRANCH  13  14
HETATM   14  C2  UNL     1       3.876   4.565   3.429  1.00  0.00     0.041 C 
HETATM   15  C1  UNL     1       2.409   4.402   3.121  1.00  0.00     0.021 C 
HETATM   16  C3  UNL     1       4.550   5.619   2.584  1.00  0.00     0.021 C 
ENDBRANCH  13  14
ENDBRANCH   9  13
BRANCH  10  17
HETATM   17  O9  UNL     1       7.554   4.508   3.922  1.00  0.00    -0.389 OA
ATOM     18  H9  UNL     1       7.359   5.438   3.910  1.00  0.00     0.210 HD
ENDBRANCH  10  17
BRANCH  11  19
HETATM   19  O8  UNL     1       7.663   1.913   6.113  1.00  0.00    -0.390 OA
ATOM     20  H8  UNL     1       7.434   1.756   7.021  1.00  0.00     0.210 HD
ENDBRANCH  11  19
BRANCH  12  21
HETATM   21  O7  UNL     1       7.315   3.100   8.225  1.00  0.00    -0.388 OA
ATOM     22  H7  UNL     1       7.985   2.723   8.782  1.00  0.00     0.210 HD
ENDBRANCH  12  21
ENDBRANCH   6   7
ENDBRANCH   1   6
BRANCH   5  23
HETATM   23  N1  UNL     1       5.482   7.277   9.340  1.00  0.00    -0.334 N 
HETATM   24  C11 UNL     1       4.291   8.018   9.138  1.00  0.00     0.317 C 
HETATM   25  O5  UNL     1       4.350   9.267   8.888  1.00  0.00    -0.247 OA
HETATM   26  N2  UNL     1       3.004   7.415   9.206  1.00  0.00    -0.336 N 
ATOM     27  H2  UNL     1       2.926   6.417   9.403  1.00  0.00     0.164 HD
ATOM     28  H1  UNL     1       5.440   6.277   9.541  1.00  0.00     0.164 HD
BRANCH  26  29
HETATM   29  C12 UNL     1       1.828   8.184   9.004  1.00  0.00     0.112 C 
HETATM   30  C13 UNL     1       2.051   9.669   9.329  1.00  0.00     0.053 C 
HETATM   31  C14 UNL     1       0.650  10.102   9.639  1.00  0.00     0.169 C 
HETATM   32  O6  UNL     1      -0.023   9.026  10.161  1.00  0.00    -0.389 OA
HETATM   33  C15 UNL     1       0.726   7.887  10.015  1.00  0.00     0.192 C 
ENDBRANCH  26  29
ENDBRANCH   5  23
BRANCH   3  34
HETATM   34  C8  UNL     1       9.536   8.145  11.674  1.00  0.00     0.196 C 
BRANCH  34  35
HETATM   35  O4  UNL     1       9.273   6.946  12.300  1.00  0.00    -0.398 OA
ATOM     36  H4  UNL     1      10.073   6.607  12.683  1.00  0.00     0.209 HD
ENDBRANCH  34  35
ENDBRANCH   3  34
TORSDOF 11
ENDMDL
MODEL 5
REMARK VINA RESULT: -6.342745568      2.736      5.681
REMARK  11 active torsions:
REMARK  status: ('A' for Active; 'I' for Inactive)
REMARK    1  A    between atoms: C2_2  and  S1_4 
REMARK    2  A    between atoms: S1_4  and  C4_5 
REMARK    3  A    between atoms: C5_7  and  O2_8 
REMARK    4  A    between atoms: O2_8  and  C6_9 
REMARK    5  A    between atoms: C7_11  and  C8_12 
REMARK    6  A    between atoms: C8_12  and  O4_13 
REMARK    7  A    between atoms: C10_16  and  N1_17 
REMARK       I    between atoms: N1_17  and  C11_19 
REMARK       I    between atoms: C11_19  and  N2_21 
REMARK    8  A    between atoms: N2_21  and  C12_23 
REMARK    9  A    between atoms: C16_28  and  O7_29 
REMARK   10  A    between atoms: C17_31  and  O8_32 
REMARK   11  A    between atoms: C18_34  and  O9_35 
ROOT
HETATM    1  C6  UNL     1       8.142   7.427   8.404  1.00  0.00     0.286 C 
HETATM    2  O3  UNL     1       8.796   7.054   9.553  1.00  0.00    -0.352 OA
HETATM    3  C7  UNL     1       8.789   8.175  10.386  1.00  0.00     0.150 C 
HETATM    4  C9  UNL     1       7.428   8.791  10.174  1.00  0.00     0.064 C 
HETATM    5  C10 UNL     1       7.263   8.614   8.687  1.00  0.00     0.144 C 
ENDROOT
BRANCH   1   6
HETATM    6  O2  UNL     1       7.295   6.373   8.020  1.00  0.00    -0.327 OA
BRANCH   6   7
HETATM    7  C5  UNL     1       7.782   5.697   6.924  1.00  0.00     0.295 C 
HETATM    8  O1  UNL     1       6.763   4.794   6.512  1.00  0.00    -0.340 OA
HETATM    9  C4  UNL     1       7.009   4.386   5.201  1.00  0.00     0.217 C 
HETATM   10  C18 UNL     1       8.353   3.827   4.979  1.00  0.00     0.188 C 
HETATM   11  C17 UNL     1       9.319   3.933   6.110  1.00  0.00     0.183 C 
HETATM   12  C16 UNL     1       8.942   4.792   7.251  1.00  0.00     0.204 C 
BRANCH   9  13
HETATM   13  S1  UNL     1       5.647   3.308   4.728  1.00  0.00    -0.131 SA
BRANCH  13  14
HETATM   14  C2  UNL     1       4.163   4.152   4.209  1.00  0.00     0.041 C 
HETATM   15  C1  UNL     1       3.376   4.730   5.359  1.00  0.00     0.021 C 
HETATM   16  C3  UNL     1       4.345   5.119   3.065  1.00  0.00     0.021 C 
ENDBRANCH  13  14
ENDBRANCH   9  13
BRANCH  10  17
HETATM   17  O9  UNL     1       8.909   4.422   3.817  1.00  0.00    -0.389 OA
ATOM     18  H9  UNL     1       9.346   3.750   3.308  1.00  0.00     0.210 HD
ENDBRANCH  10  17
BRANCH  11  19
HETATM   19  O8  UNL     1       9.685   2.665   6.619  1.00  0.00    -0.390 OA
ATOM     20  H8  UNL     1       8.924   2.099   6.571  1.00  0.00     0.210 HD
ENDBRANCH  11  19
BRANCH  12  21
HETATM   21  O7  UNL     1       8.485   3.967   8.308  1.00  0.00    -0.388 OA
ATOM     22  H7  UNL     1       7.707   4.397   8.642  1.00  0.00     0.210 HD
ENDBRANCH  12  21
ENDBRANCH   6   7
ENDBRANCH   1   6
BRANCH   5  23
HETATM   23  N1  UNL     1       5.896   8.398   8.304  1.00  0.00    -0.334 N 
HETATM   24  C11 UNL     1       5.020   7.745   9.208  1.00  0.00     0.317 C 
HETATM   25  O5  UNL     1       5.448   7.359  10.346  1.00  0.00    -0.247 OA
HETATM   26  N2  UNL     1       3.656   7.497   8.894  1.00  0.00    -0.336 N 
ATOM     27  H2  UNL     1       3.285   7.797   7.992  1.00  0.00     0.164 HD
ATOM     28  H1  UNL     1       5.559   8.709   7.393  1.00  0.00     0.164 HD
BRANCH  26  29
HETATM   29  C12 UNL     1       2.803   6.838   9.817  1.00  0.00     0.112 C 
HETATM   30  C13 UNL     1       2.523   5.385   9.402  1.00  0.00     0.053 C 
HETATM   31  C14 UNL     1       1.219   5.141  10.100  1.00  0.00     0.169 C 
HETATM   32  O6  UNL     1       0.547   6.334  10.178  1.00  0.00    -0.389 OA
HETATM   33  C15 UNL     1       1.372   7.363   9.806  1.00  0.00     0.192 C 
ENDBRANCH  26  29
ENDBRANCH   5  23
BRANCH   3  34
HETATM   34  C8  UNL     1       9.042   7.827  11.826  1.00  0.00     0.196 C 
BRANCH  34  35
HETATM   35  O4  UNL     1      10.363   7.465  11.986  1.00  0.00    -0.398 OA
ATOM     36  H4  UNL     1      10.437   6.849  12.705  1.00  0.00     0.209 HD
ENDBRANCH  34  35
ENDBRANCH   3  34
TORSDOF 11
ENDMDL
