MODEL 1
REMARK VINA RESULT: -7.908780740      0.000      0.000
REMARK  7 active torsions:
REMARK  status: ('A' for Active; 'I' for Inactive)
REMARK    1  A    between atoms: C1_4  and  N2_5 
REMARK    2  A    between atoms: N2_5  and  N3_7 
REMARK       I    between atoms: N3_7  and  C2_9 
REMARK    3  A    between atoms: C2_9  and  C3_11 
REMARK    4  A    between atoms: C3_11  and  N4_12 
REMARK    5  A    between atoms: N4_12  and  C4_14 
REMARK    6  A    between atoms: C8_24  and  N7_25 
REMARK    7  A    between atoms: N9_31  and  C10_32 
ROOT
HETATM    1  C4  UNL     1      62.463  40.830  38.137  1.00  0.00     0.691 A 
HETATM    2  N5  UNL     1      63.446  40.146  37.535  1.00  0.00    -0.155 N 
ATOM      3  H5  UNL     1      63.737  40.369  36.582  1.00  0.00     0.187 HD
HETATM    4  C5  UNL     1      64.035  39.159  38.229  1.00  0.00     0.279 A 
HETATM    5  O2  UNL     1      64.970  38.502  37.668  1.00  0.00    -0.266 OA
HETATM    6  C6  UNL     1      63.673  38.827  39.516  1.00  0.00     0.146 A 
HETATM    7  C7  UNL     1      64.314  37.804  40.180  1.00  0.00     0.279 A 
HETATM    8  O3  UNL     1      65.226  37.190  39.586  1.00  0.00    -0.266 OA
HETATM    9  N6  UNL     1      63.924  37.521  41.435  1.00  0.00    -0.155 N 
ATOM     10  H6  UNL     1      64.372  36.772  41.962  1.00  0.00     0.187 HD
HETATM   11  C8  UNL     1      62.942  38.239  41.976  1.00  0.00     0.680 A 
HETATM   12  N8  UNL     1      62.289  39.255  41.349  1.00  0.00    -0.174 N 
ATOM     13  H8  UNL     1      61.543  39.765  41.820  1.00  0.00     0.186 HD
HETATM   14  C9  UNL     1      62.647  39.566  40.102  1.00  0.00     0.168 A 
HETATM   15  N9  UNL     1      62.054  40.552  39.416  1.00  0.00    -0.106 N 
ENDROOT
BRANCH   1  16
HETATM   16  N4  UNL     1      61.872  41.776  37.522  1.00  0.00    -0.216 N 
ATOM     17  H4  UNL     1      61.026  42.179  37.925  1.00  0.00     0.178 HD
BRANCH  16  18
HETATM   18  C3  UNL     1      62.362  42.285  36.285  1.00  0.00     0.242 C 
BRANCH  18  19
HETATM   19  C2  UNL     1      62.871  43.683  36.449  1.00  0.00     0.254 C 
HETATM   20  N3  UNL     1      62.459  44.531  37.496  1.00  0.00    -0.268 N 
ATOM     21  H3  UNL     1      61.784  44.197  38.184  1.00  0.00     0.190 HD
HETATM   22  O1  UNL     1      63.701  44.117  35.614  1.00  0.00    -0.270 OA
BRANCH  20  23
HETATM   23  N2  UNL     1      62.966  45.821  37.597  1.00  0.00    -0.294 N 
ATOM     24  H2  UNL     1      63.895  45.937  38.002  1.00  0.00     0.187 HD
BRANCH  23  25
HETATM   25  C1  UNL     1      62.276  46.988  37.175  1.00  0.00     0.190 C 
HETATM   26  N1  UNL     1      62.654  48.178  37.467  1.00  0.00    -0.394 N 
ATOM     27  H12 UNL     1      63.497  48.274  38.034  1.00  0.00     0.156 HD
ATOM     28  H11 UNL     1      62.159  49.016  37.165  1.00  0.00     0.156 HD
ENDBRANCH  23  25
ENDBRANCH  20  23
ENDBRANCH  18  19
ENDBRANCH  16  18
ENDBRANCH   1  16
BRANCH  15  29
HETATM   29  C10 UNL     1      61.020  41.343  39.912  1.00  0.00     0.378 C 
HETATM   30  O4  UNL     1      59.842  41.010  40.069  1.00  0.00    -0.282 OA
ENDBRANCH  15  29
BRANCH  11  31
HETATM   31  N7  UNL     1      62.566  37.962  43.191  1.00  0.00    -0.234 N 
ATOM     32  H72 UNL     1      63.160  37.324  43.721  1.00  0.00     0.174 HD
ATOM     33  H71 UNL     1      61.712  38.391  43.547  1.00  0.00     0.174 HD
ENDBRANCH  11  31
TORSDOF 7
ENDMDL
MODEL 2
REMARK VINA RESULT: -7.828060319      1.916      2.392
REMARK  7 active torsions:
REMARK  status: ('A' for Active; 'I' for Inactive)
REMARK    1  A    between atoms: C1_4  and  N2_5 
REMARK    2  A    between atoms: N2_5  and  N3_7 
REMARK       I    between atoms: N3_7  and  C2_9 
REMARK    3  A    between atoms: C2_9  and  C3_11 
REMARK    4  A    between atoms: C3_11  and  N4_12 
REMARK    5  A    between atoms: N4_12  and  C4_14 
REMARK    6  A    between atoms: C8_24  and  N7_25 
REMARK    7  A    between atoms: N9_31  and  C10_32 
ROOT
HETATM    1  C4  UNL     1      62.886  39.707  39.082  1.00  0.00     0.691 A 
HETATM    2  N5  UNL     1      63.823  38.752  38.987  1.00  0.00    -0.155 N 
ATOM      3  H5  UNL     1      64.345  38.610  38.123  1.00  0.00     0.187 HD
HETATM    4  C5  UNL     1      64.049  37.990  40.070  1.00  0.00     0.279 A 
HETATM    5  O2  UNL     1      64.935  37.080  39.992  1.00  0.00    -0.266 OA
HETATM    6  C6  UNL     1      63.366  38.150  41.255  1.00  0.00     0.146 A 
HETATM    7  C7  UNL     1      63.641  37.338  42.334  1.00  0.00     0.279 A 
HETATM    8  O3  UNL     1      64.521  36.460  42.208  1.00  0.00    -0.266 OA
HETATM    9  N6  UNL     1      62.949  37.536  43.469  1.00  0.00    -0.155 N 
ATOM     10  H6  UNL     1      63.121  36.958  44.291  1.00  0.00     0.187 HD
HETATM   11  C8  UNL     1      62.033  38.501  43.498  1.00  0.00     0.680 A 
HETATM   12  N8  UNL     1      61.736  39.319  42.452  1.00  0.00    -0.174 N 
ATOM     13  H8  UNL     1      61.021  40.041  42.540  1.00  0.00     0.186 HD
HETATM   14  C9  UNL     1      62.403  39.155  41.308  1.00  0.00     0.168 A 
HETATM   15  N9  UNL     1      62.171  39.919  40.233  1.00  0.00    -0.106 N 
ENDROOT
BRANCH   1  16
HETATM   16  N4  UNL     1      62.633  40.456  38.084  1.00  0.00    -0.216 N 
ATOM     17  H4  UNL     1      61.661  40.627  37.825  1.00  0.00     0.178 HD
BRANCH  16  18
HETATM   18  C3  UNL     1      63.672  41.060  37.320  1.00  0.00     0.242 C 
BRANCH  18  19
HETATM   19  C2  UNL     1      63.116  42.088  36.385  1.00  0.00     0.254 C 
HETATM   20  N3  UNL     1      62.125  41.798  35.426  1.00  0.00    -0.268 N 
ATOM     21  H3  UNL     1      61.757  40.849  35.349  1.00  0.00     0.190 HD
HETATM   22  O1  UNL     1      63.555  43.262  36.460  1.00  0.00    -0.270 OA
BRANCH  20  23
HETATM   23  N2  UNL     1      61.647  42.794  34.584  1.00  0.00    -0.294 N 
ATOM     24  H2  UNL     1      62.045  42.858  33.647  1.00  0.00     0.187 HD
BRANCH  23  25
HETATM   25  C1  UNL     1      60.640  43.730  34.941  1.00  0.00     0.190 C 
HETATM   26  N1  UNL     1      60.884  44.840  35.533  1.00  0.00    -0.394 N 
ATOM     27  H12 UNL     1      61.858  45.047  35.753  1.00  0.00     0.156 HD
ATOM     28  H11 UNL     1      60.161  45.512  35.790  1.00  0.00     0.156 HD
ENDBRANCH  23  25
ENDBRANCH  20  23
ENDBRANCH  18  19
ENDBRANCH  16  18
ENDBRANCH   1  16
BRANCH  15  29
HETATM   29  C10 UNL     1      61.228  40.944  40.186  1.00  0.00     0.378 C 
HETATM   30  O4  UNL     1      60.005  40.822  40.076  1.00  0.00    -0.282 OA
ENDBRANCH  15  29
BRANCH  11  31
HETATM   31  N7  UNL     1      61.362  38.689  44.598  1.00  0.00    -0.234 N 
ATOM     32  H72 UNL     1      61.808  39.262  45.316  1.00  0.00     0.174 HD
ATOM     33  H71 UNL     1      60.439  38.263  44.685  1.00  0.00     0.174 HD
ENDBRANCH  11  31
TORSDOF 7
ENDMDL
MODEL 3
REMARK VINA RESULT: -7.624301916      2.336      2.879
REMARK  7 active torsions:
REMARK  status: ('A' for Active; 'I' for Inactive)
REMARK    1  A    between atoms: C1_4  and  N2_5 
REMARK    2  A    between atoms: N2_5  and  N3_7 
REMARK       I    between atoms: N3_7  and  C2_9 
REMARK    3  A    between atoms: C2_9  and  C3_11 
REMARK    4  A    between atoms: C3_11  and  N4_12 
REMARK    5  A    between atoms: N4_12  and  C4_14 
REMARK    6  A    between atoms: C8_24  and  N7_25 
REMARK    7  A    between atoms: N9_31  and  C10_32 
ROOT
HETATM    1  C4  UNL     1      62.891  39.446  38.974  1.00  0.00     0.691 A 
HETATM    2  N5  UNL     1      63.646  39.194  37.895  1.00  0.00    -0.155 N 
ATOM      3  H5  UNL     1      63.368  39.519  36.969  1.00  0.00     0.187 HD
HETATM    4  C5  UNL     1      64.781  38.500  38.077  1.00  0.00     0.279 A 
HETATM    5  O2  UNL     1      65.507  38.254  37.061  1.00  0.00    -0.266 OA
HETATM    6  C6  UNL     1      65.192  38.044  39.310  1.00  0.00     0.146 A 
HETATM    7  C7  UNL     1      66.368  37.337  39.437  1.00  0.00     0.279 A 
HETATM    8  O3  UNL     1      67.045  37.122  38.409  1.00  0.00    -0.266 OA
HETATM    9  N6  UNL     1      66.726  36.915  40.662  1.00  0.00    -0.155 N 
ATOM     10  H6  UNL     1      67.588  36.389  40.800  1.00  0.00     0.187 HD
HETATM   11  C8  UNL     1      65.932  37.199  41.692  1.00  0.00     0.680 A 
HETATM   12  N8  UNL     1      64.765  37.895  41.602  1.00  0.00    -0.174 N 
ATOM     13  H8  UNL     1      64.202  38.078  42.432  1.00  0.00     0.186 HD
HETATM   14  C9  UNL     1      64.376  38.330  40.403  1.00  0.00     0.168 A 
HETATM   15  N9  UNL     1      63.242  39.022  40.230  1.00  0.00    -0.106 N 
ENDROOT
BRANCH   1  16
HETATM   16  N4  UNL     1      61.804  40.100  38.855  1.00  0.00    -0.216 N 
ATOM     17  H4  UNL     1      60.918  39.595  38.854  1.00  0.00     0.178 HD
BRANCH  16  18
HETATM   18  C3  UNL     1      61.795  41.518  38.724  1.00  0.00     0.242 C 
BRANCH  18  19
HETATM   19  C2  UNL     1      62.151  41.926  37.328  1.00  0.00     0.254 C 
HETATM   20  N3  UNL     1      61.242  41.854  36.253  1.00  0.00    -0.268 N 
ATOM     21  H3  UNL     1      60.295  41.512  36.412  1.00  0.00     0.190 HD
HETATM   22  O1  UNL     1      63.312  42.348  37.108  1.00  0.00    -0.270 OA
BRANCH  20  23
HETATM   23  N2  UNL     1      61.629  42.245  34.978  1.00  0.00    -0.294 N 
ATOM     24  H2  UNL     1      62.135  41.570  34.405  1.00  0.00     0.187 HD
BRANCH  23  25
HETATM   25  C1  UNL     1      61.367  43.524  34.418  1.00  0.00     0.190 C 
HETATM   26  N1  UNL     1      60.577  44.381  34.951  1.00  0.00    -0.394 N 
ATOM     27  H12 UNL     1      60.120  44.115  35.823  1.00  0.00     0.156 HD
ATOM     28  H11 UNL     1      60.388  45.299  34.549  1.00  0.00     0.156 HD
ENDBRANCH  23  25
ENDBRANCH  20  23
ENDBRANCH  18  19
ENDBRANCH  16  18
ENDBRANCH   1  16
BRANCH  15  29
HETATM   29  C10 UNL     1      62.360  39.354  41.256  1.00  0.00     0.378 C 
HETATM   30  O4  UNL     1      62.064  38.660  42.232  1.00  0.00    -0.282 OA
ENDBRANCH  15  29
BRANCH  11  31
HETATM   31  N7  UNL     1      66.280  36.789  42.877  1.00  0.00    -0.234 N 
ATOM     32  H72 UNL     1      66.861  37.421  43.430  1.00  0.00     0.174 HD
ATOM     33  H71 UNL     1      65.959  35.873  43.190  1.00  0.00     0.174 HD
ENDBRANCH  11  31
TORSDOF 7
ENDMDL
MODEL 4
REMARK VINA RESULT: -7.602544943      1.163      1.186
REMARK  7 active torsions:
REMARK  status: ('A' for Active; 'I' for Inactive)
REMARK    1  A    between atoms: C1_4  and  N2_5 
REMARK    2  A    between atoms: N2_5  and  N3_7 
REMARK       I    between atoms: N3_7  and  C2_9 
REMARK    3  A    between atoms: C2_9  and  C3_11 
REMARK    4  A    between atoms: C3_11  and  N4_12 
REMARK    5  A    between atoms: N4_12  and  C4_14 
REMARK    6  A    between atoms: C8_24  and  N7_25 
REMARK    7  A    between atoms: N9_31  and  C10_32 
ROOT
HETATM    1  C4  UNL     1      62.331  41.529  37.612  1.00  0.00     0.691 A 
HETATM    2  N5  UNL     1      63.308  40.713  37.192  1.00  0.00    -0.155 N 
ATOM      3  H5  UNL     1      63.727  40.822  36.268  1.00  0.00     0.187 HD
HETATM    4  C5  UNL     1      63.717  39.747  38.031  1.00  0.00     0.279 A 
HETATM    5  O2  UNL     1      64.645  38.966  37.644  1.00  0.00    -0.266 OA
HETATM    6  C6  UNL     1      63.179  39.566  39.286  1.00  0.00     0.146 A 
HETATM    7  C7  UNL     1      63.641  38.558  40.105  1.00  0.00     0.279 A 
HETATM    8  O3  UNL     1      64.553  37.817  39.679  1.00  0.00    -0.266 OA
HETATM    9  N6  UNL     1      63.084  38.424  41.321  1.00  0.00    -0.155 N 
ATOM     10  H6  UNL     1      63.395  37.691  41.958  1.00  0.00     0.187 HD
HETATM   11  C8  UNL     1      62.118  39.267  41.677  1.00  0.00     0.680 A 
HETATM   12  N8  UNL     1      61.639  40.273  40.894  1.00  0.00    -0.174 N 
ATOM     13  H8  UNL     1      60.895  40.885  41.228  1.00  0.00     0.186 HD
HETATM   14  C9  UNL     1      62.167  40.438  39.680  1.00  0.00     0.168 A 
HETATM   15  N9  UNL     1      61.753  41.403  38.849  1.00  0.00    -0.106 N 
ENDROOT
BRANCH   1  16
HETATM   16  N4  UNL     1      61.906  42.460  36.854  1.00  0.00    -0.216 N 
ATOM     17  H4  UNL     1      60.915  42.701  36.871  1.00  0.00     0.178 HD
BRANCH  16  18
HETATM   18  C3  UNL     1      62.780  43.173  35.984  1.00  0.00     0.242 C 
BRANCH  18  19
HETATM   19  C2  UNL     1      63.131  44.509  36.560  1.00  0.00     0.254 C 
HETATM   20  N3  UNL     1      62.176  45.372  37.134  1.00  0.00    -0.268 N 
ATOM     21  H3  UNL     1      61.195  45.092  37.168  1.00  0.00     0.190 HD
HETATM   22  O1  UNL     1      64.330  44.876  36.527  1.00  0.00    -0.270 OA
BRANCH  20  23
HETATM   23  N2  UNL     1      62.561  46.602  37.653  1.00  0.00    -0.294 N 
ATOM     24  H2  UNL     1      62.908  46.627  38.612  1.00  0.00     0.187 HD
BRANCH  23  25
HETATM   25  C1  UNL     1      62.504  47.827  36.937  1.00  0.00     0.190 C 
HETATM   26  N1  UNL     1      61.837  48.848  37.334  1.00  0.00    -0.394 N 
ATOM     27  H12 UNL     1      61.326  48.758  38.212  1.00  0.00     0.156 HD
ATOM     28  H11 UNL     1      61.795  49.727  36.819  1.00  0.00     0.156 HD
ENDBRANCH  23  25
ENDBRANCH  20  23
ENDBRANCH  18  19
ENDBRANCH  16  18
ENDBRANCH   1  16
BRANCH  15  29
HETATM   29  C10 UNL     1      60.746  42.320  39.149  1.00  0.00     0.378 C 
HETATM   30  O4  UNL     1      60.879  43.533  39.331  1.00  0.00    -0.282 OA
ENDBRANCH  15  29
BRANCH  11  31
HETATM   31  N7  UNL     1      61.580  39.135  42.855  1.00  0.00    -0.234 N 
ATOM     32  H72 UNL     1      60.688  39.606  43.008  1.00  0.00     0.174 HD
ATOM     33  H71 UNL     1      62.067  38.573  43.553  1.00  0.00     0.174 HD
ENDBRANCH  11  31
TORSDOF 7
ENDMDL
MODEL 5
REMARK VINA RESULT: -7.595985845      2.583      7.456
REMARK  7 active torsions:
REMARK  status: ('A' for Active; 'I' for Inactive)
REMARK    1  A    between atoms: C1_4  and  N2_5 
REMARK    2  A    between atoms: N2_5  and  N3_7 
REMARK       I    between atoms: N3_7  and  C2_9 
REMARK    3  A    between atoms: C2_9  and  C3_11 
REMARK    4  A    between atoms: C3_11  and  N4_12 
REMARK    5  A    between atoms: N4_12  and  C4_14 
REMARK    6  A    between atoms: C8_24  and  N7_25 
REMARK    7  A    between atoms: N9_31  and  C10_32 
ROOT
HETATM    1  C4  UNL     1      63.593  38.536  40.075  1.00  0.00     0.691 A 
HETATM    2  N5  UNL     1      62.563  38.936  40.833  1.00  0.00    -0.155 N 
ATOM      3  H5  UNL     1      62.360  38.488  41.727  1.00  0.00     0.187 HD
HETATM    4  C5  UNL     1      61.807  39.948  40.376  1.00  0.00     0.279 A 
HETATM    5  O2  UNL     1      60.826  40.337  41.087  1.00  0.00    -0.266 OA
HETATM    6  C6  UNL     1      62.047  40.581  39.176  1.00  0.00     0.146 A 
HETATM    7  C7  UNL     1      61.238  41.615  38.758  1.00  0.00     0.279 A 
HETATM    8  O3  UNL     1      60.287  41.960  39.493  1.00  0.00    -0.266 OA
HETATM    9  N6  UNL     1      61.515  42.201  37.580  1.00  0.00    -0.155 N 
ATOM     10  H6  UNL     1      60.942  42.970  37.234  1.00  0.00     0.187 HD
HETATM   11  C8  UNL     1      62.554  41.757  36.876  1.00  0.00     0.680 A 
HETATM   12  N8  UNL     1      63.372  40.739  37.258  1.00  0.00    -0.174 N 
ATOM     13  H8  UNL     1      64.151  40.446  36.670  1.00  0.00     0.186 HD
HETATM   14  C9  UNL     1      63.129  40.132  38.422  1.00  0.00     0.168 A 
HETATM   15  N9  UNL     1      63.887  39.123  38.870  1.00  0.00    -0.106 N 
ENDROOT
BRANCH   1  16
HETATM   16  N4  UNL     1      64.340  37.580  40.463  1.00  0.00    -0.216 N 
ATOM     17  H4  UNL     1      64.692  36.915  39.774  1.00  0.00     0.178 HD
BRANCH  16  18
HETATM   18  C3  UNL     1      64.695  37.417  41.832  1.00  0.00     0.242 C 
BRANCH  18  19
HETATM   19  C2  UNL     1      66.131  37.017  41.965  1.00  0.00     0.254 C 
HETATM   20  N3  UNL     1      67.046  37.076  40.895  1.00  0.00    -0.268 N 
ATOM     21  H3  UNL     1      66.736  37.403  39.980  1.00  0.00     0.190 HD
HETATM   22  O1  UNL     1      66.536  36.610  43.081  1.00  0.00    -0.270 OA
BRANCH  20  23
HETATM   23  N2  UNL     1      68.369  36.691  41.078  1.00  0.00    -0.294 N 
ATOM     24  H2  UNL     1      68.669  36.454  42.023  1.00  0.00     0.187 HD
BRANCH  23  25
HETATM   25  C1  UNL     1      69.330  36.604  40.036  1.00  0.00     0.190 C 
HETATM   26  N1  UNL     1      69.278  35.734  39.096  1.00  0.00    -0.394 N 
ATOM     27  H12 UNL     1      68.499  35.076  39.113  1.00  0.00     0.156 HD
ATOM     28  H11 UNL     1      69.968  35.671  38.348  1.00  0.00     0.156 HD
ENDBRANCH  23  25
ENDBRANCH  20  23
ENDBRANCH  18  19
ENDBRANCH  16  18
ENDBRANCH   1  16
BRANCH  15  29
HETATM   29  C10 UNL     1      64.986  38.602  38.189  1.00  0.00     0.378 C 
HETATM   30  O4  UNL     1      64.968  37.756  37.292  1.00  0.00    -0.282 OA
ENDBRANCH  15  29
BRANCH  11  31
HETATM   31  N7  UNL     1      62.819  42.325  35.735  1.00  0.00    -0.234 N 
ATOM     32  H72 UNL     1      62.637  41.775  34.895  1.00  0.00     0.174 HD
ATOM     33  H71 UNL     1      63.188  43.276  35.738  1.00  0.00     0.174 HD
ENDBRANCH  11  31
TORSDOF 7
ENDMDL
