MODEL 1
REMARK VINA RESULT: -8.102101157      0.000      0.000
REMARK  2 active torsions:
REMARK  status: ('A' for Active; 'I' for Inactive)
REMARK    1  A    between atoms: N5_13  and  N6_15 
REMARK    2  A    between atoms: C5_17  and  C6_18 
ROOT
HETATM    1  O1  UNL     1       4.254 -78.357-149.824  1.00  0.00    -0.278 OA
HETATM    2  C1  UNL     1       3.780 -78.129-148.699  1.00  0.00     0.237 A 
HETATM    3  C2  UNL     1       3.564 -76.957-147.877  1.00  0.00     0.152 A 
HETATM    4  N1  UNL     1       3.033 -77.149-146.747  1.00  0.00    -0.352 N 
ATOM      5  H1  UNL     1       2.861 -76.355-146.132  1.00  0.00     0.166 HD
HETATM    6  C3  UNL     1       2.685 -78.409-146.337  1.00  0.00     0.131 A 
HETATM    7  S1  UNL     1       3.115 -79.388-147.582  1.00  0.00     0.020 SA
HETATM    8  N2  UNL     1       2.815 -81.111-147.451  1.00  0.00    -0.049 NA
HETATM    9  N3  UNL     1       1.740 -81.190-146.525  1.00  0.00    -0.018 NA
HETATM   10  N4  UNL     1       1.962 -80.516-145.340  1.00  0.00    -0.269 N 
ATOM     11  H4  UNL     1       2.049 -81.079-144.494  1.00  0.00     0.185 HD
HETATM   12  C4  UNL     1       2.081 -79.105-145.193  1.00  0.00     0.168 C 
HETATM   13  N5  UNL     1       1.713 -78.430-144.167  1.00  0.00    -0.283 N 
ATOM     14  H5  UNL     1       1.835 -77.419-144.136  1.00  0.00     0.188 HD
ENDROOT
BRANCH  13  15
HETATM   15  N6  UNL     1       1.147 -79.106-143.103  1.00  0.00    -0.307 N 
HETATM   16  C5  UNL     1      -0.101 -79.380-143.093  1.00  0.00     0.154 C 
ATOM     17  H6  UNL     1       1.732 -79.390-142.316  1.00  0.00     0.186 HD
BRANCH  16  18
HETATM   18  C6  UNL     1      -0.937 -78.983-144.204  1.00  0.00     0.114 C 
HETATM   19  N7  UNL     1      -1.450 -79.744-145.110  1.00  0.00    -0.374 N 
HETATM   20  C7  UNL     1      -2.230 -78.982-146.056  1.00  0.00     0.141 C 
ATOM     21  H7  UNL     1      -1.322 -80.755-145.152  1.00  0.00     0.161 HD
HETATM   22  C8  UNL     1      -1.754 -77.570-145.833  1.00  0.00     0.141 C 
HETATM   23  N8  UNL     1      -1.325 -77.625-144.458  1.00  0.00    -0.374 N 
ATOM     24  H8  UNL     1      -1.302 -76.849-143.795  1.00  0.00     0.161 HD
ENDBRANCH  16  18
ENDBRANCH  13  15
TORSDOF 2
ENDMDL
MODEL 2
REMARK VINA RESULT: -6.754648321      3.713      5.768
REMARK  2 active torsions:
REMARK  status: ('A' for Active; 'I' for Inactive)
REMARK    1  A    between atoms: N5_13  and  N6_15 
REMARK    2  A    between atoms: C5_17  and  C6_18 
ROOT
HETATM    1  O1  UNL     1      -0.435 -81.631-140.380  1.00  0.00    -0.278 OA
HETATM    2  C1  UNL     1       0.523 -81.384-141.132  1.00  0.00     0.237 A 
HETATM    3  C2  UNL     1       1.787 -82.013-141.450  1.00  0.00     0.152 A 
HETATM    4  N1  UNL     1       2.512 -81.426-142.301  1.00  0.00    -0.352 N 
ATOM      5  H1  UNL     1       3.412 -81.829-142.558  1.00  0.00     0.166 HD
HETATM    6  C3  UNL     1       2.106 -80.255-142.885  1.00  0.00     0.131 A 
HETATM    7  S1  UNL     1       0.638 -79.943-142.221  1.00  0.00     0.020 SA
HETATM    8  N2  UNL     1      -0.237 -78.510-142.727  1.00  0.00    -0.049 NA
HETATM    9  N3  UNL     1       0.278 -78.249-144.026  1.00  0.00    -0.018 NA
HETATM   10  N4  UNL     1       1.657 -78.177-144.084  1.00  0.00    -0.269 N 
ATOM     11  H4  UNL     1       2.065 -77.269-144.305  1.00  0.00     0.185 HD
HETATM   12  C4  UNL     1       2.558 -79.256-143.863  1.00  0.00     0.168 C 
HETATM   13  N5  UNL     1       3.694 -79.406-144.438  1.00  0.00    -0.283 N 
ATOM     14  H5  UNL     1       4.286 -80.207-144.223  1.00  0.00     0.188 HD
ENDROOT
BRANCH  13  15
HETATM   15  N6  UNL     1       4.099 -78.454-145.355  1.00  0.00    -0.307 N 
HETATM   16  C5  UNL     1       3.711 -78.514-146.571  1.00  0.00     0.154 C 
ATOM     17  H6  UNL     1       4.713 -77.696-145.058  1.00  0.00     0.186 HD
BRANCH  16  18
HETATM   18  C6  UNL     1       2.840 -79.585-147.001  1.00  0.00     0.114 C 
HETATM   19  N7  UNL     1       1.550 -79.586-147.020  1.00  0.00    -0.374 N 
HETATM   20  C7  UNL     1       1.034 -80.839-147.516  1.00  0.00     0.141 C 
ATOM     21  H7  UNL     1       0.970 -78.802-146.722  1.00  0.00     0.161 HD
HETATM   22  C8  UNL     1       2.211 -81.769-147.388  1.00  0.00     0.141 C 
HETATM   23  N8  UNL     1       3.317 -80.850-147.484  1.00  0.00    -0.374 N 
ATOM     24  H8  UNL     1       4.254 -81.057-147.829  1.00  0.00     0.161 HD
ENDBRANCH  16  18
ENDBRANCH  13  15
TORSDOF 2
ENDMDL
MODEL 3
REMARK VINA RESULT: -6.278631485      3.242      4.785
REMARK  2 active torsions:
REMARK  status: ('A' for Active; 'I' for Inactive)
REMARK    1  A    between atoms: N5_13  and  N6_15 
REMARK    2  A    between atoms: C5_17  and  C6_18 
ROOT
HETATM    1  O1  UNL     1      -2.411 -77.882-146.904  1.00  0.00    -0.278 OA
HETATM    2  C1  UNL     1      -1.646 -78.244-145.994  1.00  0.00     0.237 A 
HETATM    3  C2  UNL     1      -1.481 -77.938-144.589  1.00  0.00     0.152 A 
HETATM    4  N1  UNL     1      -0.548 -78.540-143.987  1.00  0.00    -0.352 N 
ATOM      5  H1  UNL     1      -0.391 -78.359-142.995  1.00  0.00     0.166 HD
HETATM    6  C3  UNL     1       0.256 -79.434-144.645  1.00  0.00     0.131 A 
HETATM    7  S1  UNL     1      -0.306 -79.445-146.186  1.00  0.00     0.020 SA
HETATM    8  N2  UNL     1       0.463 -80.493-147.364  1.00  0.00    -0.049 NA
HETATM    9  N3  UNL     1       1.034 -81.522-146.567  1.00  0.00    -0.018 NA
HETATM   10  N4  UNL     1       1.836 -81.063-145.540  1.00  0.00    -0.269 N 
ATOM     11  H4  UNL     1       2.833 -81.270-145.601  1.00  0.00     0.185 HD
HETATM   12  C4  UNL     1       1.396 -80.327-144.404  1.00  0.00     0.168 C 
HETATM   13  N5  UNL     1       1.913 -80.389-143.232  1.00  0.00    -0.283 N 
ATOM     14  H5  UNL     1       1.541 -79.826-142.468  1.00  0.00     0.188 HD
ENDROOT
BRANCH  13  15
HETATM   15  N6  UNL     1       2.985 -81.237-143.029  1.00  0.00    -0.307 N 
HETATM   16  C5  UNL     1       2.918 -82.178-142.167  1.00  0.00     0.154 C 
ATOM     17  H6  UNL     1       3.839 -81.111-143.572  1.00  0.00     0.186 HD
BRANCH  16  18
HETATM   18  C6  UNL     1       1.711 -82.365-141.392  1.00  0.00     0.114 C 
HETATM   19  N7  UNL     1       1.079 -83.470-141.181  1.00  0.00    -0.374 N 
HETATM   20  C7  UNL     1      -0.086 -83.258-140.356  1.00  0.00     0.141 C 
ATOM     21  H7  UNL     1       1.366 -84.376-141.550  1.00  0.00     0.161 HD
HETATM   22  C8  UNL     1      -0.310 -81.773-140.455  1.00  0.00     0.141 C 
HETATM   23  N8  UNL     1       1.024 -81.297-140.724  1.00  0.00    -0.374 N 
ATOM     24  H8  UNL     1       1.404 -80.381-140.487  1.00  0.00     0.161 HD
ENDBRANCH  16  18
ENDBRANCH  13  15
TORSDOF 2
ENDMDL
MODEL 4
REMARK VINA RESULT: -5.997141299      2.053      3.408
REMARK  2 active torsions:
REMARK  status: ('A' for Active; 'I' for Inactive)
REMARK    1  A    between atoms: N5_13  and  N6_15 
REMARK    2  A    between atoms: C5_17  and  C6_18 
ROOT
HETATM    1  O1  UNL     1       3.608 -78.884-149.130  1.00  0.00    -0.278 OA
HETATM    2  C1  UNL     1       3.277 -78.674-147.951  1.00  0.00     0.237 A 
HETATM    3  C2  UNL     1       3.831 -77.950-146.827  1.00  0.00     0.152 A 
HETATM    4  N1  UNL     1       3.165 -77.979-145.754  1.00  0.00    -0.352 N 
ATOM      5  H1  UNL     1       3.515 -77.484-144.933  1.00  0.00     0.166 HD
HETATM    6  C3  UNL     1       1.981 -78.663-145.676  1.00  0.00     0.131 A 
HETATM    7  S1  UNL     1       1.772 -79.308-147.171  1.00  0.00     0.020 SA
HETATM    8  N2  UNL     1       0.337 -80.264-147.491  1.00  0.00    -0.049 NA
HETATM    9  N3  UNL     1      -0.601 -79.781-146.539  1.00  0.00    -0.018 NA
HETATM   10  N4  UNL     1      -0.141 -79.786-145.237  1.00  0.00    -0.269 N 
ATOM     11  H4  UNL     1      -0.594 -80.428-144.587  1.00  0.00     0.185 HD
HETATM   12  C4  UNL     1       0.910 -78.976-144.721  1.00  0.00     0.168 C 
HETATM   13  N5  UNL     1       0.980 -78.523-143.524  1.00  0.00    -0.283 N 
ATOM     14  H5  UNL     1       1.770 -77.949-143.228  1.00  0.00     0.188 HD
ENDROOT
BRANCH  13  15
HETATM   15  N6  UNL     1      -0.039 -78.829-142.643  1.00  0.00    -0.307 N 
HETATM   16  C5  UNL     1       0.022 -79.877-141.914  1.00  0.00     0.154 C 
ATOM     17  H6  UNL     1      -0.849 -78.213-142.573  1.00  0.00     0.186 HD
BRANCH  16  18
HETATM   18  C6  UNL     1       1.166 -80.756-142.005  1.00  0.00     0.114 C 
HETATM   19  N7  UNL     1       1.913 -80.966-143.036  1.00  0.00    -0.374 N 
HETATM   20  C7  UNL     1       2.961 -81.914-142.741  1.00  0.00     0.141 C 
ATOM     21  H7  UNL     1       1.780 -80.520-143.943  1.00  0.00     0.161 HD
HETATM   22  C8  UNL     1       2.472 -82.583-141.483  1.00  0.00     0.141 C 
HETATM   23  N8  UNL     1       1.645 -81.552-140.911  1.00  0.00    -0.374 N 
ATOM     24  H8  UNL     1       1.439 -81.414-139.921  1.00  0.00     0.161 HD
ENDBRANCH  16  18
ENDBRANCH  13  15
TORSDOF 2
ENDMDL
MODEL 5
REMARK VINA RESULT: -5.744328377      3.246      5.095
REMARK  2 active torsions:
REMARK  status: ('A' for Active; 'I' for Inactive)
REMARK    1  A    between atoms: N5_13  and  N6_15 
REMARK    2  A    between atoms: C5_17  and  C6_18 
ROOT
HETATM    1  O1  UNL     1      -3.657 -74.758-149.306  1.00  0.00    -0.278 OA
HETATM    2  C1  UNL     1      -3.027 -75.159-148.314  1.00  0.00     0.237 A 
HETATM    3  C2  UNL     1      -2.274 -74.544-147.240  1.00  0.00     0.152 A 
HETATM    4  N1  UNL     1      -1.763 -75.327-146.390  1.00  0.00    -0.352 N 
ATOM      5  H1  UNL     1      -1.223 -74.942-145.615  1.00  0.00     0.166 HD
HETATM    6  C3  UNL     1      -1.923 -76.683-146.494  1.00  0.00     0.131 A 
HETATM    7  S1  UNL     1      -2.831 -76.895-147.844  1.00  0.00     0.020 SA
HETATM    8  N2  UNL     1      -3.274 -78.523-148.324  1.00  0.00    -0.049 NA
HETATM    9  N3  UNL     1      -3.223 -79.252-147.105  1.00  0.00    -0.018 NA
HETATM   10  N4  UNL     1      -2.033 -79.120-146.416  1.00  0.00    -0.269 N 
ATOM     11  H4  UNL     1      -1.448 -79.952-146.335  1.00  0.00     0.185 HD
HETATM   12  C4  UNL     1      -1.550 -77.927-145.807  1.00  0.00     0.168 C 
HETATM   13  N5  UNL     1      -0.837 -77.871-144.743  1.00  0.00    -0.283 N 
ATOM     14  H5  UNL     1      -0.526 -76.975-144.370  1.00  0.00     0.188 HD
ENDROOT
BRANCH  13  15
HETATM   15  N6  UNL     1      -0.499 -79.054-144.114  1.00  0.00    -0.307 N 
HETATM   16  C5  UNL     1       0.566 -79.682-144.434  1.00  0.00     0.154 C 
ATOM     17  H6  UNL     1      -1.107 -79.430-143.386  1.00  0.00     0.186 HD
BRANCH  16  18
HETATM   18  C6  UNL     1       1.434 -79.156-145.465  1.00  0.00     0.114 C 
HETATM   19  N7  UNL     1       1.601 -79.616-146.659  1.00  0.00    -0.374 N 
HETATM   20  C7  UNL     1       2.551 -78.822-147.399  1.00  0.00     0.141 C 
ATOM     21  H7  UNL     1       1.122 -80.436-147.031  1.00  0.00     0.161 HD
HETATM   22  C8  UNL     1       3.270 -78.055-146.321  1.00  0.00     0.141 C 
HETATM   23  N8  UNL     1       2.266 -78.000-145.288  1.00  0.00    -0.374 N 
ATOM     24  H8  UNL     1       2.166 -77.281-144.572  1.00  0.00     0.161 HD
ENDBRANCH  16  18
ENDBRANCH  13  15
TORSDOF 2
ENDMDL
