MODEL 1
REMARK VINA RESULT: -7.101575422      0.000      0.000
REMARK  5 active torsions:
REMARK  status: ('A' for Active; 'I' for Inactive)
REMARK    1  A    between atoms: C2_2  and  O1_4 
REMARK    2  A    between atoms: C2_2  and  N1_6 
REMARK    3  A    between atoms: C7_14  and  O3_15 
REMARK    4  A    between atoms: C7_14  and  C8_17 
REMARK    5  A    between atoms: N4_18  and  O4_20 
ROOT
HETATM    1  N1  UNL     1       1.185 -81.079-142.070  1.00  0.00    -0.206 N 
HETATM    2  N2  UNL     1       0.528 -80.067-142.606  1.00  0.00    -0.278 N 
ATOM      3  H2  UNL     1      -0.272 -79.592-142.189  1.00  0.00     0.189 HD
HETATM    4  C4  UNL     1       1.085 -79.766-143.788  1.00  0.00     0.120 A 
HETATM    5  N3  UNL     1       2.105 -80.609-143.984  1.00  0.00    -0.280 N 
HETATM    6  C5  UNL     1       2.164 -81.424-142.915  1.00  0.00     0.347 A 
HETATM    7  O2  UNL     1       3.012 -82.342-142.771  1.00  0.00    -0.245 OA
HETATM    8  C6  UNL     1       2.907 -80.513-145.210  1.00  0.00     0.202 C 
HETATM    9  C7  UNL     1       2.979 -79.037-145.568  1.00  0.00     0.180 C 
HETATM   10  N5  UNL     1       1.681 -78.482-145.789  1.00  0.00    -0.379 N 
ATOM     11  H5  UNL     1       1.461 -77.949-146.630  1.00  0.00     0.157 HD
HETATM   12  C9  UNL     1       0.713 -78.712-144.774  1.00  0.00     0.195 C 
ENDROOT
BRANCH   9  13
HETATM   13  O3  UNL     1       3.686 -78.378-144.562  1.00  0.00    -0.365 OA
ATOM     14  H3  UNL     1       4.044 -77.576-144.926  1.00  0.00     0.213 HD
ENDBRANCH   9  13
BRANCH   9  15
HETATM   15  C8  UNL     1       3.759 -78.891-146.826  1.00  0.00     0.148 C 
HETATM   16  N4  UNL     1       4.052 -77.719-147.252  1.00  0.00    -0.280 N 
ATOM     17  H4  UNL     1       4.587 -77.642-148.117  1.00  0.00     0.193 HD
BRANCH  16  18
HETATM   18  O4  UNL     1       3.690 -76.572-146.617  1.00  0.00    -0.290 OA
ATOM     19  H4  UNL     1       4.216 -75.782-146.614  1.00  0.00     0.244 HD
ENDBRANCH  16  18
ENDBRANCH   9  15
BRANCH   1  20
HETATM   20  C2  UNL     1       0.898 -81.712-140.784  1.00  0.00     0.149 C 
HETATM   21  C1  UNL     1      -0.564 -81.447-140.435  1.00  0.00     0.072 C 
HETATM   22  C3  UNL     1       1.062 -83.215-140.870  1.00  0.00     0.072 C 
BRANCH  20  23
HETATM   23  O1  UNL     1       1.654 -81.169-139.758  1.00  0.00    -0.370 OA
ATOM     24  H1  UNL     1       2.539 -81.082-140.090  1.00  0.00     0.212 HD
ENDBRANCH  20  23
ENDBRANCH   1  20
TORSDOF 5
ENDMDL
MODEL 2
REMARK VINA RESULT: -6.547989975      5.708      7.186
REMARK  5 active torsions:
REMARK  status: ('A' for Active; 'I' for Inactive)
REMARK    1  A    between atoms: C2_2  and  O1_4 
REMARK    2  A    between atoms: C2_2  and  N1_6 
REMARK    3  A    between atoms: C7_14  and  O3_15 
REMARK    4  A    between atoms: C7_14  and  C8_17 
REMARK    5  A    between atoms: N4_18  and  O4_20 
ROOT
HETATM    1  N1  UNL     1      -1.761 -77.867-146.122  1.00  0.00    -0.206 N 
HETATM    2  N2  UNL     1      -1.574 -76.620-145.732  1.00  0.00    -0.278 N 
ATOM      3  H2  UNL     1      -1.060 -76.329-144.901  1.00  0.00     0.189 HD
HETATM    4  C4  UNL     1      -2.172 -75.798-146.607  1.00  0.00     0.120 A 
HETATM    5  N3  UNL     1      -2.738 -76.553-147.554  1.00  0.00    -0.280 N 
HETATM    6  C5  UNL     1      -2.482 -77.839-147.250  1.00  0.00     0.347 A 
HETATM    7  O2  UNL     1      -2.870 -78.820-147.936  1.00  0.00    -0.245 OA
HETATM    8  C6  UNL     1      -3.471 -75.917-148.656  1.00  0.00     0.202 C 
HETATM    9  C7  UNL     1      -2.747 -74.616-148.964  1.00  0.00     0.180 C 
HETATM   10  N5  UNL     1      -2.716 -73.745-147.831  1.00  0.00    -0.379 N 
ATOM     11  H5  UNL     1      -3.012 -72.772-147.894  1.00  0.00     0.157 HD
HETATM   12  C9  UNL     1      -2.249 -74.309-146.613  1.00  0.00     0.195 C 
ENDROOT
BRANCH   9  13
HETATM   13  O3  UNL     1      -1.475 -74.927-149.443  1.00  0.00    -0.365 OA
ATOM     14  H3  UNL     1      -1.561 -75.240-150.337  1.00  0.00     0.213 HD
ENDBRANCH   9  13
BRANCH   9  15
HETATM   15  C8  UNL     1      -3.473 -73.916-150.059  1.00  0.00     0.148 C 
HETATM   16  N4  UNL     1      -2.949 -72.880-150.599  1.00  0.00    -0.280 N 
ATOM     17  H4  UNL     1      -3.464 -72.415-151.347  1.00  0.00     0.193 HD
BRANCH  16  18
HETATM   18  O4  UNL     1      -1.746 -72.363-150.232  1.00  0.00    -0.290 OA
ATOM     19  H4  UNL     1      -1.169 -71.897-150.825  1.00  0.00     0.244 HD
ENDBRANCH  16  18
ENDBRANCH   9  15
BRANCH   1  20
HETATM   20  C2  UNL     1      -1.272 -79.067-145.447  1.00  0.00     0.149 C 
HETATM   21  C1  UNL     1      -0.250 -78.642-144.396  1.00  0.00     0.072 C 
HETATM   22  C3  UNL     1      -2.391 -79.771-144.709  1.00  0.00     0.072 C 
BRANCH  20  23
HETATM   23  O1  UNL     1      -0.612 -79.920-146.316  1.00  0.00    -0.370 OA
ATOM     24  H1  UNL     1      -0.911 -80.798-146.113  1.00  0.00     0.212 HD
ENDBRANCH  20  23
ENDBRANCH   1  20
TORSDOF 5
ENDMDL
MODEL 3
REMARK VINA RESULT: -6.302218825      1.667      5.936
REMARK  5 active torsions:
REMARK  status: ('A' for Active; 'I' for Inactive)
REMARK    1  A    between atoms: C2_2  and  O1_4 
REMARK    2  A    between atoms: C2_2  and  N1_6 
REMARK    3  A    between atoms: C7_14  and  O3_15 
REMARK    4  A    between atoms: C7_14  and  C8_17 
REMARK    5  A    between atoms: N4_18  and  O4_20 
ROOT
HETATM    1  N1  UNL     1       2.890 -78.047-146.458  1.00  0.00    -0.206 N 
HETATM    2  N2  UNL     1       1.610 -78.049-146.136  1.00  0.00    -0.278 N 
ATOM      3  H2  UNL     1       0.855 -77.665-146.704  1.00  0.00     0.189 HD
HETATM    4  C4  UNL     1       1.465 -78.638-144.940  1.00  0.00     0.120 A 
HETATM    5  N3  UNL     1       2.679 -79.006-144.517  1.00  0.00    -0.280 N 
HETATM    6  C5  UNL     1       3.564 -78.637-145.462  1.00  0.00     0.347 A 
HETATM    7  O2  UNL     1       4.804 -78.833-145.386  1.00  0.00    -0.245 OA
HETATM    8  C6  UNL     1       2.829 -79.683-143.223  1.00  0.00     0.202 C 
HETATM    9  C7  UNL     1       1.596 -80.555-143.044  1.00  0.00     0.180 C 
HETATM   10  N5  UNL     1       0.394 -79.781-143.055  1.00  0.00    -0.379 N 
ATOM     11  H5  UNL     1      -0.307 -79.868-142.320  1.00  0.00     0.157 HD
HETATM   12  C9  UNL     1       0.228 -78.885-144.146  1.00  0.00     0.195 C 
ENDROOT
BRANCH   9  13
HETATM   13  O3  UNL     1       1.613 -81.543-144.028  1.00  0.00    -0.365 OA
ATOM     14  H3  UNL     1       1.727 -82.385-143.602  1.00  0.00     0.213 HD
ENDBRANCH   9  13
BRANCH   9  15
HETATM   15  C8  UNL     1       1.686 -81.240-141.726  1.00  0.00     0.148 C 
HETATM   16  N4  UNL     1       2.513 -82.206-141.575  1.00  0.00    -0.280 N 
ATOM     17  H4  UNL     1       2.558 -82.663-140.664  1.00  0.00     0.193 HD
BRANCH  16  18
HETATM   18  O4  UNL     1       3.333 -82.659-142.560  1.00  0.00    -0.290 OA
ATOM     19  H4  UNL     1       3.189 -82.494-143.484  1.00  0.00     0.244 HD
ENDBRANCH  16  18
ENDBRANCH   9  15
BRANCH   1  20
HETATM   20  C2  UNL     1       3.474 -77.500-147.681  1.00  0.00     0.149 C 
HETATM   21  C1  UNL     1       3.422 -78.578-148.760  1.00  0.00     0.072 C 
HETATM   22  C3  UNL     1       2.663 -76.328-148.194  1.00  0.00     0.072 C 
BRANCH  20  23
HETATM   23  O1  UNL     1       4.809 -77.170-147.517  1.00  0.00    -0.370 OA
ATOM     24  H1  UNL     1       4.842 -76.500-146.844  1.00  0.00     0.212 HD
ENDBRANCH  20  23
ENDBRANCH   1  20
TORSDOF 5
ENDMDL
MODEL 4
REMARK VINA RESULT: -5.957855055      1.631      6.047
REMARK  5 active torsions:
REMARK  status: ('A' for Active; 'I' for Inactive)
REMARK    1  A    between atoms: C2_2  and  O1_4 
REMARK    2  A    between atoms: C2_2  and  N1_6 
REMARK    3  A    between atoms: C7_14  and  O3_15 
REMARK    4  A    between atoms: C7_14  and  C8_17 
REMARK    5  A    between atoms: N4_18  and  O4_20 
ROOT
HETATM    1  N1  UNL     1       3.012 -77.999-146.676  1.00  0.00    -0.206 N 
HETATM    2  N2  UNL     1       1.733 -78.042-146.351  1.00  0.00    -0.278 N 
ATOM      3  H2  UNL     1       0.969 -77.645-146.897  1.00  0.00     0.189 HD
HETATM    4  C4  UNL     1       1.604 -78.693-145.186  1.00  0.00     0.120 A 
HETATM    5  N3  UNL     1       2.827 -79.058-144.785  1.00  0.00    -0.280 N 
HETATM    6  C5  UNL     1       3.700 -78.625-145.713  1.00  0.00     0.347 A 
HETATM    7  O2  UNL     1       4.944 -78.799-145.650  1.00  0.00    -0.245 OA
HETATM    8  C6  UNL     1       2.994 -79.796-143.527  1.00  0.00     0.202 C 
HETATM    9  C7  UNL     1       1.779 -80.699-143.389  1.00  0.00     0.180 C 
HETATM   10  N5  UNL     1       0.562 -79.950-143.358  1.00  0.00    -0.379 N 
ATOM     11  H5  UNL     1      -0.135 -80.088-142.626  1.00  0.00     0.157 HD
HETATM   12  C9  UNL     1       0.375 -79.004-144.402  1.00  0.00     0.195 C 
ENDROOT
BRANCH   9  13
HETATM   13  O3  UNL     1       1.812 -81.636-144.421  1.00  0.00    -0.365 OA
ATOM     14  H3  UNL     1       2.610 -82.146-144.335  1.00  0.00     0.213 HD
ENDBRANCH   9  13
BRANCH   9  15
HETATM   15  C8  UNL     1       1.887 -81.448-142.107  1.00  0.00     0.148 C 
HETATM   16  N4  UNL     1       1.108 -81.149-141.136  1.00  0.00    -0.280 N 
ATOM     17  H4  UNL     1       1.200 -81.674-140.267  1.00  0.00     0.193 HD
BRANCH  16  18
HETATM   18  O4  UNL     1       0.167 -80.170-141.197  1.00  0.00    -0.290 OA
ATOM     19  H4  UNL     1       0.367 -79.242-141.161  1.00  0.00     0.244 HD
ENDBRANCH  16  18
ENDBRANCH   9  15
BRANCH   1  20
HETATM   20  C2  UNL     1       3.581 -77.379-147.872  1.00  0.00     0.149 C 
HETATM   21  C1  UNL     1       3.536 -78.399-149.006  1.00  0.00     0.072 C 
HETATM   22  C3  UNL     1       2.751 -76.193-148.316  1.00  0.00     0.072 C 
BRANCH  20  23
HETATM   23  O1  UNL     1       4.913 -77.041-147.698  1.00  0.00    -0.370 OA
ATOM     24  H1  UNL     1       5.166 -76.539-148.464  1.00  0.00     0.212 HD
ENDBRANCH  20  23
ENDBRANCH   1  20
TORSDOF 5
ENDMDL
MODEL 5
REMARK VINA RESULT: -5.939062013      1.595      2.063
REMARK  5 active torsions:
REMARK  status: ('A' for Active; 'I' for Inactive)
REMARK    1  A    between atoms: C2_2  and  O1_4 
REMARK    2  A    between atoms: C2_2  and  N1_6 
REMARK    3  A    between atoms: C7_14  and  O3_15 
REMARK    4  A    between atoms: C7_14  and  C8_17 
REMARK    5  A    between atoms: N4_18  and  O4_20 
ROOT
HETATM    1  N1  UNL     1       1.490 -80.961-142.137  1.00  0.00    -0.206 N 
HETATM    2  N2  UNL     1       2.417 -81.411-142.962  1.00  0.00    -0.278 N 
ATOM      3  H2  UNL     1       2.928 -82.287-142.859  1.00  0.00     0.189 HD
HETATM    4  C4  UNL     1       2.576 -80.528-143.959  1.00  0.00     0.120 A 
HETATM    5  N3  UNL     1       1.731 -79.514-143.743  1.00  0.00    -0.280 N 
HETATM    6  C5  UNL     1       1.057 -79.786-142.610  1.00  0.00     0.347 A 
HETATM    7  O2  UNL     1       0.177 -79.037-142.113  1.00  0.00    -0.245 OA
HETATM    8  C6  UNL     1       1.684 -78.388-144.684  1.00  0.00     0.202 C 
HETATM    9  C7  UNL     1       1.939 -78.967-146.067  1.00  0.00     0.180 C 
HETATM   10  N5  UNL     1       3.211 -79.616-146.143  1.00  0.00    -0.379 N 
ATOM     11  H5  UNL     1       3.878 -79.403-146.884  1.00  0.00     0.157 HD
HETATM   12  C9  UNL     1       3.494 -80.573-145.132  1.00  0.00     0.195 C 
ENDROOT
BRANCH   9  13
HETATM   13  O3  UNL     1       0.879 -79.814-146.388  1.00  0.00    -0.365 OA
ATOM     14  H3  UNL     1       0.821 -79.872-147.335  1.00  0.00     0.213 HD
ENDBRANCH   9  13
BRANCH   9  15
HETATM   15  C8  UNL     1       1.933 -77.855-147.056  1.00  0.00     0.148 C 
HETATM   16  N4  UNL     1       2.851 -76.963-147.005  1.00  0.00    -0.280 N 
ATOM     17  H4  UNL     1       2.827 -76.209-147.692  1.00  0.00     0.193 HD
BRANCH  16  18
HETATM   18  O4  UNL     1       3.854 -76.962-146.087  1.00  0.00    -0.290 OA
ATOM     19  H4  UNL     1       4.770 -76.842-146.307  1.00  0.00     0.244 HD
ENDBRANCH  16  18
ENDBRANCH   9  15
BRANCH   1  20
HETATM   20  C2  UNL     1       1.017 -81.624-140.923  1.00  0.00     0.149 C 
HETATM   21  C1  UNL     1      -0.504 -81.499-140.871  1.00  0.00     0.072 C 
HETATM   22  C3  UNL     1       1.334 -83.104-140.953  1.00  0.00     0.072 C 
BRANCH  20  23
HETATM   23  O1  UNL     1       1.502 -81.016-139.777  1.00  0.00    -0.370 OA
ATOM     24  H1  UNL     1       1.906 -80.202-140.053  1.00  0.00     0.212 HD
ENDBRANCH  20  23
ENDBRANCH   1  20
TORSDOF 5
ENDMDL
