MODEL 1
REMARK VINA RESULT: -7.355933198      0.000      0.000
REMARK  12 active torsions:
REMARK  status: ('A' for Active; 'I' for Inactive)
REMARK    1  A    between atoms: N1_2  and  C2_3 
REMARK    2  A    between atoms: N1_2  and  C4_7 
REMARK    3  A    between atoms: C2_3  and  C3_4 
REMARK    4  A    between atoms: C3_4  and  O1_5 
REMARK    5  A    between atoms: C5_10  and  N3_11 
REMARK    6  A    between atoms: N3_11  and  C6_13 
REMARK    7  A    between atoms: C9_16  and  C10_17 
REMARK    8  A    between atoms: C15_26  and  N6_27 
REMARK    9  A    between atoms: N6_27  and  C16_28 
REMARK   10  A    between atoms: C16_28  and  C17_29 
REMARK   11  A    between atoms: C20_39  and  C21_40 
REMARK   12  A    between atoms: C21_40  and  N10_41 
ROOT
HETATM    1  C6  UNL     1      37.339  21.980  13.115  1.00  0.00     0.120 A 
HETATM    2  C7  UNL     1      36.982  22.124  11.771  1.00  0.00     0.050 A 
HETATM    3  C8  UNL     1      36.635  21.003  11.081  1.00  0.00     0.019 A 
HETATM    4  C9  UNL     1      36.627  19.750  11.678  1.00  0.00     0.007 A 
HETATM    5  C19 UNL     1      36.976  19.633  12.981  1.00  0.00     0.103 A 
HETATM    6  N8  UNL     1      37.325  20.760  13.672  1.00  0.00    -0.351 N 
ATOM      7  H8  UNL     1      37.587  20.668  14.653  1.00  0.00     0.166 HD
ENDROOT
BRANCH   1   8
HETATM    8  N3  UNL     1      37.709  23.145  13.835  1.00  0.00    -0.176 N 
ATOM      9  H3  UNL     1      37.227  23.399  14.698  1.00  0.00     0.186 HD
BRANCH   8  10
HETATM   10  C5  UNL     1      38.657  23.871  13.380  1.00  0.00     0.699 A 
HETATM   11  N2  UNL     1      38.366  24.973  12.681  1.00  0.00    -0.022 N 
HETATM   12  C4  UNL     1      39.294  25.801  12.164  1.00  0.00     0.696 A 
ATOM     13  H2  UNL     1      37.382  25.200  12.531  1.00  0.00     0.203 HD
HETATM   14  N11 UNL     1      40.594  25.481  12.372  1.00  0.00    -0.178 N 
HETATM   15  C20 UNL     1      40.922  24.379  13.070  1.00  0.00     0.138 A 
ATOM     16  H11 UNL     1      41.328  26.081  11.997  1.00  0.00     0.185 HD
HETATM   17  N9  UNL     1      39.962  23.581  13.570  1.00  0.00    -0.178 N 
ATOM     18  H9  UNL     1      40.222  22.748  14.097  1.00  0.00     0.185 HD
BRANCH  12  19
HETATM   19  N1  UNL     1      38.950  26.966  11.432  1.00  0.00    -0.219 N 
HETATM   20  C1  UNL     1      38.754  26.843  10.001  1.00  0.00     0.168 C 
BRANCH  19  21
HETATM   21  C2  UNL     1      38.811  28.220  12.125  1.00  0.00     0.166 C 
BRANCH  21  22
HETATM   22  C3  UNL     1      39.846  29.242  11.704  1.00  0.00     0.184 C 
BRANCH  22  23
HETATM   23  O1  UNL     1      41.097  28.692  12.056  1.00  0.00    -0.399 OA
ATOM     24  H1  UNL     1      41.524  28.474  11.237  1.00  0.00     0.209 HD
ENDBRANCH  22  23
ENDBRANCH  21  22
ENDBRANCH  19  21
ENDBRANCH  12  19
BRANCH  15  25
HETATM   25  C21 UNL     1      42.326  24.007  13.309  1.00  0.00     0.306 C 
BRANCH  25  26
HETATM   26  N10 UNL     1      42.985  23.532  12.112  1.00  0.00    -0.073 N 
ATOM     27 3H10 UNL     1      43.981  23.383  12.276  1.00  0.00     0.274 HD
ATOM     28 2H10 UNL     1      42.708  22.574  11.896  1.00  0.00     0.274 HD
ATOM     29 1H10 UNL     1      42.833  24.147  11.312  1.00  0.00     0.274 HD
ENDBRANCH  25  26
ENDBRANCH  15  25
ENDBRANCH   8  10
ENDBRANCH   1   8
BRANCH   4  30
HETATM   30  C10 UNL     1      36.246  18.581  10.871  1.00  0.00     0.060 A 
HETATM   31  C11 UNL     1      36.638  18.418   9.580  1.00  0.00     0.120 A 
HETATM   32  N4  UNL     1      36.248  17.311   8.878  1.00  0.00    -0.348 N 
HETATM   33  C12 UNL     1      35.475  16.382   9.462  1.00  0.00     0.135 A 
ATOM     34  H4  UNL     1      36.543  17.191   7.909  1.00  0.00     0.167 HD
HETATM   35  N5  UNL     1      35.095  15.297   8.759  1.00  0.00    -0.350 N 
HETATM   36  C18 UNL     1      35.065  16.523  10.766  1.00  0.00     0.118 A 
HETATM   37  C13 UNL     1      34.328  14.339   9.273  1.00  0.00     0.093 A 
ATOM     38  H5  UNL     1      35.407  15.206   7.792  1.00  0.00     0.166 HD
HETATM   39  C14 UNL     1      33.905  14.459  10.577  1.00  0.00     0.063 A 
HETATM   40  C15 UNL     1      34.256  15.557  11.380  1.00  0.00     0.131 A 
HETATM   41  N7  UNL     1      35.465  17.620  11.429  1.00  0.00    -0.349 N 
ATOM     42  H7  UNL     1      35.168  17.737  12.398  1.00  0.00     0.166 HD
BRANCH  40  43
HETATM   43  N6  UNL     1      33.877  15.636  12.502  1.00  0.00    -0.445 NA
BRANCH  43  44
HETATM   44  C16 UNL     1      33.595  15.546  13.809  1.00  0.00     0.229 C 
BRANCH  44  45
HETATM   45  C17 UNL     1      32.841  14.251  14.134  1.00  0.00     0.119 C 
HETATM   46  S1  UNL     1      32.823  13.956  15.923  1.00  0.00    -0.095 SA
ENDBRANCH  44  45
ENDBRANCH  43  44
ENDBRANCH  40  43
ENDBRANCH   4  30
TORSDOF 12
ENDMDL
MODEL 2
REMARK VINA RESULT: -7.334206434      0.863      2.417
REMARK  12 active torsions:
REMARK  status: ('A' for Active; 'I' for Inactive)
REMARK    1  A    between atoms: N1_2  and  C2_3 
REMARK    2  A    between atoms: N1_2  and  C4_7 
REMARK    3  A    between atoms: C2_3  and  C3_4 
REMARK    4  A    between atoms: C3_4  and  O1_5 
REMARK    5  A    between atoms: C5_10  and  N3_11 
REMARK    6  A    between atoms: N3_11  and  C6_13 
REMARK    7  A    between atoms: C9_16  and  C10_17 
REMARK    8  A    between atoms: C15_26  and  N6_27 
REMARK    9  A    between atoms: N6_27  and  C16_28 
REMARK   10  A    between atoms: C16_28  and  C17_29 
REMARK   11  A    between atoms: C20_39  and  C21_40 
REMARK   12  A    between atoms: C21_40  and  N10_41 
ROOT
HETATM    1  C6  UNL     1      37.434  21.917  13.199  1.00  0.00     0.120 A 
HETATM    2  C7  UNL     1      37.170  22.127  11.842  1.00  0.00     0.050 A 
HETATM    3  C8  UNL     1      36.766  21.060  11.100  1.00  0.00     0.019 A 
HETATM    4  C9  UNL     1      36.613  19.798  11.658  1.00  0.00     0.007 A 
HETATM    5  C19 UNL     1      36.874  19.617  12.974  1.00  0.00     0.103 A 
HETATM    6  N8  UNL     1      37.280  20.690  13.717  1.00  0.00    -0.351 N 
ATOM      7  H8  UNL     1      37.475  20.551  14.708  1.00  0.00     0.166 HD
ENDROOT
BRANCH   1   8
HETATM    8  N3  UNL     1      37.863  23.026  13.973  1.00  0.00    -0.176 N 
ATOM      9  H3  UNL     1      37.585  23.117  14.951  1.00  0.00     0.186 HD
BRANCH   8  10
HETATM   10  C5  UNL     1      38.603  23.910  13.421  1.00  0.00     0.699 A 
HETATM   11  N2  UNL     1      39.932  23.808  13.515  1.00  0.00    -0.022 N 
HETATM   12  C4  UNL     1      40.793  24.687  12.967  1.00  0.00     0.696 A 
ATOM     13  H2  UNL     1      40.317  23.018  14.033  1.00  0.00     0.203 HD
HETATM   14  N11 UNL     1      40.262  25.731  12.286  1.00  0.00    -0.178 N 
HETATM   15  C20 UNL     1      38.929  25.864  12.173  1.00  0.00     0.138 A 
ATOM     16  H11 UNL     1      40.879  26.420  11.856  1.00  0.00     0.185 HD
HETATM   17  N9  UNL     1      38.106  24.962  12.736  1.00  0.00    -0.178 N 
ATOM     18  H9  UNL     1      37.096  25.073  12.644  1.00  0.00     0.185 HD
BRANCH  12  19
HETATM   19  N1  UNL     1      42.200  24.546  13.081  1.00  0.00    -0.219 N 
HETATM   20  C1  UNL     1      42.846  23.489  12.330  1.00  0.00     0.168 C 
BRANCH  19  21
HETATM   21  C2  UNL     1      42.932  25.445  13.935  1.00  0.00     0.166 C 
BRANCH  21  22
HETATM   22  C3  UNL     1      43.712  26.486  13.159  1.00  0.00     0.184 C 
BRANCH  22  23
HETATM   23  O1  UNL     1      42.782  27.492  12.821  1.00  0.00    -0.399 OA
ATOM     24  H1  UNL     1      43.027  27.791  11.954  1.00  0.00     0.209 HD
ENDBRANCH  22  23
ENDBRANCH  21  22
ENDBRANCH  19  21
ENDBRANCH  12  19
BRANCH  15  25
HETATM   25  C21 UNL     1      38.325  26.990  11.441  1.00  0.00     0.306 C 
BRANCH  25  26
HETATM   26  N10 UNL     1      39.094  28.208  11.565  1.00  0.00    -0.073 N 
ATOM     27 3H10 UNL     1      39.946  28.050  12.104  1.00  0.00     0.274 HD
ATOM     28 2H10 UNL     1      39.511  28.473  10.672  1.00  0.00     0.274 HD
ATOM     29 1H10 UNL     1      38.550  28.977  11.957  1.00  0.00     0.274 HD
ENDBRANCH  25  26
ENDBRANCH  15  25
ENDBRANCH   8  10
ENDBRANCH   1   8
BRANCH   4  30
HETATM   30  C10 UNL     1      36.178  18.688  10.796  1.00  0.00     0.060 A 
HETATM   31  C11 UNL     1      36.489  18.617   9.475  1.00  0.00     0.120 A 
HETATM   32  N4  UNL     1      36.051  17.562   8.722  1.00  0.00    -0.348 N 
HETATM   33  C12 UNL     1      35.312  16.594   9.286  1.00  0.00     0.135 A 
ATOM     34  H4  UNL     1      36.287  17.510   7.730  1.00  0.00     0.167 HD
HETATM   35  N5  UNL     1      34.885  15.561   8.533  1.00  0.00    -0.350 N 
HETATM   36  C18 UNL     1      34.984  16.643  10.619  1.00  0.00     0.118 A 
HETATM   37  C13 UNL     1      34.147  14.570   9.025  1.00  0.00     0.093 A 
ATOM     38  H5  UNL     1      35.137  15.538   7.545  1.00  0.00     0.166 HD
HETATM   39  C14 UNL     1      33.805  14.598  10.358  1.00  0.00     0.063 A 
HETATM   40  C15 UNL     1      34.210  15.636  11.213  1.00  0.00     0.131 A 
HETATM   41  N7  UNL     1      35.428  17.690  11.332  1.00  0.00    -0.349 N 
ATOM     42  H7  UNL     1      35.192  17.739  12.323  1.00  0.00     0.166 HD
BRANCH  40  43
HETATM   43  N6  UNL     1      33.901  15.636  12.359  1.00  0.00    -0.445 NA
BRANCH  43  44
HETATM   44  C16 UNL     1      33.742  15.502  13.682  1.00  0.00     0.229 C 
BRANCH  44  45
HETATM   45  C17 UNL     1      32.779  14.357  14.020  1.00  0.00     0.119 C 
HETATM   46  S1  UNL     1      32.759  14.046  15.807  1.00  0.00    -0.095 SA
ENDBRANCH  44  45
ENDBRANCH  43  44
ENDBRANCH  40  43
ENDBRANCH   4  30
TORSDOF 12
ENDMDL
MODEL 3
REMARK VINA RESULT: -7.219973200      1.443      2.886
REMARK  12 active torsions:
REMARK  status: ('A' for Active; 'I' for Inactive)
REMARK    1  A    between atoms: N1_2  and  C2_3 
REMARK    2  A    between atoms: N1_2  and  C4_7 
REMARK    3  A    between atoms: C2_3  and  C3_4 
REMARK    4  A    between atoms: C3_4  and  O1_5 
REMARK    5  A    between atoms: C5_10  and  N3_11 
REMARK    6  A    between atoms: N3_11  and  C6_13 
REMARK    7  A    between atoms: C9_16  and  C10_17 
REMARK    8  A    between atoms: C15_26  and  N6_27 
REMARK    9  A    between atoms: N6_27  and  C16_28 
REMARK   10  A    between atoms: C16_28  and  C17_29 
REMARK   11  A    between atoms: C20_39  and  C21_40 
REMARK   12  A    between atoms: C21_40  and  N10_41 
ROOT
HETATM    1  C6  UNL     1      37.421  21.913  13.193  1.00  0.00     0.120 A 
HETATM    2  C7  UNL     1      37.153  22.118  11.836  1.00  0.00     0.050 A 
HETATM    3  C8  UNL     1      36.752  21.047  11.097  1.00  0.00     0.019 A 
HETATM    4  C9  UNL     1      36.606  19.785  11.659  1.00  0.00     0.007 A 
HETATM    5  C19 UNL     1      36.871  19.609  12.975  1.00  0.00     0.103 A 
HETATM    6  N8  UNL     1      37.274  20.686  13.714  1.00  0.00    -0.351 N 
ATOM      7  H8  UNL     1      37.472  20.551  14.705  1.00  0.00     0.166 HD
ENDROOT
BRANCH   1   8
HETATM    8  N3  UNL     1      37.846  23.026  13.963  1.00  0.00    -0.176 N 
ATOM      9  H3  UNL     1      37.561  23.124  14.937  1.00  0.00     0.186 HD
BRANCH   8  10
HETATM   10  C5  UNL     1      38.594  23.904  13.411  1.00  0.00     0.699 A 
HETATM   11  N2  UNL     1      39.923  23.785  13.498  1.00  0.00    -0.022 N 
HETATM   12  C4  UNL     1      40.791  24.657  12.949  1.00  0.00     0.696 A 
ATOM     13  H2  UNL     1      40.301  22.988  14.009  1.00  0.00     0.203 HD
HETATM   14  N11 UNL     1      40.269  25.710  12.275  1.00  0.00    -0.178 N 
HETATM   15  C20 UNL     1      38.936  25.859  12.170  1.00  0.00     0.138 A 
ATOM     16  H11 UNL     1      40.891  26.394  11.846  1.00  0.00     0.185 HD
HETATM   17  N9  UNL     1      38.106  24.964  12.733  1.00  0.00    -0.178 N 
ATOM     18  H9  UNL     1      37.097  25.088  12.647  1.00  0.00     0.185 HD
BRANCH  12  19
HETATM   19  N1  UNL     1      42.196  24.498  13.055  1.00  0.00    -0.219 N 
HETATM   20  C1  UNL     1      42.927  25.416  13.906  1.00  0.00     0.168 C 
BRANCH  19  21
HETATM   21  C2  UNL     1      42.845  23.444  12.319  1.00  0.00     0.166 C 
BRANCH  21  22
HETATM   22  C3  UNL     1      44.301  23.743  12.027  1.00  0.00     0.184 C 
BRANCH  22  23
HETATM   23  O1  UNL     1      45.034  22.679  12.593  1.00  0.00    -0.399 OA
ATOM     24  H1  UNL     1      45.929  22.989  12.664  1.00  0.00     0.209 HD
ENDBRANCH  22  23
ENDBRANCH  21  22
ENDBRANCH  19  21
ENDBRANCH  12  19
BRANCH  15  25
HETATM   25  C21 UNL     1      38.342  26.996  11.446  1.00  0.00     0.306 C 
BRANCH  25  26
HETATM   26  N10 UNL     1      39.133  28.201  11.562  1.00  0.00    -0.073 N 
ATOM     27 3H10 UNL     1      38.540  29.031  11.553  1.00  0.00     0.274 HD
ATOM     28 2H10 UNL     1      39.530  28.292  12.497  1.00  0.00     0.274 HD
ATOM     29 1H10 UNL     1      39.860  28.261  10.849  1.00  0.00     0.274 HD
ENDBRANCH  25  26
ENDBRANCH  15  25
ENDBRANCH   8  10
ENDBRANCH   1   8
BRANCH   4  30
HETATM   30  C10 UNL     1      36.174  18.671  10.801  1.00  0.00     0.060 A 
HETATM   31  C11 UNL     1      36.487  18.596   9.480  1.00  0.00     0.120 A 
HETATM   32  N4  UNL     1      36.051  17.537   8.731  1.00  0.00    -0.348 N 
HETATM   33  C12 UNL     1      35.314  16.570   9.299  1.00  0.00     0.135 A 
ATOM     34  H4  UNL     1      36.288  17.482   7.740  1.00  0.00     0.167 HD
HETATM   35  N5  UNL     1      34.889  15.533   8.549  1.00  0.00    -0.350 N 
HETATM   36  C18 UNL     1      34.984  16.623  10.631  1.00  0.00     0.118 A 
HETATM   37  C13 UNL     1      34.153  14.542   9.045  1.00  0.00     0.093 A 
ATOM     38  H5  UNL     1      35.142  15.507   7.562  1.00  0.00     0.166 HD
HETATM   39  C14 UNL     1      33.810  14.574  10.377  1.00  0.00     0.063 A 
HETATM   40  C15 UNL     1      34.212  15.617  11.229  1.00  0.00     0.131 A 
HETATM   41  N7  UNL     1      35.426  17.674  11.340  1.00  0.00    -0.349 N 
ATOM     42  H7  UNL     1      35.188  17.726  12.331  1.00  0.00     0.166 HD
BRANCH  40  43
HETATM   43  N6  UNL     1      33.902  15.620  12.374  1.00  0.00    -0.445 NA
BRANCH  43  44
HETATM   44  C16 UNL     1      33.745  15.496  13.699  1.00  0.00     0.229 C 
BRANCH  44  45
HETATM   45  C17 UNL     1      32.739  14.390  14.044  1.00  0.00     0.119 C 
HETATM   46  S1  UNL     1      32.778  14.025  15.820  1.00  0.00    -0.095 SA
ENDBRANCH  44  45
ENDBRANCH  43  44
ENDBRANCH  40  43
ENDBRANCH   4  30
TORSDOF 12
ENDMDL
MODEL 4
REMARK VINA RESULT: -4.188881842      4.381     10.934
REMARK  12 active torsions:
REMARK  status: ('A' for Active; 'I' for Inactive)
REMARK    1  A    between atoms: N1_2  and  C2_3 
REMARK    2  A    between atoms: N1_2  and  C4_7 
REMARK    3  A    between atoms: C2_3  and  C3_4 
REMARK    4  A    between atoms: C3_4  and  O1_5 
REMARK    5  A    between atoms: C5_10  and  N3_11 
REMARK    6  A    between atoms: N3_11  and  C6_13 
REMARK    7  A    between atoms: C9_16  and  C10_17 
REMARK    8  A    between atoms: C15_26  and  N6_27 
REMARK    9  A    between atoms: N6_27  and  C16_28 
REMARK   10  A    between atoms: C16_28  and  C17_29 
REMARK   11  A    between atoms: C20_39  and  C21_40 
REMARK   12  A    between atoms: C21_40  and  N10_41 
ROOT
HETATM    1  C6  UNL     1      37.739  22.611  12.778  1.00  0.00     0.120 A 
HETATM    2  C7  UNL     1      37.724  23.974  13.089  1.00  0.00     0.050 A 
HETATM    3  C8  UNL     1      38.916  24.628  13.141  1.00  0.00     0.019 A 
HETATM    4  C9  UNL     1      40.118  23.978  12.894  1.00  0.00     0.007 A 
HETATM    5  C19 UNL     1      40.110  22.657  12.596  1.00  0.00     0.103 A 
HETATM    6  N8  UNL     1      38.911  22.003  12.544  1.00  0.00    -0.351 N 
ATOM      7  H8  UNL     1      38.908  21.009  12.319  1.00  0.00     0.166 HD
ENDROOT
BRANCH   1   8
HETATM    8  N3  UNL     1      36.498  21.925  12.730  1.00  0.00    -0.176 N 
ATOM      9  H3  UNL     1      35.621  22.441  12.659  1.00  0.00     0.186 HD
BRANCH   8  10
HETATM   10  C5  UNL     1      36.501  20.647  12.778  1.00  0.00     0.699 A 
HETATM   11  N2  UNL     1      36.025  19.949  11.742  1.00  0.00    -0.022 N 
HETATM   12  C4  UNL     1      35.988  18.603  11.699  1.00  0.00     0.696 A 
ATOM     13  H2  UNL     1      35.669  20.466  10.938  1.00  0.00     0.203 HD
HETATM   14  N11 UNL     1      36.462  17.935  12.777  1.00  0.00    -0.178 N 
HETATM   15  C20 UNL     1      36.947  18.608  13.836  1.00  0.00     0.138 A 
ATOM     16  H11 UNL     1      36.451  16.916  12.786  1.00  0.00     0.185 HD
HETATM   17  N9  UNL     1      36.966  19.952  13.837  1.00  0.00    -0.178 N 
ATOM     18  H9  UNL     1      37.336  20.451  14.646  1.00  0.00     0.185 HD
BRANCH  12  19
HETATM   19  N1  UNL     1      35.480  17.893  10.581  1.00  0.00    -0.219 N 
HETATM   20  C1  UNL     1      34.249  17.147  10.744  1.00  0.00     0.168 C 
BRANCH  19  21
HETATM   21  C2  UNL     1      36.200  17.932   9.334  1.00  0.00     0.166 C 
BRANCH  21  22
HETATM   22  C3  UNL     1      35.531  17.120   8.245  1.00  0.00     0.184 C 
BRANCH  22  23
HETATM   23  O1  UNL     1      36.570  16.423   7.591  1.00  0.00    -0.399 OA
ATOM     24  H1  UNL     1      36.334  16.410   6.672  1.00  0.00     0.209 HD
ENDBRANCH  22  23
ENDBRANCH  21  22
ENDBRANCH  19  21
ENDBRANCH  12  19
BRANCH  15  25
HETATM   25  C21 UNL     1      37.467  17.907  15.023  1.00  0.00     0.306 C 
BRANCH  25  26
HETATM   26  N10 UNL     1      36.902  16.585  15.178  1.00  0.00    -0.073 N 
ATOM     27 3H10 UNL     1      36.324  16.529  16.017  1.00  0.00     0.274 HD
ATOM     28 2H10 UNL     1      36.186  16.407  14.473  1.00  0.00     0.274 HD
ATOM     29 1H10 UNL     1      37.612  15.853  15.172  1.00  0.00     0.274 HD
ENDBRANCH  25  26
ENDBRANCH  15  25
ENDBRANCH   8  10
ENDBRANCH   1   8
BRANCH   4  30
HETATM   30  C10 UNL     1      41.371  24.745  12.974  1.00  0.00     0.060 A 
HETATM   31  C11 UNL     1      42.530  24.215  13.444  1.00  0.00     0.120 A 
HETATM   32  N4  UNL     1      43.663  24.980  13.499  1.00  0.00    -0.348 N 
HETATM   33  C12 UNL     1      43.632  26.257  13.089  1.00  0.00     0.135 A 
ATOM     34  H4  UNL     1      44.532  24.579  13.852  1.00  0.00     0.167 HD
HETATM   35  N5  UNL     1      44.754  27.001  13.151  1.00  0.00    -0.350 N 
HETATM   36  C18 UNL     1      42.472  26.817  12.610  1.00  0.00     0.118 A 
HETATM   37  C13 UNL     1      44.795  28.274  12.764  1.00  0.00     0.093 A 
ATOM     38  H5  UNL     1      45.607  26.572  13.508  1.00  0.00     0.166 HD
HETATM   39  C14 UNL     1      43.646  28.856  12.281  1.00  0.00     0.063 A 
HETATM   40  C15 UNL     1      42.434  28.152  12.183  1.00  0.00     0.131 A 
HETATM   41  N7  UNL     1      41.377  26.042  12.568  1.00  0.00    -0.349 N 
ATOM     42  H7  UNL     1      40.510  26.445  12.214  1.00  0.00     0.166 HD
BRANCH  40  43
HETATM   43  N6  UNL     1      41.457  28.679  11.763  1.00  0.00    -0.445 NA
BRANCH  43  44
HETATM   44  C16 UNL     1      40.348  29.095  11.137  1.00  0.00     0.229 C 
BRANCH  44  45
HETATM   45  C17 UNL     1      39.094  28.829  11.979  1.00  0.00     0.119 C 
HETATM   46  S1  UNL     1      38.677  30.282  12.980  1.00  0.00    -0.095 SA
ENDBRANCH  44  45
ENDBRANCH  43  44
ENDBRANCH  40  43
ENDBRANCH   4  30
TORSDOF 12
ENDMDL
MODEL 5
REMARK VINA RESULT: -4.132901665      4.271     10.823
REMARK  12 active torsions:
REMARK  status: ('A' for Active; 'I' for Inactive)
REMARK    1  A    between atoms: N1_2  and  C2_3 
REMARK    2  A    between atoms: N1_2  and  C4_7 
REMARK    3  A    between atoms: C2_3  and  C3_4 
REMARK    4  A    between atoms: C3_4  and  O1_5 
REMARK    5  A    between atoms: C5_10  and  N3_11 
REMARK    6  A    between atoms: N3_11  and  C6_13 
REMARK    7  A    between atoms: C9_16  and  C10_17 
REMARK    8  A    between atoms: C15_26  and  N6_27 
REMARK    9  A    between atoms: N6_27  and  C16_28 
REMARK   10  A    between atoms: C16_28  and  C17_29 
REMARK   11  A    between atoms: C20_39  and  C21_40 
REMARK   12  A    between atoms: C21_40  and  N10_41 
ROOT
HETATM    1  C6  UNL     1      37.260  20.328  13.611  1.00  0.00     0.120 A 
HETATM    2  C7  UNL     1      38.237  20.449  12.618  1.00  0.00     0.050 A 
HETATM    3  C8  UNL     1      38.738  21.690  12.366  1.00  0.00     0.019 A 
HETATM    4  C9  UNL     1      38.303  22.809  13.063  1.00  0.00     0.007 A 
HETATM    5  C19 UNL     1      37.355  22.669  14.020  1.00  0.00     0.103 A 
HETATM    6  N8  UNL     1      36.855  21.422  14.271  1.00  0.00    -0.351 N 
ATOM      7  H8  UNL     1      36.142  21.320  14.993  1.00  0.00     0.166 HD
ENDROOT
BRANCH   1   8
HETATM    8  N3  UNL     1      36.732  19.037  13.871  1.00  0.00    -0.176 N 
ATOM      9  H3  UNL     1      36.770  18.639  14.809  1.00  0.00     0.186 HD
BRANCH   8  10
HETATM   10  C5  UNL     1      36.207  18.383  12.906  1.00  0.00     0.699 A 
HETATM   11  N2  UNL     1      35.395  17.356  13.173  1.00  0.00    -0.022 N 
HETATM   12  C4  UNL     1      34.795  16.609  12.226  1.00  0.00     0.696 A 
ATOM     13  H2  UNL     1      35.219  17.123  14.150  1.00  0.00     0.203 HD
HETATM   14  N11 UNL     1      35.042  16.931  10.933  1.00  0.00    -0.178 N 
HETATM   15  C20 UNL     1      35.856  17.959  10.631  1.00  0.00     0.138 A 
ATOM     16  H11 UNL     1      34.609  16.390  10.185  1.00  0.00     0.185 HD
HETATM   17  N9  UNL     1      36.433  18.679  11.608  1.00  0.00    -0.178 N 
ATOM     18  H9  UNL     1      37.048  19.455  11.367  1.00  0.00     0.185 HD
BRANCH  12  19
HETATM   19  N1  UNL     1      33.933  15.527  12.543  1.00  0.00    -0.219 N 
HETATM   20  C1  UNL     1      33.519  14.644  11.472  1.00  0.00     0.168 C 
BRANCH  19  21
HETATM   21  C2  UNL     1      33.501  15.346  13.904  1.00  0.00     0.166 C 
BRANCH  21  22
HETATM   22  C3  UNL     1      32.496  14.224  14.056  1.00  0.00     0.184 C 
BRANCH  22  23
HETATM   23  O1  UNL     1      31.658  14.598  15.128  1.00  0.00    -0.399 OA
ATOM     24  H1  UNL     1      30.770  14.468  14.820  1.00  0.00     0.209 HD
ENDBRANCH  22  23
ENDBRANCH  21  22
ENDBRANCH  19  21
ENDBRANCH  12  19
BRANCH  15  25
HETATM   25  C21 UNL     1      36.144  18.329   9.235  1.00  0.00     0.306 C 
BRANCH  25  26
HETATM   26  N10 UNL     1      35.630  17.365   8.288  1.00  0.00    -0.073 N 
ATOM     27 3H10 UNL     1      35.631  17.744   7.341  1.00  0.00     0.274 HD
ATOM     28 2H10 UNL     1      36.285  16.594   8.157  1.00  0.00     0.274 HD
ATOM     29 1H10 UNL     1      34.705  17.021   8.544  1.00  0.00     0.274 HD
ENDBRANCH  25  26
ENDBRANCH  15  25
ENDBRANCH   8  10
ENDBRANCH   1   8
BRANCH   4  30
HETATM   30  C10 UNL     1      38.883  24.120  12.734  1.00  0.00     0.060 A 
HETATM   31  C11 UNL     1      38.134  25.166  12.295  1.00  0.00     0.120 A 
HETATM   32  N4  UNL     1      38.730  26.362  12.000  1.00  0.00    -0.348 N 
HETATM   33  C12 UNL     1      40.057  26.504  12.142  1.00  0.00     0.135 A 
ATOM     34  H4  UNL     1      38.166  27.145  11.671  1.00  0.00     0.167 HD
HETATM   35  N5  UNL     1      40.633  27.686  11.845  1.00  0.00    -0.350 N 
HETATM   36  C18 UNL     1      40.836  25.462  12.584  1.00  0.00     0.118 A 
HETATM   37  C13 UNL     1      41.942  27.897  11.960  1.00  0.00     0.093 A 
ATOM     38  H5  UNL     1      40.042  28.450  11.519  1.00  0.00     0.166 HD
HETATM   39  C14 UNL     1      42.742  26.867  12.400  1.00  0.00     0.063 A 
HETATM   40  C15 UNL     1      42.223  25.605  12.731  1.00  0.00     0.131 A 
HETATM   41  N7  UNL     1      40.222  24.302  12.866  1.00  0.00    -0.349 N 
ATOM     42  H7  UNL     1      40.789  23.520  13.195  1.00  0.00     0.166 HD
BRANCH  40  43
HETATM   43  N6  UNL     1      42.936  24.734  13.108  1.00  0.00    -0.445 NA
BRANCH  43  44
HETATM   44  C16 UNL     1      43.813  23.906  13.693  1.00  0.00     0.229 C 
BRANCH  44  45
HETATM   45  C17 UNL     1      45.116  23.810  12.890  1.00  0.00     0.119 C 
HETATM   46  S1  UNL     1      44.792  23.184  11.219  1.00  0.00    -0.095 SA
ENDBRANCH  44  45
ENDBRANCH  43  44
ENDBRANCH  40  43
ENDBRANCH   4  30
TORSDOF 12
ENDMDL
