MODEL 1
REMARK VINA RESULT: -4.796852723      0.000      0.000
REMARK  4 active torsions:
REMARK  status: ('A' for Active; 'I' for Inactive)
REMARK    1  A    between atoms: N1_1  and  N2_4 
REMARK    2  A    between atoms: N2_4  and  C1_6 
REMARK    3  A    between atoms: C2_15  and  N7_16 
REMARK    4  A    between atoms: N7_16  and  N8_18 
ROOT
HETATM    1  C1  UNL     1      50.519  37.596  27.870  1.00  0.00     0.183 A 
HETATM    2  N3  UNL     1      50.416  36.950  26.686  1.00  0.00    -0.266 N 
ATOM      3  H3  UNL     1      49.692  36.243  26.553  1.00  0.00     0.190 HD
HETATM    4  N4  UNL     1      51.251  37.233  25.701  1.00  0.00    -0.226 N 
ATOM      5  H4  UNL     1      51.184  36.752  24.804  1.00  0.00     0.210 HD
HETATM    6  N5  UNL     1      52.174  38.153  25.908  1.00  0.00    -0.226 N 
ATOM      7  H5  UNL     1      52.816  38.369  25.145  1.00  0.00     0.210 HD
HETATM    8  N6  UNL     1      52.313  38.803  27.027  1.00  0.00    -0.266 N 
ATOM      9  H6  UNL     1      53.051  39.502  27.120  1.00  0.00     0.190 HD
HETATM   10  C2  UNL     1      51.502  38.559  28.052  1.00  0.00     0.183 A 
ENDROOT
BRANCH   1  11
HETATM   11  N2  UNL     1      49.697  37.291  28.782  1.00  0.00    -0.288 N 
ATOM     12  H2  UNL     1      50.090  37.122  29.708  1.00  0.00     0.188 HD
BRANCH  11  13
HETATM   13  N1  UNL     1      48.329  37.161  28.662  1.00  0.00    -0.343 N 
ATOM     14  H12 UNL     1      47.840  37.991  28.329  1.00  0.00     0.176 HD
ATOM     15  H11 UNL     1      47.768  36.335  28.869  1.00  0.00     0.176 HD
ENDBRANCH  11  13
ENDBRANCH   1  11
BRANCH  10  16
HETATM   16  N7  UNL     1      51.557  39.141  29.190  1.00  0.00    -0.288 N 
ATOM     17  H7  UNL     1      50.902  39.908  29.345  1.00  0.00     0.188 HD
BRANCH  16  18
HETATM   18  N8  UNL     1      52.404  38.839  30.218  1.00  0.00    -0.343 N 
ATOM     19  H82 UNL     1      53.279  39.361  30.235  1.00  0.00     0.176 HD
ATOM     20  H81 UNL     1      52.244  38.153  30.955  1.00  0.00     0.176 HD
ENDBRANCH  16  18
ENDBRANCH  10  16
TORSDOF 4
ENDMDL
MODEL 2
REMARK VINA RESULT: -4.733629826      0.908      2.735
REMARK  4 active torsions:
REMARK  status: ('A' for Active; 'I' for Inactive)
REMARK    1  A    between atoms: N1_1  and  N2_4 
REMARK    2  A    between atoms: N2_4  and  C1_6 
REMARK    3  A    between atoms: C2_15  and  N7_16 
REMARK    4  A    between atoms: N7_16  and  N8_18 
ROOT
HETATM    1  C1  UNL     1      51.466  38.066  28.351  1.00  0.00     0.183 A 
HETATM    2  N3  UNL     1      52.664  38.107  27.722  1.00  0.00    -0.266 N 
ATOM      3  H3  UNL     1      53.526  38.044  28.264  1.00  0.00     0.190 HD
HETATM    4  N4  UNL     1      52.718  38.227  26.407  1.00  0.00    -0.226 N 
ATOM      5  H4  UNL     1      53.614  38.259  25.922  1.00  0.00     0.210 HD
HETATM    6  N5  UNL     1      51.583  38.303  25.738  1.00  0.00    -0.226 N 
ATOM      7  H5  UNL     1      51.629  38.395  24.723  1.00  0.00     0.210 HD
HETATM    8  N6  UNL     1      50.407  38.268  26.296  1.00  0.00    -0.266 N 
ATOM      9  H6  UNL     1      49.569  38.333  25.718  1.00  0.00     0.190 HD
HETATM   10  C2  UNL     1      50.292  38.149  27.615  1.00  0.00     0.183 A 
ENDROOT
BRANCH   1  11
HETATM   11  N2  UNL     1      51.466  37.951  29.611  1.00  0.00    -0.288 N 
ATOM     12  H2  UNL     1      50.861  37.227  30.000  1.00  0.00     0.188 HD
BRANCH  11  13
HETATM   13  N1  UNL     1      52.193  38.696  30.516  1.00  0.00    -0.343 N 
ATOM     14  H12 UNL     1      53.195  38.507  30.530  1.00  0.00     0.176 HD
ATOM     15  H11 UNL     1      51.837  39.401  31.161  1.00  0.00     0.176 HD
ENDBRANCH  11  13
ENDBRANCH   1  11
BRANCH  10  16
HETATM   16  N7  UNL     1      49.187  38.106  28.257  1.00  0.00    -0.288 N 
ATOM     17  H7  UNL     1      48.902  38.960  28.737  1.00  0.00     0.188 HD
BRANCH  16  18
HETATM   18  N8  UNL     1      48.349  37.034  28.364  1.00  0.00    -0.343 N 
ATOM     19  H82 UNL     1      48.622  36.207  27.833  1.00  0.00     0.176 HD
ATOM     20  H81 UNL     1      47.493  36.984  28.916  1.00  0.00     0.176 HD
ENDBRANCH  16  18
ENDBRANCH  10  16
TORSDOF 4
ENDMDL
MODEL 3
REMARK VINA RESULT: -4.620850184      1.382      3.077
REMARK  4 active torsions:
REMARK  status: ('A' for Active; 'I' for Inactive)
REMARK    1  A    between atoms: N1_1  and  N2_4 
REMARK    2  A    between atoms: N2_4  and  C1_6 
REMARK    3  A    between atoms: C2_15  and  N7_16 
REMARK    4  A    between atoms: N7_16  and  N8_18 
ROOT
HETATM    1  C1  UNL     1      50.624  37.543  27.426  1.00  0.00     0.183 A 
HETATM    2  N3  UNL     1      50.962  37.187  28.687  1.00  0.00    -0.266 N 
ATOM      3  H3  UNL     1      50.604  36.318  29.084  1.00  0.00     0.190 HD
HETATM    4  N4  UNL     1      51.755  37.964  29.406  1.00  0.00    -0.226 N 
ATOM      5  H4  UNL     1      52.016  37.707  30.357  1.00  0.00     0.210 HD
HETATM    6  N5  UNL     1      52.201  39.080  28.860  1.00  0.00    -0.226 N 
ATOM      7  H5  UNL     1      52.813  39.676  29.418  1.00  0.00     0.210 HD
HETATM    8  N6  UNL     1      51.905  39.466  27.652  1.00  0.00    -0.266 N 
ATOM      9  H6  UNL     1      52.284  40.342  27.293  1.00  0.00     0.190 HD
HETATM   10  C2  UNL     1      51.112  38.725  26.884  1.00  0.00     0.183 A 
ENDROOT
BRANCH   1  11
HETATM   11  N2  UNL     1      49.863  36.769  26.779  1.00  0.00    -0.288 N 
ATOM     12  H2  UNL     1      48.860  36.906  26.907  1.00  0.00     0.188 HD
BRANCH  11  13
HETATM   13  N1  UNL     1      50.238  35.758  25.917  1.00  0.00    -0.343 N 
ATOM     14  H12 UNL     1      49.692  34.900  25.988  1.00  0.00     0.176 HD
ATOM     15  H11 UNL     1      50.992  35.783  25.231  1.00  0.00     0.176 HD
ENDBRANCH  11  13
ENDBRANCH   1  11
BRANCH  10  16
HETATM   16  N7  UNL     1      50.763  39.016  25.689  1.00  0.00    -0.288 N 
ATOM     17  H7  UNL     1      49.894  39.539  25.579  1.00  0.00     0.188 HD
BRANCH  16  18
HETATM   18  N8  UNL     1      51.436  38.698  24.544  1.00  0.00    -0.343 N 
ATOM     19  H82 UNL     1      51.028  37.948  23.987  1.00  0.00     0.176 HD
ATOM     20  H81 UNL     1      52.293  39.134  24.202  1.00  0.00     0.176 HD
ENDBRANCH  16  18
ENDBRANCH  10  16
TORSDOF 4
ENDMDL
MODEL 4
REMARK VINA RESULT: -4.592554360      1.399      3.719
REMARK  4 active torsions:
REMARK  status: ('A' for Active; 'I' for Inactive)
REMARK    1  A    between atoms: N1_1  and  N2_4 
REMARK    2  A    between atoms: N2_4  and  C1_6 
REMARK    3  A    between atoms: C2_15  and  N7_16 
REMARK    4  A    between atoms: N7_16  and  N8_18 
ROOT
HETATM    1  C1  UNL     1      51.084  38.648  26.890  1.00  0.00     0.183 A 
HETATM    2  N3  UNL     1      51.879  39.459  27.627  1.00  0.00    -0.266 N 
ATOM      3  H3  UNL     1      52.214  40.338  27.232  1.00  0.00     0.190 HD
HETATM    4  N4  UNL     1      52.220  39.114  28.856  1.00  0.00    -0.226 N 
ATOM      5  H4  UNL     1      52.819  39.717  29.420  1.00  0.00     0.210 HD
HETATM    6  N5  UNL     1      51.766  37.971  29.335  1.00  0.00    -0.226 N 
ATOM      7  H5  UNL     1      52.032  37.710  30.285  1.00  0.00     0.210 HD
HETATM    8  N6  UNL     1      51.000  37.158  28.668  1.00  0.00    -0.266 N 
ATOM      9  H6  UNL     1      50.686  36.288  29.100  1.00  0.00     0.190 HD
HETATM   10  C2  UNL     1      50.625  37.452  27.427  1.00  0.00     0.183 A 
ENDROOT
BRANCH   1  11
HETATM   11  N2  UNL     1      50.785  39.020  25.719  1.00  0.00    -0.288 N 
ATOM     12  H2  UNL     1      49.967  39.622  25.630  1.00  0.00     0.188 HD
BRANCH  11  13
HETATM   13  N1  UNL     1      51.444  38.702  24.550  1.00  0.00    -0.343 N 
ATOM     14  H12 UNL     1      52.442  38.521  24.647  1.00  0.00     0.176 HD
ATOM     15  H11 UNL     1      51.041  38.630  23.615  1.00  0.00     0.176 HD
ENDBRANCH  11  13
ENDBRANCH   1  11
BRANCH  10  16
HETATM   16  N7  UNL     1      49.877  36.722  26.690  1.00  0.00    -0.288 N 
ATOM     17  H7  UNL     1      48.874  36.905  26.731  1.00  0.00     0.188 HD
BRANCH  16  18
HETATM   18  N8  UNL     1      50.285  35.722  25.855  1.00  0.00    -0.343 N 
ATOM     19  H82 UNL     1      49.866  35.726  24.926  1.00  0.00     0.176 HD
ATOM     20  H81 UNL     1      50.958  34.986  26.071  1.00  0.00     0.176 HD
ENDBRANCH  16  18
ENDBRANCH  10  16
TORSDOF 4
ENDMDL
MODEL 5
REMARK VINA RESULT: -4.576167349      1.816      2.553
REMARK  4 active torsions:
REMARK  status: ('A' for Active; 'I' for Inactive)
REMARK    1  A    between atoms: N1_1  and  N2_4 
REMARK    2  A    between atoms: N2_4  and  C1_6 
REMARK    3  A    between atoms: C2_15  and  N7_16 
REMARK    4  A    between atoms: N7_16  and  N8_18 
ROOT
HETATM    1  C1  UNL     1      50.299  36.992  26.202  1.00  0.00     0.183 A 
HETATM    2  N3  UNL     1      51.048  37.300  25.118  1.00  0.00    -0.266 N 
ATOM      3  H3  UNL     1      51.391  36.557  24.509  1.00  0.00     0.190 HD
HETATM    4  N4  UNL     1      51.336  38.562  24.848  1.00  0.00    -0.226 N 
ATOM      5  H4  UNL     1      51.900  38.806  24.035  1.00  0.00     0.210 HD
HETATM    6  N5  UNL     1      50.874  39.497  25.657  1.00  0.00    -0.226 N 
ATOM      7  H5  UNL     1      51.099  40.469  25.444  1.00  0.00     0.210 HD
HETATM    8  N6  UNL     1      50.150  39.252  26.711  1.00  0.00    -0.266 N 
ATOM      9  H6  UNL     1      49.827  40.024  27.294  1.00  0.00     0.190 HD
HETATM   10  C2  UNL     1      49.830  38.002  27.032  1.00  0.00     0.183 A 
ENDROOT
BRANCH   1  11
HETATM   11  N2  UNL     1      50.050  35.771  26.420  1.00  0.00    -0.288 N 
ATOM     12  H2  UNL     1      50.386  35.391  27.304  1.00  0.00     0.188 HD
BRANCH  11  13
HETATM   13  N1  UNL     1      49.374  34.898  25.593  1.00  0.00    -0.343 N 
ATOM     14  H12 UNL     1      49.920  34.107  25.255  1.00  0.00     0.176 HD
ATOM     15  H11 UNL     1      48.402  34.963  25.291  1.00  0.00     0.176 HD
ENDBRANCH  11  13
ENDBRANCH   1  11
BRANCH  10  16
HETATM   16  N7  UNL     1      49.126  37.659  28.043  1.00  0.00    -0.288 N 
ATOM     17  H7  UNL     1      48.305  37.083  27.856  1.00  0.00     0.188 HD
BRANCH  16  18
HETATM   18  N8  UNL     1      49.363  37.984  29.347  1.00  0.00    -0.343 N 
ATOM     19  H82 UNL     1      48.648  37.689  30.012  1.00  0.00     0.176 HD
ATOM     20  H81 UNL     1      50.173  38.486  29.711  1.00  0.00     0.176 HD
ENDBRANCH  16  18
ENDBRANCH  10  16
TORSDOF 4
ENDMDL
