MODEL 1
REMARK VINA RESULT: -7.842466872      0.000      0.000
REMARK  16 active torsions:
REMARK  status: ('A' for Active; 'I' for Inactive)
REMARK    1  A    between atoms: C1_2  and  C2_4 
REMARK    2  A    between atoms: C2_4  and  N2_5 
REMARK    3  A    between atoms: C2_4  and  C3_9 
REMARK    4  A    between atoms: C3_9  and  O3_11 
REMARK    5  A    between atoms: O3_11  and  C4_12 
REMARK    6  A    between atoms: C4_12  and  C5_13 
REMARK    7  A    between atoms: C5_13  and  O4_14 
REMARK    8  A    between atoms: C5_13  and  C6_16 
REMARK    9  A    between atoms: C6_16  and  N3_17 
REMARK   10  A    between atoms: C6_16  and  C7_21 
REMARK   11  A    between atoms: C8_24  and  O6_25 
REMARK   12  A    between atoms: C9_27  and  N5_28 
REMARK   13  A    between atoms: N7_35  and  C12_36 
REMARK   14  A    between atoms: C12_36  and  C13_37 
REMARK   15  A    between atoms: C12_36  and  C19_47 
REMARK       I    between atoms: C13_37  and  N8_39 
REMARK   16  A    between atoms: C17_43  and  C18_44 
ROOT
HETATM    1  C4  UNL     1      18.287  39.554 103.734  1.00  0.00     0.147 C 
HETATM    2  C8  UNL     1      19.480  38.767 104.254  1.00  0.00     0.190 C 
HETATM    3  C9  UNL     1      19.754  37.668 103.253  1.00  0.00     0.236 C 
HETATM    4  C10 UNL     1      19.145  38.107 101.956  1.00  0.00     0.134 A 
HETATM    5  C11 UNL     1      18.151  39.216 102.273  1.00  0.00     0.155 A 
HETATM    6  N6  UNL     1      17.179  38.240 101.896  1.00  0.00    -0.154 NA
HETATM    7  N7  UNL     1      18.098  37.289 101.532  1.00  0.00    -0.209 NA
ENDROOT
BRANCH   1   8
HETATM    8  O3  UNL     1      18.608  40.917 103.925  1.00  0.00    -0.301 OA
BRANCH   8   9
HETATM    9  C3  UNL     1      19.406  41.661 103.107  1.00  0.00     0.299 C 
HETATM   10  O2  UNL     1      20.646  41.498 103.131  1.00  0.00    -0.262 OA
BRANCH   9  11
HETATM   11  C2  UNL     1      18.871  42.686 102.158  1.00  0.00     0.370 C 
BRANCH  11  12
HETATM   12  C1  UNL     1      18.769  43.955 102.952  1.00  0.00     0.271 C 
HETATM   13  N1  UNL     1      19.888  44.780 103.223  1.00  0.00    -0.060 NA
HETATM   14  O1  UNL     1      17.656  44.358 103.427  1.00  0.00    -0.274 OA
ENDBRANCH  11  12
BRANCH  11  15
HETATM   15  N2  UNL     1      19.833  42.921 101.103  1.00  0.00    -0.058 N 
ATOM     16  H23 UNL     1      20.787  42.677 101.370  1.00  0.00     0.275 HD
ATOM     17  H22 UNL     1      19.743  42.266 100.326  1.00  0.00     0.275 HD
ATOM     18  H21 UNL     1      19.735  43.895 100.818  1.00  0.00     0.275 HD
ENDBRANCH  11  15
ENDBRANCH   9  11
ENDBRANCH   8   9
ENDBRANCH   1   8
BRANCH   1  19
HETATM   19  C5  UNL     1      17.110  39.170 104.549  1.00  0.00     0.197 C 
BRANCH  19  20
HETATM   20  O4  UNL     1      17.125  39.861 105.759  1.00  0.00    -0.390 OA
ATOM     21  H4  UNL     1      16.304  39.727 106.219  1.00  0.00     0.210 HD
ENDBRANCH  19  20
BRANCH  19  22
HETATM   22  C6  UNL     1      15.752  39.311 103.950  1.00  0.00     0.303 C 
BRANCH  22  23
HETATM   23  N3  UNL     1      14.865  38.580 104.909  1.00  0.00    -0.064 N 
ATOM     24  H33 UNL     1      15.296  37.765 105.345  1.00  0.00     0.275 HD
ATOM     25  H32 UNL     1      14.681  39.081 105.778  1.00  0.00     0.275 HD
ATOM     26  H31 UNL     1      14.032  38.373 104.357  1.00  0.00     0.275 HD
ENDBRANCH  22  23
BRANCH  22  27
HETATM   27  C7  UNL     1      15.206  40.680 103.927  1.00  0.00     0.264 C 
HETATM   28  N4  UNL     1      15.384  41.529 102.804  1.00  0.00    -0.060 NA
HETATM   29  O5  UNL     1      14.564  41.169 104.882  1.00  0.00    -0.274 OA
ENDBRANCH  22  27
ENDBRANCH  19  22
ENDBRANCH   1  19
BRANCH   2  30
HETATM   30  O6  UNL     1      19.289  38.264 105.530  1.00  0.00    -0.390 OA
ATOM     31  H6  UNL     1      19.766  37.459 105.691  1.00  0.00     0.210 HD
ENDBRANCH   2  30
BRANCH   3  32
HETATM   32  N5  UNL     1      19.153  36.459 103.785  1.00  0.00    -0.071 N 
ATOM     33  H53 UNL     1      19.181  35.675 103.133  1.00  0.00     0.274 HD
ATOM     34  H52 UNL     1      19.705  36.028 104.527  1.00  0.00     0.274 HD
ATOM     35  H51 UNL     1      18.207  36.705 104.078  1.00  0.00     0.274 HD
ENDBRANCH   3  32
BRANCH   7  36
HETATM   36  C12 UNL     1      18.014  36.637 100.289  1.00  0.00     0.201 C 
BRANCH  36  37
HETATM   37  C13 UNL     1      19.196  36.760  99.433  1.00  0.00     0.242 C 
HETATM   38  O7  UNL     1      20.139  35.884  99.534  1.00  0.00    -0.271 OA
HETATM   39  N8  UNL     1      19.437  37.766  98.475  1.00  0.00    -0.338 N 
HETATM   40  C14 UNL     1      20.583  37.872  97.559  1.00  0.00     0.127 C 
HETATM   41  C17 UNL     1      18.664  38.946  98.192  1.00  0.00     0.176 C 
HETATM   42  C15 UNL     1      20.099  38.649  96.366  1.00  0.00     0.022 C 
HETATM   43  C16 UNL     1      18.673  39.069  96.660  1.00  0.00     0.036 C 
BRANCH  41  44
HETATM   44  C18 UNL     1      19.335  40.149  98.779  1.00  0.00     0.254 C 
HETATM   45  N9  UNL     1      18.987  41.449  98.322  1.00  0.00    -0.060 NA
HETATM   46  O8  UNL     1      20.202  40.037  99.671  1.00  0.00    -0.275 OA
ENDBRANCH  41  44
ENDBRANCH  36  37
BRANCH  36  47
HETATM   47  C19 UNL     1      17.538  35.217 100.509  1.00  0.00     0.172 C 
HETATM   48  N10 UNL     1      17.617  34.768 101.867  1.00  0.00    -0.377 N 
HETATM   49  C20 UNL     1      16.428  34.558 102.544  1.00  0.00     0.022 C 
ATOM     50  H10 UNL     1      18.517  34.610 102.319  1.00  0.00     0.160 HD
HETATM   51  C21 UNL     1      16.365  33.914 103.728  1.00  0.00     0.082 C 
HETATM   52  C22 UNL     1      15.205  35.078 101.895  1.00  0.00     0.133 C 
HETATM   53  S1  UNL     1      17.824  33.268 104.537  1.00  0.00    -0.063 SA
HETATM   54  S2  UNL     1      15.778  34.983 100.143  1.00  0.00    -0.136 SA
ENDBRANCH  36  47
ENDBRANCH   7  36
TORSDOF 16
ENDMDL
MODEL 2
REMARK VINA RESULT: -7.690912312      5.838      8.287
REMARK  16 active torsions:
REMARK  status: ('A' for Active; 'I' for Inactive)
REMARK    1  A    between atoms: C1_2  and  C2_4 
REMARK    2  A    between atoms: C2_4  and  N2_5 
REMARK    3  A    between atoms: C2_4  and  C3_9 
REMARK    4  A    between atoms: C3_9  and  O3_11 
REMARK    5  A    between atoms: O3_11  and  C4_12 
REMARK    6  A    between atoms: C4_12  and  C5_13 
REMARK    7  A    between atoms: C5_13  and  O4_14 
REMARK    8  A    between atoms: C5_13  and  C6_16 
REMARK    9  A    between atoms: C6_16  and  N3_17 
REMARK   10  A    between atoms: C6_16  and  C7_21 
REMARK   11  A    between atoms: C8_24  and  O6_25 
REMARK   12  A    between atoms: C9_27  and  N5_28 
REMARK   13  A    between atoms: N7_35  and  C12_36 
REMARK   14  A    between atoms: C12_36  and  C13_37 
REMARK   15  A    between atoms: C12_36  and  C19_47 
REMARK       I    between atoms: C13_37  and  N8_39 
REMARK   16  A    between atoms: C17_43  and  C18_44 
ROOT
HETATM    1  C4  UNL     1      14.322  35.823 109.933  1.00  0.00     0.147 C 
HETATM    2  C8  UNL     1      15.776  35.662 110.350  1.00  0.00     0.190 C 
HETATM    3  C9  UNL     1      16.617  35.866 109.112  1.00  0.00     0.236 C 
HETATM    4  C10 UNL     1      15.779  36.652 108.149  1.00  0.00     0.134 A 
HETATM    5  C11 UNL     1      14.332  36.537 108.607  1.00  0.00     0.155 A 
HETATM    6  N6  UNL     1      14.181  35.755 107.422  1.00  0.00    -0.154 NA
HETATM    7  N7  UNL     1      15.467  35.949 106.986  1.00  0.00    -0.209 NA
ENDROOT
BRANCH   1   8
HETATM    8  O3  UNL     1      13.713  36.605 110.940  1.00  0.00    -0.301 OA
BRANCH   8   9
HETATM    9  C3  UNL     1      14.343  37.554 111.690  1.00  0.00     0.299 C 
HETATM   10  O2  UNL     1      14.932  38.503 111.127  1.00  0.00    -0.262 OA
BRANCH   9  11
HETATM   11  C2  UNL     1      14.369  37.526 113.186  1.00  0.00     0.370 C 
BRANCH  11  12
HETATM   12  C1  UNL     1      15.815  37.387 113.561  1.00  0.00     0.271 C 
HETATM   13  N1  UNL     1      16.462  36.131 113.658  1.00  0.00    -0.060 NA
HETATM   14  O1  UNL     1      16.540  38.405 113.812  1.00  0.00    -0.274 OA
ENDBRANCH  11  12
BRANCH  11  15
HETATM   15  N2  UNL     1      13.916  38.800 113.703  1.00  0.00    -0.058 N 
ATOM     16  H23 UNL     1      14.368  39.059 114.580  1.00  0.00     0.275 HD
ATOM     17  H22 UNL     1      14.237  39.594 113.150  1.00  0.00     0.275 HD
ATOM     18  H21 UNL     1      12.900  38.749 113.777  1.00  0.00     0.275 HD
ENDBRANCH  11  15
ENDBRANCH   9  11
ENDBRANCH   8   9
ENDBRANCH   1   8
BRANCH   1  19
HETATM   19  C5  UNL     1      13.720  34.469 109.880  1.00  0.00     0.197 C 
BRANCH  19  20
HETATM   20  O4  UNL     1      13.539  33.980 111.171  1.00  0.00    -0.390 OA
ATOM     21  H4  UNL     1      14.358  33.629 111.502  1.00  0.00     0.210 HD
ENDBRANCH  19  20
BRANCH  19  22
HETATM   22  C6  UNL     1      12.446  34.285 109.129  1.00  0.00     0.303 C 
BRANCH  22  23
HETATM   23  N3  UNL     1      12.783  33.243 108.109  1.00  0.00    -0.064 N 
ATOM     24  H33 UNL     1      13.733  33.305 107.741  1.00  0.00     0.275 HD
ATOM     25  H32 UNL     1      12.876  32.300 108.485  1.00  0.00     0.275 HD
ATOM     26  H31 UNL     1      12.051  33.347 107.406  1.00  0.00     0.275 HD
ENDBRANCH  22  23
BRANCH  22  27
HETATM   27  C7  UNL     1      11.336  33.692 109.896  1.00  0.00     0.264 C 
HETATM   28  N4  UNL     1      10.938  32.344 109.699  1.00  0.00    -0.060 NA
HETATM   29  O5  UNL     1      10.690  34.330 110.755  1.00  0.00    -0.274 OA
ENDBRANCH  22  27
ENDBRANCH  19  22
ENDBRANCH   1  19
BRANCH   2  30
HETATM   30  O6  UNL     1      16.038  34.445 110.955  1.00  0.00    -0.390 OA
ATOM     31  H6  UNL     1      16.774  33.985 110.569  1.00  0.00     0.210 HD
ENDBRANCH   2  30
BRANCH   3  32
HETATM   32  N5  UNL     1      16.964  34.545 108.620  1.00  0.00    -0.071 N 
ATOM     33  H53 UNL     1      17.949  34.314 108.747  1.00  0.00     0.274 HD
ATOM     34  H52 UNL     1      16.580  33.791 109.189  1.00  0.00     0.274 HD
ATOM     35  H51 UNL     1      16.664  34.507 107.645  1.00  0.00     0.274 HD
ENDBRANCH   3  32
BRANCH   7  36
HETATM   36  C12 UNL     1      15.732  36.373 105.671  1.00  0.00     0.201 C 
BRANCH  36  37
HETATM   37  C13 UNL     1      17.044  35.993 105.140  1.00  0.00     0.242 C 
HETATM   38  O7  UNL     1      17.493  34.804 105.368  1.00  0.00    -0.271 OA
HETATM   39  N8  UNL     1      17.910  36.807 104.381  1.00  0.00    -0.338 N 
HETATM   40  C14 UNL     1      19.198  36.425 103.781  1.00  0.00     0.127 C 
HETATM   41  C17 UNL     1      17.780  38.201 104.051  1.00  0.00     0.176 C 
HETATM   42  C15 UNL     1      19.398  37.332 102.599  1.00  0.00     0.022 C 
HETATM   43  C16 UNL     1      18.237  38.307 102.588  1.00  0.00     0.036 C 
BRANCH  41  44
HETATM   44  C18 UNL     1      18.698  39.017 104.907  1.00  0.00     0.254 C 
HETATM   45  N9  UNL     1      18.794  38.749 106.299  1.00  0.00    -0.060 NA
HETATM   46  O8  UNL     1      19.389  39.937 104.423  1.00  0.00    -0.275 OA
ENDBRANCH  41  44
ENDBRANCH  36  37
BRANCH  36  47
HETATM   47  C19 UNL     1      14.561  36.003 104.788  1.00  0.00     0.172 C 
HETATM   48  N10 UNL     1      13.708  37.101 104.442  1.00  0.00    -0.377 N 
HETATM   49  C20 UNL     1      13.704  37.522 103.124  1.00  0.00     0.022 C 
ATOM     50  H10 UNL     1      13.124  37.557 105.144  1.00  0.00     0.160 HD
HETATM   51  C21 UNL     1      12.779  38.372 102.630  1.00  0.00     0.082 C 
HETATM   52  C22 UNL     1      14.779  36.982 102.263  1.00  0.00     0.133 C 
HETATM   53  S1  UNL     1      11.464  39.038 103.643  1.00  0.00    -0.063 SA
HETATM   54  S2  UNL     1      15.056  35.391 103.155  1.00  0.00    -0.136 SA
ENDBRANCH  36  47
ENDBRANCH   7  36
TORSDOF 16
ENDMDL
MODEL 3
REMARK VINA RESULT: -7.638655468      1.694      2.135
REMARK  16 active torsions:
REMARK  status: ('A' for Active; 'I' for Inactive)
REMARK    1  A    between atoms: C1_2  and  C2_4 
REMARK    2  A    between atoms: C2_4  and  N2_5 
REMARK    3  A    between atoms: C2_4  and  C3_9 
REMARK    4  A    between atoms: C3_9  and  O3_11 
REMARK    5  A    between atoms: O3_11  and  C4_12 
REMARK    6  A    between atoms: C4_12  and  C5_13 
REMARK    7  A    between atoms: C5_13  and  O4_14 
REMARK    8  A    between atoms: C5_13  and  C6_16 
REMARK    9  A    between atoms: C6_16  and  N3_17 
REMARK   10  A    between atoms: C6_16  and  C7_21 
REMARK   11  A    between atoms: C8_24  and  O6_25 
REMARK   12  A    between atoms: C9_27  and  N5_28 
REMARK   13  A    between atoms: N7_35  and  C12_36 
REMARK   14  A    between atoms: C12_36  and  C13_37 
REMARK   15  A    between atoms: C12_36  and  C19_47 
REMARK       I    between atoms: C13_37  and  N8_39 
REMARK   16  A    between atoms: C17_43  and  C18_44 
ROOT
HETATM    1  C4  UNL     1      16.603  40.710 103.216  1.00  0.00     0.147 C 
HETATM    2  C8  UNL     1      17.627  39.925 104.020  1.00  0.00     0.190 C 
HETATM    3  C9  UNL     1      18.049  38.749 103.170  1.00  0.00     0.236 C 
HETATM    4  C10 UNL     1      17.740  39.113 101.750  1.00  0.00     0.134 A 
HETATM    5  C11 UNL     1      16.754  40.273 101.782  1.00  0.00     0.155 A 
HETATM    6  N6  UNL     1      15.835  39.304 101.276  1.00  0.00    -0.154 NA
HETATM    7  N7  UNL     1      16.765  38.301 101.171  1.00  0.00    -0.209 NA
ENDROOT
BRANCH   1   8
HETATM    8  O3  UNL     1      16.941  42.072 103.382  1.00  0.00    -0.301 OA
BRANCH   8   9
HETATM    9  C3  UNL     1      17.007  42.997 102.381  1.00  0.00     0.299 C 
HETATM   10  O2  UNL     1      15.958  43.386 101.824  1.00  0.00    -0.262 OA
BRANCH   9  11
HETATM   11  C2  UNL     1      18.295  43.587 101.900  1.00  0.00     0.370 C 
BRANCH  11  12
HETATM   12  C1  UNL     1      18.663  44.631 102.914  1.00  0.00     0.271 C 
HETATM   13  N1  UNL     1      19.992  44.828 103.359  1.00  0.00    -0.060 NA
HETATM   14  O1  UNL     1      17.786  45.400 103.427  1.00  0.00    -0.274 OA
ENDBRANCH  11  12
BRANCH  11  15
HETATM   15  N2  UNL     1      19.333  42.579 101.931  1.00  0.00    -0.058 N 
ATOM     16  H23 UNL     1      19.872  42.587 102.798  1.00  0.00     0.275 HD
ATOM     17  H22 UNL     1      18.967  41.630 102.013  1.00  0.00     0.275 HD
ATOM     18  H21 UNL     1      19.909  42.715 101.101  1.00  0.00     0.275 HD
ENDBRANCH  11  15
ENDBRANCH   9  11
ENDBRANCH   8   9
ENDBRANCH   1   8
BRANCH   1  19
HETATM   19  C5  UNL     1      15.268  40.423 103.792  1.00  0.00     0.197 C 
BRANCH  19  20
HETATM   20  O4  UNL     1      14.881  41.464 104.633  1.00  0.00    -0.390 OA
ATOM     21  H4  UNL     1      14.067  41.845 104.323  1.00  0.00     0.210 HD
ENDBRANCH  19  20
BRANCH  19  22
HETATM   22  C6  UNL     1      14.139  40.131 102.863  1.00  0.00     0.303 C 
BRANCH  22  23
HETATM   23  N3  UNL     1      13.417  39.002 103.529  1.00  0.00    -0.064 N 
ATOM     24  H33 UNL     1      13.349  38.154 102.966  1.00  0.00     0.275 HD
ATOM     25  H32 UNL     1      13.925  38.574 104.303  1.00  0.00     0.275 HD
ATOM     26  H31 UNL     1      12.519  39.409 103.788  1.00  0.00     0.275 HD
ENDBRANCH  22  23
BRANCH  22  27
HETATM   27  C7  UNL     1      13.121  41.191 102.748  1.00  0.00     0.264 C 
HETATM   28  N4  UNL     1      11.962  41.196 103.567  1.00  0.00    -0.060 NA
HETATM   29  O5  UNL     1      13.216  42.135 101.934  1.00  0.00    -0.274 OA
ENDBRANCH  22  27
ENDBRANCH  19  22
ENDBRANCH   1  19
BRANCH   2  30
HETATM   30  O6  UNL     1      17.157  39.521 105.258  1.00  0.00    -0.390 OA
ATOM     31  H6  UNL     1      16.651  40.190 105.703  1.00  0.00     0.210 HD
ENDBRANCH   2  30
BRANCH   3  32
HETATM   32  N5  UNL     1      17.298  37.601 103.641  1.00  0.00    -0.071 N 
ATOM     33  H53 UNL     1      16.325  37.818 103.859  1.00  0.00     0.274 HD
ATOM     34  H52 UNL     1      17.115  36.912 102.911  1.00  0.00     0.274 HD
ATOM     35  H51 UNL     1      17.812  37.219 104.436  1.00  0.00     0.274 HD
ENDBRANCH   3  32
BRANCH   7  36
HETATM   36  C12 UNL     1      16.907  37.564  99.981  1.00  0.00     0.201 C 
BRANCH  36  37
HETATM   37  C13 UNL     1      18.283  37.392  99.509  1.00  0.00     0.242 C 
HETATM   38  O7  UNL     1      18.973  36.387  99.936  1.00  0.00    -0.271 OA
HETATM   39  N8  UNL     1      18.972  38.229  98.609  1.00  0.00    -0.338 N 
HETATM   40  C14 UNL     1      20.328  38.038  98.069  1.00  0.00     0.127 C 
HETATM   41  C17 UNL     1      18.552  39.482  98.040  1.00  0.00     0.176 C 
HETATM   42  C15 UNL     1      20.357  38.747  96.743  1.00  0.00     0.022 C 
HETATM   43  C16 UNL     1      19.014  39.429  96.575  1.00  0.00     0.036 C 
BRANCH  41  44
HETATM   44  C18 UNL     1      19.249  40.615  98.728  1.00  0.00     0.254 C 
HETATM   45  N9  UNL     1      19.163  41.929  98.195  1.00  0.00    -0.060 NA
HETATM   46  O8  UNL     1      19.911  40.431  99.770  1.00  0.00    -0.275 OA
ENDBRANCH  41  44
ENDBRANCH  36  37
BRANCH  36  47
HETATM   47  C19 UNL     1      16.113  36.280 100.098  1.00  0.00     0.172 C 
HETATM   48  N10 UNL     1      15.661  35.982 101.425  1.00  0.00    -0.377 N 
HETATM   49  C20 UNL     1      14.301  36.056 101.672  1.00  0.00     0.022 C 
ATOM     50  H10 UNL     1      16.318  35.725 102.161  1.00  0.00     0.160 HD
HETATM   51  C21 UNL     1      13.734  35.570 102.796  1.00  0.00     0.082 C 
HETATM   52  C22 UNL     1      13.480  36.700 100.624  1.00  0.00     0.133 C 
HETATM   53  S1  UNL     1      14.697  34.780 104.080  1.00  0.00    -0.063 SA
HETATM   54  S2  UNL     1      14.554  36.312  99.174  1.00  0.00    -0.136 SA
ENDBRANCH  36  47
ENDBRANCH   7  36
TORSDOF 16
ENDMDL
MODEL 4
REMARK VINA RESULT: -7.553941830      5.442      7.886
REMARK  16 active torsions:
REMARK  status: ('A' for Active; 'I' for Inactive)
REMARK    1  A    between atoms: C1_2  and  C2_4 
REMARK    2  A    between atoms: C2_4  and  N2_5 
REMARK    3  A    between atoms: C2_4  and  C3_9 
REMARK    4  A    between atoms: C3_9  and  O3_11 
REMARK    5  A    between atoms: O3_11  and  C4_12 
REMARK    6  A    between atoms: C4_12  and  C5_13 
REMARK    7  A    between atoms: C5_13  and  O4_14 
REMARK    8  A    between atoms: C5_13  and  C6_16 
REMARK    9  A    between atoms: C6_16  and  N3_17 
REMARK   10  A    between atoms: C6_16  and  C7_21 
REMARK   11  A    between atoms: C8_24  and  O6_25 
REMARK   12  A    between atoms: C9_27  and  N5_28 
REMARK   13  A    between atoms: N7_35  and  C12_36 
REMARK   14  A    between atoms: C12_36  and  C13_37 
REMARK   15  A    between atoms: C12_36  and  C19_47 
REMARK       I    between atoms: C13_37  and  N8_39 
REMARK   16  A    between atoms: C17_43  and  C18_44 
ROOT
HETATM    1  C4  UNL     1      14.893  35.950 109.585  1.00  0.00     0.147 C 
HETATM    2  C8  UNL     1      16.182  35.754 110.368  1.00  0.00     0.190 C 
HETATM    3  C9  UNL     1      17.316  35.795 109.369  1.00  0.00     0.236 C 
HETATM    4  C10 UNL     1      16.803  36.527 108.167  1.00  0.00     0.134 A 
HETATM    5  C11 UNL     1      15.283  36.532 108.252  1.00  0.00     0.155 A 
HETATM    6  N6  UNL     1      15.372  35.649 107.134  1.00  0.00    -0.154 NA
HETATM    7  N7  UNL     1      16.737  35.733 107.023  1.00  0.00    -0.209 NA
ENDROOT
BRANCH   1   8
HETATM    8  O3  UNL     1      14.114  36.856 110.340  1.00  0.00    -0.301 OA
BRANCH   8   9
HETATM    9  C3  UNL     1      14.593  37.700 111.298  1.00  0.00     0.299 C 
HETATM   10  O2  UNL     1      15.294  38.682 110.968  1.00  0.00    -0.262 OA
BRANCH   9  11
HETATM   11  C2  UNL     1      14.322  37.515 112.758  1.00  0.00     0.370 C 
BRANCH  11  12
HETATM   12  C1  UNL     1      15.669  37.490 113.418  1.00  0.00     0.271 C 
HETATM   13  N1  UNL     1      16.381  36.289 113.655  1.00  0.00    -0.060 NA
HETATM   14  O1  UNL     1      16.244  38.561 113.802  1.00  0.00    -0.274 OA
ENDBRANCH  11  12
BRANCH  11  15
HETATM   15  N2  UNL     1      13.618  38.670 113.271  1.00  0.00    -0.058 N 
ATOM     16  H23 UNL     1      12.808  38.425 113.841  1.00  0.00     0.275 HD
ATOM     17  H22 UNL     1      14.139  39.170 113.992  1.00  0.00     0.275 HD
ATOM     18  H21 UNL     1      13.380  39.257 112.471  1.00  0.00     0.275 HD
ENDBRANCH  11  15
ENDBRANCH   9  11
ENDBRANCH   8   9
ENDBRANCH   1   8
BRANCH   1  19
HETATM   19  C5  UNL     1      14.224  34.630 109.490  1.00  0.00     0.197 C 
BRANCH  19  20
HETATM   20  O4  UNL     1      13.881  34.180 110.762  1.00  0.00    -0.390 OA
ATOM     21  H4  UNL     1      14.662  33.915 111.234  1.00  0.00     0.210 HD
ENDBRANCH  19  20
BRANCH  19  22
HETATM   22  C6  UNL     1      13.027  34.501 108.611  1.00  0.00     0.303 C 
BRANCH  22  23
HETATM   23  N3  UNL     1      13.433  33.464 107.611  1.00  0.00    -0.064 N 
ATOM     24  H33 UNL     1      13.867  33.838 106.767  1.00  0.00     0.275 HD
ATOM     25  H32 UNL     1      14.229  32.893 107.895  1.00  0.00     0.275 HD
ATOM     26  H31 UNL     1      12.575  32.938 107.446  1.00  0.00     0.275 HD
ENDBRANCH  22  23
BRANCH  22  27
HETATM   27  C7  UNL     1      11.827  33.932 109.251  1.00  0.00     0.264 C 
HETATM   28  N4  UNL     1      11.603  32.531 109.291  1.00  0.00    -0.060 NA
HETATM   29  O5  UNL     1      10.949  34.639 109.791  1.00  0.00    -0.274 OA
ENDBRANCH  22  27
ENDBRANCH  19  22
ENDBRANCH   1  19
BRANCH   2  30
HETATM   30  O6  UNL     1      16.196  34.589 111.114  1.00  0.00    -0.390 OA
ATOM     31  H6  UNL     1      15.658  33.899 110.744  1.00  0.00     0.210 HD
ENDBRANCH   2  30
BRANCH   3  32
HETATM   32  N5  UNL     1      17.675  34.417 109.088  1.00  0.00    -0.071 N 
ATOM     33  H53 UNL     1      17.101  33.741 109.592  1.00  0.00     0.274 HD
ATOM     34  H52 UNL     1      17.424  34.121 108.144  1.00  0.00     0.274 HD
ATOM     35  H51 UNL     1      18.671  34.326 109.286  1.00  0.00     0.274 HD
ENDBRANCH   3  32
BRANCH   7  36
HETATM   36  C12 UNL     1      17.349  36.016 105.788  1.00  0.00     0.201 C 
BRANCH  36  37
HETATM   37  C13 UNL     1      18.574  36.816 105.862  1.00  0.00     0.242 C 
HETATM   38  O7  UNL     1      19.448  36.545 106.773  1.00  0.00    -0.271 OA
HETATM   39  N8  UNL     1      18.924  37.894 105.024  1.00  0.00    -0.338 N 
HETATM   40  C14 UNL     1      20.176  38.667 105.037  1.00  0.00     0.127 C 
HETATM   41  C17 UNL     1      18.141  38.531 103.998  1.00  0.00     0.176 C 
HETATM   42  C15 UNL     1      20.356  39.201 103.643  1.00  0.00     0.022 C 
HETATM   43  C16 UNL     1      19.129  38.795 102.851  1.00  0.00     0.036 C 
BRANCH  41  44
HETATM   44  C18 UNL     1      17.614  39.840 104.496  1.00  0.00     0.254 C 
HETATM   45  N9  UNL     1      17.818  41.022 103.735  1.00  0.00    -0.060 NA
HETATM   46  O8  UNL     1      16.992  39.920 105.576  1.00  0.00    -0.275 OA
ENDBRANCH  41  44
ENDBRANCH  36  37
BRANCH  36  47
HETATM   47  C19 UNL     1      17.480  34.731 104.997  1.00  0.00     0.172 C 
HETATM   48  N10 UNL     1      16.235  34.184 104.546  1.00  0.00    -0.377 N 
HETATM   49  C20 UNL     1      15.979  34.206 103.186  1.00  0.00     0.022 C 
ATOM     50  H10 UNL     1      15.561  33.792 105.204  1.00  0.00     0.160 HD
HETATM   51  C21 UNL     1      14.969  33.513 102.620  1.00  0.00     0.082 C 
HETATM   52  C22 UNL     1      16.885  35.037 102.364  1.00  0.00     0.133 C 
HETATM   53  S1  UNL     1      13.859  32.495 103.585  1.00  0.00    -0.063 SA
HETATM   54  S2  UNL     1      18.382  34.935 103.439  1.00  0.00    -0.136 SA
ENDBRANCH  36  47
ENDBRANCH   7  36
TORSDOF 16
ENDMDL
MODEL 5
REMARK VINA RESULT: -7.543974062      5.550      7.998
REMARK  16 active torsions:
REMARK  status: ('A' for Active; 'I' for Inactive)
REMARK    1  A    between atoms: C1_2  and  C2_4 
REMARK    2  A    between atoms: C2_4  and  N2_5 
REMARK    3  A    between atoms: C2_4  and  C3_9 
REMARK    4  A    between atoms: C3_9  and  O3_11 
REMARK    5  A    between atoms: O3_11  and  C4_12 
REMARK    6  A    between atoms: C4_12  and  C5_13 
REMARK    7  A    between atoms: C5_13  and  O4_14 
REMARK    8  A    between atoms: C5_13  and  C6_16 
REMARK    9  A    between atoms: C6_16  and  N3_17 
REMARK   10  A    between atoms: C6_16  and  C7_21 
REMARK   11  A    between atoms: C8_24  and  O6_25 
REMARK   12  A    between atoms: C9_27  and  N5_28 
REMARK   13  A    between atoms: N7_35  and  C12_36 
REMARK   14  A    between atoms: C12_36  and  C13_37 
REMARK   15  A    between atoms: C12_36  and  C19_47 
REMARK       I    between atoms: C13_37  and  N8_39 
REMARK   16  A    between atoms: C17_43  and  C18_44 
ROOT
HETATM    1  C4  UNL     1      14.521  35.762 109.653  1.00  0.00     0.147 C 
HETATM    2  C8  UNL     1      15.952  35.642 110.155  1.00  0.00     0.190 C 
HETATM    3  C9  UNL     1      16.854  35.749 108.947  1.00  0.00     0.236 C 
HETATM    4  C10 UNL     1      16.065  36.451 107.883  1.00  0.00     0.134 A 
HETATM    5  C11 UNL     1      14.596  36.366 108.276  1.00  0.00     0.155 A 
HETATM    6  N6  UNL     1      14.506  35.490 107.152  1.00  0.00    -0.154 NA
HETATM    7  N7  UNL     1      15.812  35.654 106.766  1.00  0.00    -0.209 NA
ENDROOT
BRANCH   1   8
HETATM    8  O3  UNL     1      13.862  36.620 110.562  1.00  0.00    -0.301 OA
BRANCH   8   9
HETATM    9  C3  UNL     1      14.478  37.471 111.432  1.00  0.00     0.299 C 
HETATM   10  O2  UNL     1      15.190  38.401 110.993  1.00  0.00    -0.262 OA
BRANCH   9  11
HETATM   11  C2  UNL     1      14.347  37.355 112.917  1.00  0.00     0.370 C 
BRANCH  11  12
HETATM   12  C1  UNL     1      15.749  37.225 113.436  1.00  0.00     0.271 C 
HETATM   13  N1  UNL     1      16.412  35.979 113.543  1.00  0.00    -0.060 NA
HETATM   14  O1  UNL     1      16.419  38.244 113.811  1.00  0.00    -0.274 OA
ENDBRANCH  11  12
BRANCH  11  15
HETATM   15  N2  UNL     1      13.806  38.585 113.455  1.00  0.00    -0.058 N 
ATOM     16  H23 UNL     1      14.483  39.112 114.006  1.00  0.00     0.275 HD
ATOM     17  H22 UNL     1      13.637  39.294 112.741  1.00  0.00     0.275 HD
ATOM     18  H21 UNL     1      12.967  38.339 113.981  1.00  0.00     0.275 HD
ENDBRANCH  11  15
ENDBRANCH   9  11
ENDBRANCH   8   9
ENDBRANCH   1   8
BRANCH   1  19
HETATM   19  C5  UNL     1      13.924  34.405 109.681  1.00  0.00     0.197 C 
BRANCH  19  20
HETATM   20  O4  UNL     1      13.798  33.969 110.998  1.00  0.00    -0.390 OA
ATOM     21  H4  UNL     1      13.444  33.087 111.014  1.00  0.00     0.210 HD
ENDBRANCH  19  20
BRANCH  19  22
HETATM   22  C6  UNL     1      12.620  34.188 108.991  1.00  0.00     0.303 C 
BRANCH  22  23
HETATM   23  N3  UNL     1      12.945  33.185 107.928  1.00  0.00    -0.064 N 
ATOM     24  H33 UNL     1      13.565  32.434 108.232  1.00  0.00     0.275 HD
ATOM     25  H32 UNL     1      12.167  32.581 107.666  1.00  0.00     0.275 HD
ATOM     26  H31 UNL     1      13.314  33.753 107.166  1.00  0.00     0.275 HD
ENDBRANCH  22  23
BRANCH  22  27
HETATM   27  C7  UNL     1      11.577  33.530 109.799  1.00  0.00     0.264 C 
HETATM   28  N4  UNL     1      10.844  34.242 110.784  1.00  0.00    -0.060 NA
HETATM   29  O5  UNL     1      11.279  32.323 109.666  1.00  0.00    -0.274 OA
ENDBRANCH  22  27
ENDBRANCH  19  22
ENDBRANCH   1  19
BRANCH   2  30
HETATM   30  O6  UNL     1      16.185  34.479 110.868  1.00  0.00    -0.390 OA
ATOM     31  H6  UNL     1      16.975  34.514 111.394  1.00  0.00     0.210 HD
ENDBRANCH   2  30
BRANCH   3  32
HETATM   32  N5  UNL     1      17.226  34.395 108.581  1.00  0.00    -0.071 N 
ATOM     33  H53 UNL     1      18.233  34.267 108.484  1.00  0.00     0.274 HD
ATOM     34  H52 UNL     1      17.083  33.722 109.334  1.00  0.00     0.274 HD
ATOM     35  H51 UNL     1      16.707  34.166 107.733  1.00  0.00     0.274 HD
ENDBRANCH   3  32
BRANCH   7  36
HETATM   36  C12 UNL     1      16.142  35.972 105.436  1.00  0.00     0.201 C 
BRANCH  36  37
HETATM   37  C13 UNL     1      17.572  36.130 105.164  1.00  0.00     0.242 C 
HETATM   38  O7  UNL     1      18.411  35.316 105.715  1.00  0.00    -0.271 OA
HETATM   39  N8  UNL     1      18.167  37.107 104.341  1.00  0.00    -0.338 N 
HETATM   40  C14 UNL     1      19.593  37.242 104.000  1.00  0.00     0.127 C 
HETATM   41  C17 UNL     1      17.551  38.227 103.680  1.00  0.00     0.176 C 
HETATM   42  C15 UNL     1      19.643  37.940 102.669  1.00  0.00     0.022 C 
HETATM   43  C16 UNL     1      18.216  38.286 102.295  1.00  0.00     0.036 C 
BRANCH  41  44
HETATM   44  C18 UNL     1      17.859  39.491 104.420  1.00  0.00     0.254 C 
HETATM   45  N9  UNL     1      18.092  40.695 103.703  1.00  0.00    -0.060 NA
HETATM   46  O8  UNL     1      17.918  39.513 105.668  1.00  0.00    -0.275 OA
ENDBRANCH  41  44
ENDBRANCH  36  37
BRANCH  36  47
HETATM   47  C19 UNL     1      15.423  35.016 104.508  1.00  0.00     0.172 C 
HETATM   48  N10 UNL     1      15.536  35.343 103.118  1.00  0.00    -0.377 N 
HETATM   49  C20 UNL     1      16.284  34.496 102.318  1.00  0.00     0.022 C 
ATOM     50  H10 UNL     1      15.082  36.170 102.731  1.00  0.00     0.160 HD
HETATM   51  C21 UNL     1      16.266  34.558 100.970  1.00  0.00     0.082 C 
HETATM   52  C22 UNL     1      17.117  33.498 103.023  1.00  0.00     0.133 C 
HETATM   53  S1  UNL     1      15.266  35.750 100.087  1.00  0.00    -0.063 SA
HETATM   54  S2  UNL     1      16.093  33.333 104.549  1.00  0.00    -0.136 SA
ENDBRANCH  36  47
ENDBRANCH   7  36
TORSDOF 16
ENDMDL
