MODEL 1
REMARK VINA RESULT: -8.582237984      0.000      0.000
REMARK  1 active torsions:
REMARK  status: ('A' for Active; 'I' for Inactive)
REMARK    1  A    between atoms: C3_3  and  O1_4 
ROOT
HETATM    1  C1  UNL     1      20.626  74.600  10.814  1.00  0.00     0.100 C 
HETATM    2  C2  UNL     1      20.520  75.729  10.343  1.00  0.00    -0.140 C 
HETATM    3  C3  UNL     1      20.418  77.066   9.763  1.00  0.00     0.197 C 
HETATM    4  C4  UNL     1      20.184  76.905   8.292  1.00  0.00     0.061 C 
HETATM    5  C5  UNL     1      19.323  77.928   7.666  1.00  0.00     0.004 C 
HETATM    6  C6  UNL     1      18.386  77.265   6.648  1.00  0.00     0.000 C 
HETATM    7  C7  UNL     1      17.041  77.957   6.644  1.00  0.00     0.000 C 
HETATM    8  C8  UNL     1      15.932  76.927   6.553  1.00  0.00     0.000 C 
HETATM    9  C9  UNL     1      14.905  77.160   7.661  1.00  0.00     0.000 C 
HETATM   10  C10 UNL     1      14.441  75.877   8.285  1.00  0.00     0.000 C 
HETATM   11  C11 UNL     1      15.364  75.503   9.444  1.00  0.00     0.000 C 
HETATM   12  C12 UNL     1      15.003  76.331  10.635  1.00  0.00     0.000 C 
HETATM   13  C13 UNL     1      15.533  75.815  11.933  1.00  0.00     0.002 C 
HETATM   14  C14 UNL     1      16.979  75.423  11.887  1.00  0.00     0.027 C 
HETATM   15  C15 UNL     1      17.915  76.600  12.074  1.00  0.00     0.178 C 
HETATM   16  O2  UNL     1      18.211  77.280  10.904  1.00  0.00    -0.318 OA
HETATM   17  C16 UNL     1      19.349  77.848  10.439  1.00  0.00     0.305 C 
HETATM   18  O3  UNL     1      19.641  79.103  10.519  1.00  0.00    -0.261 OA
ENDROOT
BRANCH   3  19
HETATM   19  O1  UNL     1      21.691  77.651   9.966  1.00  0.00    -0.369 OA
ATOM     20  H1  UNL     1      22.303  77.054   9.553  1.00  0.00     0.212 HD
ENDBRANCH   3  19
TORSDOF 1
ENDMDL
MODEL 2
REMARK VINA RESULT: -7.777739248      1.525      4.152
REMARK  1 active torsions:
REMARK  status: ('A' for Active; 'I' for Inactive)
REMARK    1  A    between atoms: C3_3  and  O1_4 
ROOT
HETATM    1  C1  UNL     1      20.535  78.713  11.563  1.00  0.00     0.100 C 
HETATM    2  C2  UNL     1      20.085  77.572  11.623  1.00  0.00    -0.140 C 
HETATM    3  C3  UNL     1      19.545  76.218  11.724  1.00  0.00     0.197 C 
HETATM    4  C4  UNL     1      18.129  76.331  12.201  1.00  0.00     0.061 C 
HETATM    5  C5  UNL     1      17.193  75.322  11.669  1.00  0.00     0.004 C 
HETATM    6  C6  UNL     1      15.847  75.983  11.343  1.00  0.00     0.000 C 
HETATM    7  C7  UNL     1      15.235  75.349  10.114  1.00  0.00     0.000 C 
HETATM    8  C8  UNL     1      14.627  76.420   9.229  1.00  0.00     0.000 C 
HETATM    9  C9  UNL     1      15.140  76.274   7.798  1.00  0.00     0.000 C 
HETATM   10  C10 UNL     1      15.460  77.599   7.171  1.00  0.00     0.000 C 
HETATM   11  C11 UNL     1      16.908  77.979   7.478  1.00  0.00     0.000 C 
HETATM   12  C12 UNL     1      17.811  77.215   6.564  1.00  0.00     0.000 C 
HETATM   13  C13 UNL     1      19.199  77.759   6.466  1.00  0.00     0.002 C 
HETATM   14  C14 UNL     1      19.819  78.087   7.791  1.00  0.00     0.027 C 
HETATM   15  C15 UNL     1      20.434  76.880   8.469  1.00  0.00     0.178 C 
HETATM   16  O2  UNL     1      19.543  76.143   9.231  1.00  0.00    -0.318 OA
HETATM   17  C16 UNL     1      19.663  75.509  10.422  1.00  0.00     0.305 C 
HETATM   18  O3  UNL     1      19.889  74.247  10.575  1.00  0.00    -0.261 OA
ENDROOT
BRANCH   3  19
HETATM   19  O1  UNL     1      20.321  75.588  12.726  1.00  0.00    -0.369 OA
ATOM     20  H1  UNL     1      20.202  76.125  13.501  1.00  0.00     0.212 HD
ENDBRANCH   3  19
TORSDOF 1
ENDMDL
MODEL 3
REMARK VINA RESULT: -7.368251074      1.321      4.122
REMARK  1 active torsions:
REMARK  status: ('A' for Active; 'I' for Inactive)
REMARK    1  A    between atoms: C3_3  and  O1_4 
ROOT
HETATM    1  C1  UNL     1      19.552  80.368   8.761  1.00  0.00     0.100 C 
HETATM    2  C2  UNL     1      19.768  79.278   9.283  1.00  0.00    -0.140 C 
HETATM    3  C3  UNL     1      20.034  77.996   9.931  1.00  0.00     0.197 C 
HETATM    4  C4  UNL     1      19.158  77.912  11.143  1.00  0.00     0.061 C 
HETATM    5  C5  UNL     1      18.664  76.563  11.482  1.00  0.00     0.004 C 
HETATM    6  C6  UNL     1      17.200  76.644  11.935  1.00  0.00     0.000 C 
HETATM    7  C7  UNL     1      16.439  75.422  11.472  1.00  0.00     0.000 C 
HETATM    8  C8  UNL     1      15.067  75.829  10.971  1.00  0.00     0.000 C 
HETATM    9  C9  UNL     1      14.823  75.250   9.578  1.00  0.00     0.000 C 
HETATM   10  C10 UNL     1      14.151  76.232   8.663  1.00  0.00     0.000 C 
HETATM   11  C11 UNL     1      15.206  77.077   7.950  1.00  0.00     0.000 C 
HETATM   12  C12 UNL     1      15.787  76.277   6.828  1.00  0.00     0.000 C 
HETATM   13  C13 UNL     1      16.525  77.082   5.809  1.00  0.00     0.002 C 
HETATM   14  C14 UNL     1      17.478  78.079   6.396  1.00  0.00     0.027 C 
HETATM   15  C15 UNL     1      18.818  77.472   6.757  1.00  0.00     0.178 C 
HETATM   16  O2  UNL     1      18.860  76.905   8.021  1.00  0.00    -0.318 OA
HETATM   17  C16 UNL     1      19.817  76.875   8.979  1.00  0.00     0.305 C 
HETATM   18  O3  UNL     1      20.637  75.898   9.183  1.00  0.00    -0.261 OA
ENDROOT
BRANCH   3  19
HETATM   19  O1  UNL     1      21.386  78.068  10.343  1.00  0.00    -0.369 OA
ATOM     20  H1  UNL     1      21.839  77.423   9.812  1.00  0.00     0.212 HD
ENDBRANCH   3  19
TORSDOF 1
ENDMDL
MODEL 4
REMARK VINA RESULT: -6.837882022      2.159      4.900
REMARK  1 active torsions:
REMARK  status: ('A' for Active; 'I' for Inactive)
REMARK    1  A    between atoms: C3_3  and  O1_4 
ROOT
HETATM    1  C1  UNL     1      14.190  77.927   7.886  1.00  0.00     0.100 C 
HETATM    2  C2  UNL     1      15.124  77.357   7.330  1.00  0.00    -0.140 C 
HETATM    3  C3  UNL     1      16.236  76.700   6.646  1.00  0.00     0.197 C 
HETATM    4  C4  UNL     1      17.342  77.702   6.515  1.00  0.00     0.061 C 
HETATM    5  C5  UNL     1      18.711  77.158   6.604  1.00  0.00     0.004 C 
HETATM    6  C6  UNL     1      19.596  78.109   7.421  1.00  0.00     0.000 C 
HETATM    7  C7  UNL     1      20.594  77.323   8.241  1.00  0.00     0.000 C 
HETATM    8  C8  UNL     1      20.715  77.929   9.626  1.00  0.00     0.000 C 
HETATM    9  C9  UNL     1      20.530  76.850  10.691  1.00  0.00     0.000 C 
HETATM   10  C10 UNL     1      19.692  77.324  11.842  1.00  0.00     0.000 C 
HETATM   11  C11 UNL     1      18.215  77.059  11.549  1.00  0.00     0.000 C 
HETATM   12  C12 UNL     1      17.925  75.614  11.802  1.00  0.00     0.000 C 
HETATM   13  C13 UNL     1      16.475  75.287  11.946  1.00  0.00     0.002 C 
HETATM   14  C14 UNL     1      15.606  75.901  10.888  1.00  0.00     0.027 C 
HETATM   15  C15 UNL     1      15.572  75.089   9.610  1.00  0.00     0.178 C 
HETATM   16  O2  UNL     1      16.600  75.377   8.728  1.00  0.00    -0.318 OA
HETATM   17  C16 UNL     1      16.648  75.473   7.378  1.00  0.00     0.305 C 
HETATM   18  O3  UNL     1      17.046  74.541   6.578  1.00  0.00    -0.261 OA
ENDROOT
BRANCH   3  19
HETATM   19  O1  UNL     1      15.740  76.389   5.357  1.00  0.00    -0.369 OA
ATOM     20  H1  UNL     1      15.318  75.544   5.454  1.00  0.00     0.212 HD
ENDBRANCH   3  19
TORSDOF 1
ENDMDL
MODEL 5
REMARK VINA RESULT: -6.499541421      5.138      7.670
REMARK  1 active torsions:
REMARK  status: ('A' for Active; 'I' for Inactive)
REMARK    1  A    between atoms: C3_3  and  O1_4 
ROOT
HETATM    1  C1  UNL     1      12.292  76.729   1.562  1.00  0.00     0.100 C 
HETATM    2  C2  UNL     1      13.449  76.831   1.961  1.00  0.00    -0.140 C 
HETATM    3  C3  UNL     1      14.825  76.983   2.427  1.00  0.00     0.197 C 
HETATM    4  C4  UNL     1      14.833  78.057   3.471  1.00  0.00     0.061 C 
HETATM    5  C5  UNL     1      15.803  77.874   4.568  1.00  0.00     0.004 C 
HETATM    6  C6  UNL     1      15.162  78.282   5.901  1.00  0.00     0.000 C 
HETATM    7  C7  UNL     1      15.656  77.388   7.016  1.00  0.00     0.000 C 
HETATM    8  C8  UNL     1      14.505  77.026   7.935  1.00  0.00     0.000 C 
HETATM    9  C9  UNL     1      14.444  75.511   8.128  1.00  0.00     0.000 C 
HETATM   10  C10 UNL     1      13.036  74.991   8.097  1.00  0.00     0.000 C 
HETATM   11  C11 UNL     1      12.640  74.660   6.659  1.00  0.00     0.000 C 
HETATM   12  C12 UNL     1      13.242  73.344   6.283  1.00  0.00     0.000 C 
HETATM   13  C13 UNL     1      12.633  72.704   5.078  1.00  0.00     0.002 C 
HETATM   14  C14 UNL     1      12.454  73.639   3.919  1.00  0.00     0.027 C 
HETATM   15  C15 UNL     1      13.712  73.798   3.090  1.00  0.00     0.178 C 
HETATM   16  O2  UNL     1      14.577  74.774   3.557  1.00  0.00    -0.318 OA
HETATM   17  C16 UNL     1      15.354  75.685   2.925  1.00  0.00     0.305 C 
HETATM   18  O3  UNL     1      16.615  75.550   2.682  1.00  0.00    -0.261 OA
ENDROOT
BRANCH   3  19
HETATM   19  O1  UNL     1      15.547  77.434   1.295  1.00  0.00    -0.369 OA
ATOM     20  H1  UNL     1      16.238  77.982   1.648  1.00  0.00     0.212 HD
ENDBRANCH   3  19
TORSDOF 1
ENDMDL
