MODEL 1
REMARK VINA RESULT: -8.457234144      0.000      0.000
REMARK  1 active torsions:
REMARK  status: ('A' for Active; 'I' for Inactive)
REMARK    1  A    between atoms: C5_6  and  O2_7 
ROOT
HETATM    1  C1  UNL     1      16.090  77.470   4.852  1.00  0.00     0.046 C 
HETATM    2  C2  UNL     1      16.100  76.631   6.153  1.00  0.00     0.060 C 
HETATM    3  C3  UNL     1      16.883  75.415   5.949  1.00  0.00     0.072 C 
HETATM    4  C4  UNL     1      15.559  74.762   6.186  1.00  0.00     0.154 C 
HETATM    5  O1  UNL     1      14.902  75.966   6.217  1.00  0.00    -0.372 OA
HETATM    6  C5  UNL     1      15.410  74.039   7.461  1.00  0.00     0.147 C 
HETATM    7  C6  UNL     1      16.113  74.621   8.635  1.00  0.00     0.039 C 
HETATM    8  C7  UNL     1      15.635  75.965   9.060  1.00  0.00    -0.007 C 
HETATM    9  C8  UNL     1      15.414  76.015  10.579  1.00  0.00     0.005 C 
HETATM   10  C9  UNL     1      16.515  76.791  11.231  1.00  0.00     0.005 C 
HETATM   11  C10 UNL     1      17.840  76.432  10.585  1.00  0.00    -0.010 C 
HETATM   12  C11 UNL     1      18.903  76.903  11.525  1.00  0.00     0.005 C 
HETATM   13  C12 UNL     1      20.186  77.244  10.813  1.00  0.00     0.000 C 
HETATM   14  C13 UNL     1      19.877  78.407   9.911  1.00  0.00     0.000 C 
HETATM   15  C14 UNL     1      18.718  78.195   9.012  1.00  0.00     0.005 C 
HETATM   16  C15 UNL     1      17.961  76.919   9.173  1.00  0.00    -0.006 C 
HETATM   17  C16 UNL     1      16.537  77.104   8.636  1.00  0.00    -0.003 C 
HETATM   18  C17 UNL     1      16.427  77.543   7.257  1.00  0.00     0.043 C 
ENDROOT
BRANCH   6  19
HETATM   19  O2  UNL     1      15.809  72.691   7.354  1.00  0.00    -0.393 OA
ATOM     20  H2  UNL     1      15.120  72.093   7.621  1.00  0.00     0.210 HD
ENDBRANCH   6  19
TORSDOF 1
ENDMDL
MODEL 2
REMARK VINA RESULT: -8.311135796      1.531      1.693
REMARK  1 active torsions:
REMARK  status: ('A' for Active; 'I' for Inactive)
REMARK    1  A    between atoms: C5_6  and  O2_7 
ROOT
HETATM    1  C1  UNL     1      16.271  77.746   5.121  1.00  0.00     0.046 C 
HETATM    2  C2  UNL     1      15.864  77.072   6.453  1.00  0.00     0.060 C 
HETATM    3  C3  UNL     1      15.567  75.662   6.220  1.00  0.00     0.072 C 
HETATM    4  C4  UNL     1      14.199  76.085   6.649  1.00  0.00     0.154 C 
HETATM    5  O1  UNL     1      14.556  77.408   6.696  1.00  0.00    -0.372 OA
HETATM    6  C5  UNL     1      13.754  75.605   7.970  1.00  0.00     0.147 C 
HETATM    7  C6  UNL     1      14.802  75.492   9.017  1.00  0.00     0.039 C 
HETATM    8  C7  UNL     1      15.434  76.776   9.426  1.00  0.00    -0.007 C 
HETATM    9  C8  UNL     1      15.498  76.896  10.956  1.00  0.00     0.005 C 
HETATM   10  C9  UNL     1      16.900  76.675  11.429  1.00  0.00     0.005 C 
HETATM   11  C10 UNL     1      17.524  75.533  10.646  1.00  0.00    -0.010 C 
HETATM   12  C11 UNL     1      18.727  75.103  11.425  1.00  0.00     0.005 C 
HETATM   13  C12 UNL     1      19.792  74.503  10.546  1.00  0.00     0.000 C 
HETATM   14  C13 UNL     1      20.256  75.600   9.628  1.00  0.00     0.000 C 
HETATM   15  C14 UNL     1      19.168  76.282   8.889  1.00  0.00     0.005 C 
HETATM   16  C15 UNL     1      17.771  75.868   9.207  1.00  0.00    -0.006 C 
HETATM   17  C16 UNL     1      16.809  77.003   8.837  1.00  0.00    -0.003 C 
HETATM   18  C17 UNL     1      16.860  77.460   7.460  1.00  0.00     0.043 C 
ENDROOT
BRANCH   6  19
HETATM   19  O2  UNL     1      13.102  74.357   7.886  1.00  0.00    -0.393 OA
ATOM     20  H2  UNL     1      12.176  74.424   8.086  1.00  0.00     0.210 HD
ENDBRANCH   6  19
TORSDOF 1
ENDMDL
MODEL 3
REMARK VINA RESULT: -7.842266034      2.302      5.624
REMARK  1 active torsions:
REMARK  status: ('A' for Active; 'I' for Inactive)
REMARK    1  A    between atoms: C5_6  and  O2_7 
ROOT
HETATM    1  C1  UNL     1      15.445  76.143  11.332  1.00  0.00     0.046 C 
HETATM    2  C2  UNL     1      15.956  76.242   9.875  1.00  0.00     0.060 C 
HETATM    3  C3  UNL     1      16.615  74.995   9.497  1.00  0.00     0.072 C 
HETATM    4  C4  UNL     1      17.809  75.889   9.398  1.00  0.00     0.154 C 
HETATM    5  O1  UNL     1      17.122  76.964   9.900  1.00  0.00    -0.372 OA
HETATM    6  C5  UNL     1      18.307  76.160   8.038  1.00  0.00     0.147 C 
HETATM    7  C6  UNL     1      17.280  76.259   6.968  1.00  0.00     0.039 C 
HETATM    8  C7  UNL     1      16.324  77.391   7.107  1.00  0.00    -0.007 C 
HETATM    9  C8  UNL     1      16.167  78.146   5.779  1.00  0.00     0.005 C 
HETATM   10  C9  UNL     1      14.851  77.813   5.152  1.00  0.00     0.005 C 
HETATM   11  C10 UNL     1      14.573  76.329   5.315  1.00  0.00    -0.010 C 
HETATM   12  C11 UNL     1      13.490  75.998   4.338  1.00  0.00     0.005 C 
HETATM   13  C12 UNL     1      12.652  74.831   4.788  1.00  0.00     0.000 C 
HETATM   14  C13 UNL     1      11.960  75.264   6.051  1.00  0.00     0.000 C 
HETATM   15  C14 UNL     1      12.867  75.801   7.093  1.00  0.00     0.005 C 
HETATM   16  C15 UNL     1      14.309  75.929   6.735  1.00  0.00    -0.006 C 
HETATM   17  C16 UNL     1      14.962  76.988   7.630  1.00  0.00    -0.003 C 
HETATM   18  C17 UNL     1      14.852  76.770   9.061  1.00  0.00     0.043 C 
ENDROOT
BRANCH   6  19
HETATM   19  O2  UNL     1      19.260  75.206   7.624  1.00  0.00    -0.393 OA
ATOM     20  H2  UNL     1      18.974  74.727   6.855  1.00  0.00     0.210 HD
ENDBRANCH   6  19
TORSDOF 1
ENDMDL
MODEL 4
REMARK VINA RESULT: -7.710622045      1.401      1.524
REMARK  1 active torsions:
REMARK  status: ('A' for Active; 'I' for Inactive)
REMARK    1  A    between atoms: C5_6  and  O2_7 
ROOT
HETATM    1  C1  UNL     1      15.193  78.152   5.774  1.00  0.00     0.046 C 
HETATM    2  C2  UNL     1      16.022  77.026   6.436  1.00  0.00     0.060 C 
HETATM    3  C3  UNL     1      17.069  76.582   5.521  1.00  0.00     0.072 C 
HETATM    4  C4  UNL     1      16.300  75.301   5.579  1.00  0.00     0.154 C 
HETATM    5  O1  UNL     1      15.297  75.867   6.323  1.00  0.00    -0.372 OA
HETATM    6  C5  UNL     1      16.942  74.190   6.304  1.00  0.00     0.147 C 
HETATM    7  C6  UNL     1      17.758  74.561   7.490  1.00  0.00     0.039 C 
HETATM    8  C7  UNL     1      17.002  75.179   8.613  1.00  0.00    -0.007 C 
HETATM    9  C8  UNL     1      17.378  74.530   9.954  1.00  0.00     0.005 C 
HETATM   10  C9  UNL     1      18.253  75.453  10.742  1.00  0.00     0.005 C 
HETATM   11  C10 UNL     1      19.257  76.115   9.815  1.00  0.00    -0.010 C 
HETATM   12  C11 UNL     1      20.328  76.677  10.694  1.00  0.00     0.005 C 
HETATM   13  C12 UNL     1      21.001  77.876  10.079  1.00  0.00     0.000 C 
HETATM   14  C13 UNL     1      19.948  78.944   9.965  1.00  0.00     0.000 C 
HETATM   15  C14 UNL     1      18.712  78.514   9.269  1.00  0.00     0.005 C 
HETATM   16  C15 UNL     1      18.630  77.082   8.857  1.00  0.00    -0.006 C 
HETATM   17  C16 UNL     1      17.157  76.681   8.710  1.00  0.00    -0.003 C 
HETATM   18  C17 UNL     1      16.368  77.479   7.790  1.00  0.00     0.043 C 
ENDROOT
BRANCH   6  19
HETATM   19  O2  UNL     1      17.756  73.408   5.458  1.00  0.00    -0.393 OA
ATOM     20  H2  UNL     1      17.416  72.526   5.353  1.00  0.00     0.210 HD
ENDBRANCH   6  19
TORSDOF 1
ENDMDL
MODEL 5
REMARK VINA RESULT: -7.708753490      2.863      5.564
REMARK  1 active torsions:
REMARK  status: ('A' for Active; 'I' for Inactive)
REMARK    1  A    between atoms: C5_6  and  O2_7 
ROOT
HETATM    1  C1  UNL     1      21.299  74.231  10.726  1.00  0.00     0.046 C 
HETATM    2  C2  UNL     1      20.205  75.325  10.714  1.00  0.00     0.060 C 
HETATM    3  C3  UNL     1      20.519  76.325   9.698  1.00  0.00     0.072 C 
HETATM    4  C4  UNL     1      20.627  77.216  10.893  1.00  0.00     0.154 C 
HETATM    5  O1  UNL     1      20.463  76.169  11.764  1.00  0.00    -0.372 OA
HETATM    6  C5  UNL     1      19.559  78.218  11.055  1.00  0.00     0.147 C 
HETATM    7  C6  UNL     1      18.198  77.807  10.620  1.00  0.00     0.039 C 
HETATM    8  C7  UNL     1      17.597  76.685  11.390  1.00  0.00    -0.007 C 
HETATM    9  C8  UNL     1      16.151  77.008  11.798  1.00  0.00     0.005 C 
HETATM   10  C9  UNL     1      15.194  76.232  10.950  1.00  0.00     0.005 C 
HETATM   11  C10 UNL     1      15.682  76.224   9.512  1.00  0.00    -0.010 C 
HETATM   12  C11 UNL     1      14.512  75.810   8.678  1.00  0.00     0.005 C 
HETATM   13  C12 UNL     1      14.932  75.121   7.407  1.00  0.00     0.000 C 
HETATM   14  C13 UNL     1      15.624  73.850   7.819  1.00  0.00     0.000 C 
HETATM   15  C14 UNL     1      16.718  74.039   8.801  1.00  0.00     0.005 C 
HETATM   16  C15 UNL     1      16.933  75.422   9.317  1.00  0.00    -0.006 C 
HETATM   17  C16 UNL     1      17.640  75.352  10.676  1.00  0.00    -0.003 C 
HETATM   18  C17 UNL     1      18.905  74.641  10.700  1.00  0.00     0.043 C 
ENDROOT
BRANCH   6  19
HETATM   19  O2  UNL     1      19.866  79.428  10.399  1.00  0.00    -0.393 OA
ATOM     20  H2  UNL     1      19.448  80.174  10.813  1.00  0.00     0.210 HD
ENDBRANCH   6  19
TORSDOF 1
ENDMDL
