MODEL 1
REMARK VINA RESULT: -8.890633289      0.000      0.000
REMARK  0 active torsions:
REMARK  status: ('A' for Active; 'I' for Inactive)
ROOT
HETATM    1  N1  UNL     1      14.129  75.498   8.813  1.00  0.00    -0.405 N 
ATOM      2  H11 UNL     1      13.920  75.173   7.869  1.00  0.00     0.155 HD
ATOM      3  H12 UNL     1      13.230  75.472   9.295  1.00  0.00     0.155 HD
HETATM    4  C1  UNL     1      15.251  75.847   9.254  1.00  0.00    -0.011 C 
HETATM    5  C2  UNL     1      15.556  76.322  10.632  1.00  0.00     0.059 C 
HETATM    6  C3  UNL     1      16.809  75.491  10.928  1.00  0.00     0.026 C 
HETATM    7  C4  UNL     1      17.679  76.105  11.966  1.00  0.00     0.278 C 
HETATM    8  N2  UNL     1      18.509  77.088  11.360  1.00  0.00     0.093 N 
HETATM    9  C5  UNL     1      19.837  77.179  11.874  1.00  0.00     0.273 C 
HETATM   10  C6  UNL     1      20.545  78.300  11.112  1.00  0.00     0.030 C 
HETATM   11  C7  UNL     1      20.693  77.858   9.681  1.00  0.00     0.004 C 
HETATM   12  C8  UNL     1      19.913  76.593   9.461  1.00  0.00     0.036 C 
HETATM   13  C9  UNL     1      18.472  76.875   9.911  1.00  0.00     0.228 C 
HETATM   14  C10 UNL     1      17.586  75.740   9.632  1.00  0.00     0.039 C 
HETATM   15  C11 UNL     1      16.584  75.887   8.539  1.00  0.00     0.004 C 
HETATM   16  C12 UNL     1      16.711  74.717   7.636  1.00  0.00     0.016 C 
HETATM   17  C13 UNL     1      15.988  74.770   6.353  1.00  0.00     0.001 C 
HETATM   18  C14 UNL     1      16.795  75.595   5.370  1.00  0.00     0.000 C 
HETATM   19  C15 UNL     1      16.437  77.042   5.404  1.00  0.00     0.000 C 
HETATM   20  C16 UNL     1      15.783  77.444   6.727  1.00  0.00     0.001 C 
HETATM   21  C17 UNL     1      16.684  77.222   7.896  1.00  0.00     0.016 C 
ENDROOT
TORSDOF 0
ENDMDL
MODEL 2
REMARK VINA RESULT: -8.629388465      1.462      2.106
REMARK  0 active torsions:
REMARK  status: ('A' for Active; 'I' for Inactive)
ROOT
HETATM    1  N1  UNL     1      16.138  73.889   8.497  1.00  0.00    -0.405 N 
ATOM      2  H11 UNL     1      15.485  73.927   7.715  1.00  0.00     0.155 HD
ATOM      3  H12 UNL     1      15.996  72.964   8.902  1.00  0.00     0.155 HD
HETATM    4  C1  UNL     1      16.929  74.796   8.858  1.00  0.00    -0.011 C 
HETATM    5  C2  UNL     1      17.882  74.740  10.000  1.00  0.00     0.059 C 
HETATM    6  C3  UNL     1      19.142  75.287   9.320  1.00  0.00     0.026 C 
HETATM    7  C4  UNL     1      20.107  75.882  10.283  1.00  0.00     0.278 C 
HETATM    8  N2  UNL     1      19.717  77.218  10.573  1.00  0.00     0.093 N 
HETATM    9  C5  UNL     1      20.783  78.151  10.741  1.00  0.00     0.273 C 
HETATM   10  C6  UNL     1      20.154  79.507  11.066  1.00  0.00     0.030 C 
HETATM   11  C7  UNL     1      19.400  79.967   9.847  1.00  0.00     0.004 C 
HETATM   12  C8  UNL     1      19.347  78.855   8.839  1.00  0.00     0.036 C 
HETATM   13  C9  UNL     1      18.750  77.635   9.554  1.00  0.00     0.228 C 
HETATM   14  C10 UNL     1      18.540  76.515   8.630  1.00  0.00     0.039 C 
HETATM   15  C11 UNL     1      17.139  76.168   8.257  1.00  0.00     0.004 C 
HETATM   16  C12 UNL     1      17.060  76.093   6.778  1.00  0.00     0.016 C 
HETATM   17  C13 UNL     1      15.719  76.003   6.175  1.00  0.00     0.001 C 
HETATM   18  C14 UNL     1      15.113  77.392   6.120  1.00  0.00     0.000 C 
HETATM   19  C15 UNL     1      14.325  77.725   7.342  1.00  0.00     0.000 C 
HETATM   20  C16 UNL     1      14.738  76.874   8.545  1.00  0.00     0.001 C 
HETATM   21  C17 UNL     1      16.169  77.077   8.918  1.00  0.00     0.016 C 
ENDROOT
TORSDOF 0
ENDMDL
MODEL 3
REMARK VINA RESULT: -8.373067615      1.199      4.970
REMARK  0 active torsions:
REMARK  status: ('A' for Active; 'I' for Inactive)
ROOT
HETATM    1  N1  UNL     1      17.443  76.042  12.138  1.00  0.00    -0.405 N 
ATOM      2  H11 UNL     1      18.354  76.325  12.500  1.00  0.00     0.155 HD
ATOM      3  H12 UNL     1      16.956  75.657  12.947  1.00  0.00     0.155 HD
HETATM    4  C1  UNL     1      17.039  76.155  10.954  1.00  0.00    -0.011 C 
HETATM    5  C2  UNL     1      15.710  75.743  10.426  1.00  0.00     0.059 C 
HETATM    6  C3  UNL     1      15.348  76.992   9.615  1.00  0.00     0.026 C 
HETATM    7  C4  UNL     1      14.372  76.713   8.528  1.00  0.00     0.278 C 
HETATM    8  N2  UNL     1      15.066  76.212   7.393  1.00  0.00     0.093 N 
HETATM    9  C5  UNL     1      14.567  76.638   6.126  1.00  0.00     0.273 C 
HETATM   10  C6  UNL     1      15.428  75.973   5.050  1.00  0.00     0.030 C 
HETATM   11  C7  UNL     1      16.816  76.548   5.156  1.00  0.00     0.004 C 
HETATM   12  C8  UNL     1      16.920  77.390   6.395  1.00  0.00     0.036 C 
HETATM   13  C9  UNL     1      16.490  76.503   7.572  1.00  0.00     0.228 C 
HETATM   14  C10 UNL     1      16.664  77.188   8.857  1.00  0.00     0.039 C 
HETATM   15  C11 UNL     1      17.762  76.726   9.754  1.00  0.00     0.004 C 
HETATM   16  C12 UNL     1      18.559  77.911  10.156  1.00  0.00     0.016 C 
HETATM   17  C13 UNL     1      19.838  77.664  10.845  1.00  0.00     0.001 C 
HETATM   18  C14 UNL     1      20.893  77.326   9.810  1.00  0.00     0.000 C 
HETATM   19  C15 UNL     1      20.984  75.863   9.538  1.00  0.00     0.000 C 
HETATM   20  C16 UNL     1      19.699  75.124   9.915  1.00  0.00     0.001 C 
HETATM   21  C17 UNL     1      18.519  75.607   9.140  1.00  0.00     0.016 C 
ENDROOT
TORSDOF 0
ENDMDL
MODEL 4
REMARK VINA RESULT: -8.288561876      1.318      4.897
REMARK  0 active torsions:
REMARK  status: ('A' for Active; 'I' for Inactive)
ROOT
HETATM    1  N1  UNL     1      19.407  76.187  12.533  1.00  0.00    -0.405 N 
ATOM      2  H11 UNL     1      20.307  76.648  12.400  1.00  0.00     0.155 HD
ATOM      3  H12 UNL     1      19.461  75.789  13.471  1.00  0.00     0.155 HD
HETATM    4  C1  UNL     1      18.461  76.138  11.709  1.00  0.00    -0.011 C 
HETATM    5  C2  UNL     1      17.146  75.466  11.903  1.00  0.00     0.059 C 
HETATM    6  C3  UNL     1      16.208  76.569  11.401  1.00  0.00     0.026 C 
HETATM    7  C4  UNL     1      14.896  76.046  10.937  1.00  0.00     0.278 C 
HETATM    8  N2  UNL     1      15.022  75.583   9.599  1.00  0.00     0.093 N 
HETATM    9  C5  UNL     1      13.897  75.818   8.754  1.00  0.00     0.273 C 
HETATM   10  C6  UNL     1      14.226  75.228   7.382  1.00  0.00     0.030 C 
HETATM   11  C7  UNL     1      15.352  76.036   6.794  1.00  0.00     0.004 C 
HETATM   12  C8  UNL     1      15.892  76.977   7.832  1.00  0.00     0.036 C 
HETATM   13  C9  UNL     1      16.269  76.125   9.052  1.00  0.00     0.228 C 
HETATM   14  C10 UNL     1      16.921  76.927  10.093  1.00  0.00     0.039 C 
HETATM   15  C11 UNL     1      18.381  76.729  10.318  1.00  0.00     0.004 C 
HETATM   16  C12 UNL     1      19.036  78.059  10.292  1.00  0.00     0.016 C 
HETATM   17  C13 UNL     1      20.509  78.087  10.250  1.00  0.00     0.001 C 
HETATM   18  C14 UNL     1      20.963  77.854   8.822  1.00  0.00     0.000 C 
HETATM   19  C15 UNL     1      21.179  76.410   8.516  1.00  0.00     0.000 C 
HETATM   20  C16 UNL     1      20.407  75.495   9.468  1.00  0.00     0.001 C 
HETATM   21  C17 UNL     1      18.932  75.710   9.389  1.00  0.00     0.016 C 
ENDROOT
TORSDOF 0
ENDMDL
MODEL 5
REMARK VINA RESULT: -8.251660096      1.773      3.283
REMARK  0 active torsions:
REMARK  status: ('A' for Active; 'I' for Inactive)
ROOT
HETATM    1  N1  UNL     1      16.462  76.767   5.334  1.00  0.00    -0.405 N 
ATOM      2  H11 UNL     1      15.512  76.579   5.015  1.00  0.00     0.155 HD
ATOM      3  H12 UNL     1      16.987  76.944   4.477  1.00  0.00     0.155 HD
HETATM    4  C1  UNL     1      16.867  76.773   6.522  1.00  0.00    -0.011 C 
HETATM    5  C2  UNL     1      18.254  77.048   6.988  1.00  0.00     0.059 C 
HETATM    6  C3  UNL     1      17.961  78.025   8.131  1.00  0.00     0.026 C 
HETATM    7  C4  UNL     1      19.044  78.065   9.150  1.00  0.00     0.278 C 
HETATM    8  N2  UNL     1      18.868  76.988  10.062  1.00  0.00     0.093 N 
HETATM    9  C5  UNL     1      19.189  77.272  11.423  1.00  0.00     0.273 C 
HETATM   10  C6  UNL     1      18.957  75.989  12.223  1.00  0.00     0.030 C 
HETATM   11  C7  UNL     1      17.480  75.700  12.206  1.00  0.00     0.004 C 
HETATM   12  C8  UNL     1      16.796  76.630  11.245  1.00  0.00     0.036 C 
HETATM   13  C9  UNL     1      17.507  76.474   9.893  1.00  0.00     0.228 C 
HETATM   14  C10 UNL     1      16.845  77.252   8.841  1.00  0.00     0.039 C 
HETATM   15  C11 UNL     1      16.088  76.511   7.792  1.00  0.00     0.004 C 
HETATM   16  C12 UNL     1      14.734  77.109   7.692  1.00  0.00     0.016 C 
HETATM   17  C13 UNL     1      13.731  76.382   6.893  1.00  0.00     0.001 C 
HETATM   18  C14 UNL     1      13.155  75.260   7.734  1.00  0.00     0.000 C 
HETATM   19  C15 UNL     1      13.910  73.983   7.584  1.00  0.00     0.000 C 
HETATM   20  C16 UNL     1      15.339  74.211   7.088  1.00  0.00     0.001 C 
HETATM   21  C17 UNL     1      16.140  75.046   8.030  1.00  0.00     0.016 C 
ENDROOT
TORSDOF 0
ENDMDL
