MODEL 1
REMARK VINA RESULT: -8.533145864      0.000      0.000
REMARK  0 active torsions:
REMARK  status: ('A' for Active; 'I' for Inactive)
ROOT
HETATM    1  C1  UNL     1      17.359  77.187   5.811  1.00  0.00     0.010 C 
HETATM    2  C2  UNL     1      16.950  76.231   6.938  1.00  0.00    -0.017 C 
HETATM    3  C3  UNL     1      18.164  75.972   7.758  1.00  0.00     0.010 C 
HETATM    4  C4  UNL     1      18.051  76.462   9.186  1.00  0.00     0.003 C 
HETATM    5  C5  UNL     1      16.786  75.922   9.794  1.00  0.00    -0.002 C 
HETATM    6  C6  UNL     1      16.680  76.104  11.269  1.00  0.00     0.008 C 
HETATM    7  C7  UNL     1      17.916  76.202  12.044  1.00  0.00     0.032 C 
HETATM    8  C8  UNL     1      19.168  76.575  11.309  1.00  0.00     0.036 C 
HETATM    9  C9  UNL     1      19.299  78.082  11.215  1.00  0.00     0.039 C 
HETATM   10  N1  UNL     1      20.343  76.101  12.027  1.00  0.00    -0.377 N 
ATOM     11  H1  UNL     1      20.920  76.753  12.558  1.00  0.00     0.161 HD
HETATM   12  C10 UNL     1      20.648  74.855  11.984  1.00  0.00     0.172 C 
HETATM   13  N2  UNL     1      20.482  74.198  10.937  1.00  0.00    -0.386 N 
ATOM     14  H2  UNL     1      21.145  73.467  10.680  1.00  0.00     0.160 HD
HETATM   15  C11 UNL     1      19.323  74.481  10.072  1.00  0.00     0.132 C 
HETATM   16  C12 UNL     1      19.238  75.960   9.931  1.00  0.00     0.001 C 
HETATM   17  C13 UNL     1      20.490  76.452   9.251  1.00  0.00     0.020 C 
HETATM   18  C14 UNL     1      15.564  76.345   9.035  1.00  0.00    -0.043 C 
HETATM   19  C15 UNL     1      14.778  77.450   9.748  1.00  0.00     0.015 C 
HETATM   20  C16 UNL     1      14.572  75.178   8.913  1.00  0.00     0.015 C 
HETATM   21  C17 UNL     1      15.819  76.845   7.659  1.00  0.00     0.013 C 
ENDROOT
TORSDOF 0
ENDMDL
MODEL 2
REMARK VINA RESULT: -8.247934428      1.377      2.793
REMARK  0 active torsions:
REMARK  status: ('A' for Active; 'I' for Inactive)
ROOT
HETATM    1  C1  UNL     1      15.344  73.142   7.568  1.00  0.00     0.010 C 
HETATM    2  C2  UNL     1      15.345  74.570   8.127  1.00  0.00    -0.017 C 
HETATM    3  C3  UNL     1      16.424  74.643   9.149  1.00  0.00     0.010 C 
HETATM    4  C4  UNL     1      17.533  75.610   8.796  1.00  0.00     0.003 C 
HETATM    5  C5  UNL     1      16.932  76.947   8.458  1.00  0.00    -0.002 C 
HETATM    6  C6  UNL     1      17.917  78.061   8.352  1.00  0.00     0.008 C 
HETATM    7  C7  UNL     1      19.164  77.955   9.108  1.00  0.00     0.032 C 
HETATM    8  C8  UNL     1      19.589  76.591   9.559  1.00  0.00     0.036 C 
HETATM    9  C9  UNL     1      20.381  75.896   8.470  1.00  0.00     0.039 C 
HETATM   10  N1  UNL     1      20.469  76.685  10.716  1.00  0.00    -0.377 N 
ATOM     11  H1  UNL     1      21.473  76.543  10.611  1.00  0.00     0.161 HD
HETATM   12  C10 UNL     1      19.969  76.948  11.868  1.00  0.00     0.172 C 
HETATM   13  N2  UNL     1      18.861  76.480  12.199  1.00  0.00    -0.386 N 
ATOM     14  H2  UNL     1      18.692  76.199  13.165  1.00  0.00     0.160 HD
HETATM   15  C11 UNL     1      17.797  76.334  11.191  1.00  0.00     0.132 C 
HETATM   16  C12 UNL     1      18.423  75.730   9.984  1.00  0.00     0.001 C 
HETATM   17  C13 UNL     1      18.945  74.363  10.346  1.00  0.00     0.020 C 
HETATM   18  C14 UNL     1      15.973  76.865   7.308  1.00  0.00    -0.043 C 
HETATM   19  C15 UNL     1      16.560  77.422   6.008  1.00  0.00     0.015 C 
HETATM   20  C16 UNL     1      14.732  77.730   7.577  1.00  0.00     0.015 C 
HETATM   21  C17 UNL     1      15.489  75.497   6.988  1.00  0.00     0.013 C 
ENDROOT
TORSDOF 0
ENDMDL
MODEL 3
REMARK VINA RESULT: -7.953928596      2.865      5.497
REMARK  0 active torsions:
REMARK  status: ('A' for Active; 'I' for Inactive)
ROOT
HETATM    1  C1  UNL     1      17.407  75.909  12.142  1.00  0.00     0.010 C 
HETATM    2  C2  UNL     1      17.994  75.736  10.736  1.00  0.00    -0.017 C 
HETATM    3  C3  UNL     1      16.882  75.315   9.842  1.00  0.00     0.010 C 
HETATM    4  C4  UNL     1      16.571  76.311   8.746  1.00  0.00     0.003 C 
HETATM    5  C5  UNL     1      17.839  76.648   8.011  1.00  0.00    -0.002 C 
HETATM    6  C6  UNL     1      17.639  77.408   6.745  1.00  0.00     0.008 C 
HETATM    7  C7  UNL     1      16.369  77.251   6.038  1.00  0.00     0.032 C 
HETATM    8  C8  UNL     1      15.200  76.734   6.819  1.00  0.00     0.036 C 
HETATM    9  C9  UNL     1      14.484  77.873   7.519  1.00  0.00     0.039 C 
HETATM   10  N1  UNL     1      14.224  76.115   5.933  1.00  0.00    -0.377 N 
ATOM     11  H1  UNL     1      13.360  76.603   5.697  1.00  0.00     0.161 HD
HETATM   12  C10 UNL     1      14.462  74.950   5.451  1.00  0.00     0.172 C 
HETATM   13  N2  UNL     1      15.035  74.083   6.142  1.00  0.00    -0.386 N 
ATOM     14  H2  UNL     1      14.772  73.102   6.054  1.00  0.00     0.160 HD
HETATM   15  C11 UNL     1      16.094  74.483   7.084  1.00  0.00     0.132 C 
HETATM   16  C12 UNL     1      15.592  75.674   7.821  1.00  0.00     0.001 C 
HETATM   17  C13 UNL     1      14.366  75.275   8.602  1.00  0.00     0.020 C 
HETATM   18  C14 UNL     1      18.883  77.231   8.917  1.00  0.00    -0.043 C 
HETATM   19  C15 UNL     1      19.036  78.745   8.745  1.00  0.00     0.015 C 
HETATM   20  C16 UNL     1      20.269  76.658   8.582  1.00  0.00     0.015 C 
HETATM   21  C17 UNL     1      18.657  77.002  10.368  1.00  0.00     0.013 C 
ENDROOT
TORSDOF 0
ENDMDL
MODEL 4
REMARK VINA RESULT: -7.577441241      2.821      5.122
REMARK  0 active torsions:
REMARK  status: ('A' for Active; 'I' for Inactive)
ROOT
HETATM    1  C1  UNL     1      20.413  78.385   9.066  1.00  0.00     0.010 C 
HETATM    2  C2  UNL     1      19.098  77.882   9.675  1.00  0.00    -0.017 C 
HETATM    3  C3  UNL     1      18.096  77.826   8.577  1.00  0.00     0.010 C 
HETATM    4  C4  UNL     1      17.591  76.430   8.283  1.00  0.00     0.003 C 
HETATM    5  C5  UNL     1      17.119  75.797   9.563  1.00  0.00    -0.002 C 
HETATM    6  C6  UNL     1      16.354  74.531   9.383  1.00  0.00     0.008 C 
HETATM    7  C7  UNL     1      15.640  74.328   8.124  1.00  0.00     0.032 C 
HETATM    8  C8  UNL     1      16.070  75.142   6.943  1.00  0.00     0.036 C 
HETATM    9  C9  UNL     1      17.212  74.460   6.216  1.00  0.00     0.039 C 
HETATM   10  N1  UNL     1      14.983  75.265   5.981  1.00  0.00    -0.377 N 
ATOM     11  H1  UNL     1      14.992  74.717   5.121  1.00  0.00     0.161 HD
HETATM   12  C10 UNL     1      14.014  76.070   6.226  1.00  0.00     0.172 C 
HETATM   13  N2  UNL     1      14.225  77.163   6.789  1.00  0.00    -0.386 N 
ATOM     14  H2  UNL     1      13.684  77.986   6.527  1.00  0.00     0.160 HD
HETATM   15  C11 UNL     1      15.260  77.261   7.833  1.00  0.00     0.132 C 
HETATM   16  C12 UNL     1      16.463  76.551   7.319  1.00  0.00     0.001 C 
HETATM   17  C13 UNL     1      16.948  77.260   6.081  1.00  0.00     0.020 C 
HETATM   18  C14 UNL     1      18.207  75.716  10.593  1.00  0.00    -0.043 C 
HETATM   19  C15 UNL     1      18.768  74.299  10.749  1.00  0.00     0.015 C 
HETATM   20  C16 UNL     1      17.661  76.075  11.984  1.00  0.00     0.015 C 
HETATM   21  C17 UNL     1      19.377  76.597  10.344  1.00  0.00     0.013 C 
ENDROOT
TORSDOF 0
ENDMDL
MODEL 5
REMARK VINA RESULT: -7.551729753      1.299      3.321
REMARK  0 active torsions:
REMARK  status: ('A' for Active; 'I' for Inactive)
ROOT
HETATM    1  C1  UNL     1      13.893  75.674   8.904  1.00  0.00     0.010 C 
HETATM    2  C2  UNL     1      15.126  76.249   8.197  1.00  0.00    -0.017 C 
HETATM    3  C3  UNL     1      16.042  76.759   9.253  1.00  0.00     0.010 C 
HETATM    4  C4  UNL     1      17.371  76.038   9.308  1.00  0.00     0.003 C 
HETATM    5  C5  UNL     1      17.983  76.027   7.934  1.00  0.00    -0.002 C 
HETATM    6  C6  UNL     1      19.406  75.588   7.893  1.00  0.00     0.008 C 
HETATM    7  C7  UNL     1      20.224  75.780   9.089  1.00  0.00     0.032 C 
HETATM    8  C8  UNL     1      19.512  75.962  10.394  1.00  0.00     0.036 C 
HETATM    9  C9  UNL     1      19.201  74.618  11.021  1.00  0.00     0.039 C 
HETATM   10  N1  UNL     1      20.356  76.675  11.343  1.00  0.00    -0.377 N 
ATOM     11  H1  UNL     1      20.815  76.173  12.103  1.00  0.00     0.161 HD
HETATM   12  C10 UNL     1      20.517  77.942  11.215  1.00  0.00     0.172 C 
HETATM   13  N2  UNL     1      19.572  78.666  10.841  1.00  0.00    -0.386 N 
ATOM     14  H2  UNL     1      19.465  79.605  11.223  1.00  0.00     0.160 HD
HETATM   15  C11 UNL     1      18.612  78.159   9.845  1.00  0.00     0.132 C 
HETATM   16  C12 UNL     1      18.248  76.777  10.259  1.00  0.00     0.001 C 
HETATM   17  C13 UNL     1      17.571  76.840  11.603  1.00  0.00     0.020 C 
HETATM   18  C14 UNL     1      17.103  75.352   6.925  1.00  0.00    -0.043 C 
HETATM   19  C15 UNL     1      17.599  73.952   6.551  1.00  0.00     0.015 C 
HETATM   20  C16 UNL     1      17.103  76.132   5.601  1.00  0.00     0.015 C 
HETATM   21  C17 UNL     1      15.684  75.190   7.334  1.00  0.00     0.013 C 
ENDROOT
TORSDOF 0
ENDMDL
