MODEL 1
REMARK VINA RESULT: -9.408940595      0.000      0.000
REMARK  10 active torsions:
REMARK  status: ('A' for Active; 'I' for Inactive)
REMARK    1  A    between atoms: C12_12  and  C13_13 
REMARK    2  A    between atoms: C13_13  and  N1_14 
REMARK    3  A    between atoms: N1_14  and  C14_16 
REMARK    4  A    between atoms: C16_22  and  C17_23 
REMARK       I    between atoms: C17_23  and  N4_25 
REMARK    5  A    between atoms: N4_25  and  C18_27 
REMARK    6  A    between atoms: C18_27  and  C19_28 
REMARK    7  A    between atoms: N5_31  and  C22_32 
REMARK    8  A    between atoms: C22_32  and  C23_33 
REMARK    9  A    between atoms: C23_33  and  N6_34 
REMARK   10  A    between atoms: N6_34  and  C24_36 
ROOT
HETATM    1  C14 UNL     1       5.808   0.377  14.794  1.00  0.00     0.147 A 
HETATM    2  N2  UNL     1       5.142   0.412  15.954  1.00  0.00    -0.283 N 
ATOM      3  H2  UNL     1       5.156   1.192  16.611  1.00  0.00     0.188 HD
HETATM    4  N3  UNL     1       4.455  -0.726  16.128  1.00  0.00    -0.294 N 
ATOM      5  H3  UNL     1       3.871  -0.935  16.938  1.00  0.00     0.187 HD
HETATM    6  C15 UNL     1       4.642  -1.557  15.081  1.00  0.00     0.113 A 
HETATM    7  C16 UNL     1       4.405  -2.748  14.467  1.00  0.00     0.146 A 
HETATM    8  N7  UNL     1       5.098  -2.768  13.285  1.00  0.00    -0.293 N 
ATOM      9  H7  UNL     1       5.110  -3.535  12.612  1.00  0.00     0.187 HD
HETATM   10  N8  UNL     1       5.742  -1.636  13.168  1.00  0.00    -0.294 N 
ATOM     11  H8  UNL     1       6.338  -1.384  12.381  1.00  0.00     0.187 HD
HETATM   12  C27 UNL     1       5.506  -0.848  14.234  1.00  0.00     0.124 A 
ENDROOT
BRANCH   1  13
HETATM   13  N1  UNL     1       6.580   1.294  14.311  1.00  0.00    -0.373 N 
ATOM     14  H1  UNL     1       6.981   1.997  14.933  1.00  0.00     0.161 HD
BRANCH  13  15
HETATM   15  C13 UNL     1       6.886   1.333  12.879  1.00  0.00     0.128 C 
BRANCH  15  16
HETATM   16  C12 UNL     1       6.075   2.323  12.147  1.00  0.00     0.042 C 
HETATM   17  C10 UNL     1       6.760   3.148  11.111  1.00  0.00     0.162 C 
HETATM   18  C9  UNL     1       7.828   2.329  10.425  1.00  0.00     0.042 C 
HETATM   19  C11 UNL     1       7.468   4.281  11.826  1.00  0.00     0.049 C 
HETATM   20  N9  UNL     1       5.840   3.737  10.168  1.00  0.00     0.103 N 
HETATM   21  C8  UNL     1       8.437   3.017   9.228  1.00  0.00     0.010 C 
HETATM   22  C7  UNL     1       7.359   3.549   8.364  1.00  0.00     0.027 C 
HETATM   23  C2  UNL     1       7.279   3.012   6.976  1.00  0.00    -0.042 C 
HETATM   24  C6  UNL     1       5.977   3.128   8.894  1.00  0.00     0.229 C 
HETATM   25  C1  UNL     1       7.129   1.528   6.903  1.00  0.00     0.015 C 
HETATM   26  C3  UNL     1       8.416   3.454   6.092  1.00  0.00     0.015 C 
HETATM   27  C4  UNL     1       5.940   3.614   6.520  1.00  0.00     0.011 C 
HETATM   28  C5  UNL     1       5.105   3.676   7.808  1.00  0.00     0.037 C 
HETATM   29  C30 UNL     1       4.529   3.977  10.640  1.00  0.00     0.274 C 
HETATM   30  C29 UNL     1       3.845   2.730  11.067  1.00  0.00     0.031 C 
HETATM   31  C28 UNL     1       4.779   1.718  11.622  1.00  0.00     0.010 C 
ENDBRANCH  15  16
ENDBRANCH  13  15
ENDBRANCH   1  13
BRANCH   7  32
HETATM   32  C17 UNL     1       3.569  -3.836  14.929  1.00  0.00     0.272 C 
HETATM   33  O1  UNL     1       2.950  -4.542  14.062  1.00  0.00    -0.266 OA
HETATM   34  N4  UNL     1       3.416  -4.139  16.297  1.00  0.00    -0.355 N 
ATOM     35  H4  UNL     1       3.896  -3.514  16.944  1.00  0.00     0.162 HD
BRANCH  34  36
HETATM   36  C18 UNL     1       2.680  -5.204  16.898  1.00  0.00     0.127 C 
BRANCH  36  37
HETATM   37  C19 UNL     1       3.373  -6.414  17.354  1.00  0.00     0.007 C 
HETATM   38  C20 UNL     1       4.163  -6.097  18.621  1.00  0.00     0.036 C 
HETATM   39  C21 UNL     1       4.941  -7.300  19.094  1.00  0.00     0.273 C 
HETATM   40  N5  UNL     1       5.670  -7.969  18.060  1.00  0.00     0.090 N 
HETATM   41  C25 UNL     1       4.731  -8.453  17.070  1.00  0.00     0.273 C 
HETATM   42  C26 UNL     1       4.161  -7.168  16.386  1.00  0.00     0.036 C 
BRANCH  40  43
HETATM   43  C22 UNL     1       6.443  -9.051  18.576  1.00  0.00     0.292 C 
BRANCH  43  44
HETATM   44  C23 UNL     1       7.926  -8.931  18.294  1.00  0.00     0.152 C 
BRANCH  44  45
HETATM   45  N6  UNL     1       8.384  -7.684  18.896  1.00  0.00    -0.367 N 
ATOM     46  H6  UNL     1       8.437  -7.609  19.911  1.00  0.00     0.161 HD
BRANCH  45  47
HETATM   47  C24 UNL     1       8.760  -6.567  18.092  1.00  0.00     0.348 C 
HETATM   48  O2  UNL     1       9.454  -5.671  18.625  1.00  0.00    -0.284 OA
ENDBRANCH  45  47
ENDBRANCH  44  45
ENDBRANCH  43  44
ENDBRANCH  40  43
ENDBRANCH  36  37
ENDBRANCH  34  36
ENDBRANCH   7  32
TORSDOF 10
ENDMDL
MODEL 2
REMARK VINA RESULT: -9.404658525      2.832     12.075
REMARK  10 active torsions:
REMARK  status: ('A' for Active; 'I' for Inactive)
REMARK    1  A    between atoms: C12_12  and  C13_13 
REMARK    2  A    between atoms: C13_13  and  N1_14 
REMARK    3  A    between atoms: N1_14  and  C14_16 
REMARK    4  A    between atoms: C16_22  and  C17_23 
REMARK       I    between atoms: C17_23  and  N4_25 
REMARK    5  A    between atoms: N4_25  and  C18_27 
REMARK    6  A    between atoms: C18_27  and  C19_28 
REMARK    7  A    between atoms: N5_31  and  C22_32 
REMARK    8  A    between atoms: C22_32  and  C23_33 
REMARK    9  A    between atoms: C23_33  and  N6_34 
REMARK   10  A    between atoms: N6_34  and  C24_36 
ROOT
HETATM    1  C14 UNL     1       3.354  -3.184  16.815  1.00  0.00     0.147 A 
HETATM    2  N2  UNL     1       2.417  -2.599  16.061  1.00  0.00    -0.283 N 
ATOM      3  H2  UNL     1       1.430  -2.857  16.053  1.00  0.00     0.188 HD
HETATM    4  N3  UNL     1       2.961  -1.625  15.317  1.00  0.00    -0.294 N 
ATOM      5  H3  UNL     1       2.446  -1.037  14.662  1.00  0.00     0.187 HD
HETATM    6  C15 UNL     1       4.285  -1.531  15.556  1.00  0.00     0.113 A 
HETATM    7  C16 UNL     1       5.488  -0.945  15.306  1.00  0.00     0.146 A 
HETATM    8  N7  UNL     1       6.436  -1.559  16.082  1.00  0.00    -0.293 N 
ATOM      9  H7  UNL     1       7.430  -1.329  16.106  1.00  0.00     0.187 HD
HETATM   10  N8  UNL     1       5.848  -2.491  16.786  1.00  0.00    -0.294 N 
ATOM     11  H8  UNL     1       6.320  -3.105  17.449  1.00  0.00     0.187 HD
HETATM   12  C27 UNL     1       4.530  -2.528  16.512  1.00  0.00     0.124 A 
ENDROOT
BRANCH   1  13
HETATM   13  N1  UNL     1       3.191  -4.165  17.640  1.00  0.00    -0.373 N 
ATOM     14  H1  UNL     1       3.146  -3.981  18.642  1.00  0.00     0.161 HD
BRANCH  13  15
HETATM   15  C13 UNL     1       3.069  -5.540  17.149  1.00  0.00     0.128 C 
BRANCH  15  16
HETATM   16  C12 UNL     1       4.114  -6.433  17.681  1.00  0.00     0.042 C 
HETATM   17  C10 UNL     1       3.762  -7.868  17.877  1.00  0.00     0.162 C 
HETATM   18  C9  UNL     1       2.806  -8.316  16.796  1.00  0.00     0.042 C 
HETATM   19  C11 UNL     1       3.020  -7.980  19.193  1.00  0.00     0.049 C 
HETATM   20  N9  UNL     1       4.924  -8.721  17.960  1.00  0.00     0.103 N 
HETATM   21  C8  UNL     1       2.552  -9.804  16.797  1.00  0.00     0.010 C 
HETATM   22  C7  UNL     1       3.843 -10.524  16.873  1.00  0.00     0.027 C 
HETATM   23  C2  UNL     1       4.186 -11.419  15.731  1.00  0.00    -0.042 C 
HETATM   24  C6  UNL     1       5.023  -9.538  16.804  1.00  0.00     0.229 C 
HETATM   25  C1  UNL     1       4.209 -10.733  14.404  1.00  0.00     0.015 C 
HETATM   26  C3  UNL     1       3.326 -12.652  15.653  1.00  0.00     0.015 C 
HETATM   27  C4  UNL     1       5.643 -11.764  16.074  1.00  0.00     0.011 C 
HETATM   28  C5  UNL     1       6.167 -10.504  16.780  1.00  0.00     0.037 C 
HETATM   29  C30 UNL     1       6.109  -8.118  18.439  1.00  0.00     0.274 C 
HETATM   30  C29 UNL     1       6.559  -6.995  17.577  1.00  0.00     0.031 C 
HETATM   31  C28 UNL     1       5.433  -6.269  16.936  1.00  0.00     0.010 C 
ENDBRANCH  15  16
ENDBRANCH  13  15
ENDBRANCH   1  13
BRANCH   7  32
HETATM   32  C17 UNL     1       5.773   0.146  14.399  1.00  0.00     0.272 C 
HETATM   33  O1  UNL     1       4.826   0.600  13.671  1.00  0.00    -0.266 OA
HETATM   34  N4  UNL     1       7.056   0.721  14.292  1.00  0.00    -0.355 N 
ATOM     35  H4  UNL     1       7.782   0.288  14.863  1.00  0.00     0.162 HD
BRANCH  34  36
HETATM   36  C18 UNL     1       7.475   1.827  13.494  1.00  0.00     0.127 C 
BRANCH  36  37
HETATM   37  C19 UNL     1       7.967   1.607  12.129  1.00  0.00     0.007 C 
HETATM   38  C20 UNL     1       7.435   2.707  11.216  1.00  0.00     0.036 C 
HETATM   39  C21 UNL     1       7.868   2.488   9.788  1.00  0.00     0.273 C 
HETATM   40  N5  UNL     1       7.682   1.148   9.319  1.00  0.00     0.090 N 
HETATM   41  C25 UNL     1       8.484   0.258  10.131  1.00  0.00     0.273 C 
HETATM   42  C26 UNL     1       7.815   0.280  11.543  1.00  0.00     0.036 C 
BRANCH  40  43
HETATM   43  C22 UNL     1       8.039   1.017   7.943  1.00  0.00     0.292 C 
BRANCH  43  44
HETATM   44  C23 UNL     1       6.863   1.115   6.995  1.00  0.00     0.152 C 
BRANCH  44  45
HETATM   45  N6  UNL     1       7.079   0.143   5.930  1.00  0.00    -0.367 N 
ATOM     46  H6  UNL     1       7.914  -0.443   5.950  1.00  0.00     0.161 HD
BRANCH  45  47
HETATM   47  C24 UNL     1       6.147  -0.007   4.861  1.00  0.00     0.348 C 
HETATM   48  O2  UNL     1       5.706  -1.155   4.626  1.00  0.00    -0.284 OA
ENDBRANCH  45  47
ENDBRANCH  44  45
ENDBRANCH  43  44
ENDBRANCH  40  43
ENDBRANCH  36  37
ENDBRANCH  34  36
ENDBRANCH   7  32
TORSDOF 10
ENDMDL
MODEL 3
REMARK VINA RESULT: -9.393431237      3.862     10.324
REMARK  10 active torsions:
REMARK  status: ('A' for Active; 'I' for Inactive)
REMARK    1  A    between atoms: C12_12  and  C13_13 
REMARK    2  A    between atoms: C13_13  and  N1_14 
REMARK    3  A    between atoms: N1_14  and  C14_16 
REMARK    4  A    between atoms: C16_22  and  C17_23 
REMARK       I    between atoms: C17_23  and  N4_25 
REMARK    5  A    between atoms: N4_25  and  C18_27 
REMARK    6  A    between atoms: C18_27  and  C19_28 
REMARK    7  A    between atoms: N5_31  and  C22_32 
REMARK    8  A    between atoms: C22_32  and  C23_33 
REMARK    9  A    between atoms: C23_33  and  N6_34 
REMARK   10  A    between atoms: N6_34  and  C24_36 
ROOT
HETATM    1  C14 UNL     1       3.418   0.742  13.132  1.00  0.00     0.147 A 
HETATM    2  N2  UNL     1       2.528   0.708  12.134  1.00  0.00    -0.283 N 
ATOM      3  H2  UNL     1       1.602   0.283  12.192  1.00  0.00     0.188 HD
HETATM    4  N3  UNL     1       3.027   1.314  11.046  1.00  0.00    -0.294 N 
ATOM      5  H3  UNL     1       2.535   1.414  10.159  1.00  0.00     0.187 HD
HETATM    6  C15 UNL     1       4.273   1.772  11.290  1.00  0.00     0.113 A 
HETATM    7  C16 UNL     1       5.399   2.404  10.861  1.00  0.00     0.146 A 
HETATM    8  N7  UNL     1       6.301   2.424  11.893  1.00  0.00    -0.293 N 
ATOM      9  H7  UNL     1       7.235   2.834  11.863  1.00  0.00     0.187 HD
HETATM   10  N8  UNL     1       5.758   1.828  12.923  1.00  0.00    -0.294 N 
ATOM     11  H8  UNL     1       6.212   1.700  13.827  1.00  0.00     0.187 HD
HETATM   12  C27 UNL     1       4.516   1.404  12.621  1.00  0.00     0.124 A 
ENDROOT
BRANCH   1  13
HETATM   13  N1  UNL     1       3.280   0.244  14.317  1.00  0.00    -0.373 N 
ATOM     14  H1  UNL     1       2.356   0.216  14.749  1.00  0.00     0.161 HD
BRANCH  13  15
HETATM   15  C13 UNL     1       4.438  -0.280  15.044  1.00  0.00     0.128 C 
BRANCH  15  16
HETATM   16  C12 UNL     1       4.475  -1.754  15.075  1.00  0.00     0.042 C 
HETATM   17  C10 UNL     1       5.545  -2.434  14.291  1.00  0.00     0.162 C 
HETATM   18  C9  UNL     1       6.807  -1.605  14.315  1.00  0.00     0.042 C 
HETATM   19  C11 UNL     1       5.086  -2.493  12.848  1.00  0.00     0.049 C 
HETATM   20  N9  UNL     1       5.780  -3.790  14.727  1.00  0.00     0.103 N 
HETATM   21  C8  UNL     1       8.001  -2.309  13.717  1.00  0.00     0.010 C 
HETATM   22  C7  UNL     1       8.101  -3.675  14.280  1.00  0.00     0.027 C 
HETATM   23  C2  UNL     1       9.335  -4.001  15.049  1.00  0.00    -0.042 C 
HETATM   24  C6  UNL     1       7.039  -3.893  15.372  1.00  0.00     0.229 C 
HETATM   25  C1  UNL     1       9.591  -3.091  16.206  1.00  0.00     0.015 C 
HETATM   26  C3  UNL     1      10.570  -4.096  14.193  1.00  0.00     0.015 C 
HETATM   27  C4  UNL     1       8.946  -5.365  15.638  1.00  0.00     0.011 C 
HETATM   28  C5  UNL     1       7.426  -5.262  15.840  1.00  0.00     0.037 C 
HETATM   29  C30 UNL     1       4.683  -4.454  15.323  1.00  0.00     0.274 C 
HETATM   30  C29 UNL     1       4.207  -3.768  16.551  1.00  0.00     0.031 C 
HETATM   31  C28 UNL     1       4.384  -2.294  16.497  1.00  0.00     0.010 C 
ENDBRANCH  15  16
ENDBRANCH  13  15
ENDBRANCH   1  13
BRANCH   7  32
HETATM   32  C17 UNL     1       5.653   2.983   9.559  1.00  0.00     0.272 C 
HETATM   33  O1  UNL     1       6.022   4.206   9.494  1.00  0.00    -0.266 OA
HETATM   34  N4  UNL     1       5.505   2.247   8.366  1.00  0.00    -0.355 N 
ATOM     35  H4  UNL     1       5.164   1.292   8.476  1.00  0.00     0.162 HD
BRANCH  34  36
HETATM   36  C18 UNL     1       5.770   2.657   7.025  1.00  0.00     0.127 C 
BRANCH  36  37
HETATM   37  C19 UNL     1       6.709   1.897   6.193  1.00  0.00     0.007 C 
HETATM   38  C20 UNL     1       5.948   1.229   5.053  1.00  0.00     0.036 C 
HETATM   39  C21 UNL     1       6.867   0.386   4.203  1.00  0.00     0.273 C 
HETATM   40  N5  UNL     1       7.736  -0.468   4.953  1.00  0.00     0.090 N 
HETATM   41  C25 UNL     1       8.589   0.354   5.785  1.00  0.00     0.273 C 
HETATM   42  C26 UNL     1       7.634   0.982   6.852  1.00  0.00     0.036 C 
BRANCH  40  43
HETATM   43  C22 UNL     1       8.529  -1.293   4.100  1.00  0.00     0.292 C 
BRANCH  43  44
HETATM   44  C23 UNL     1       8.360  -2.776   4.355  1.00  0.00     0.152 C 
BRANCH  44  45
HETATM   45  N6  UNL     1       8.759  -3.029   5.735  1.00  0.00    -0.367 N 
ATOM     46  H6  UNL     1       8.045  -3.079   6.461  1.00  0.00     0.161 HD
BRANCH  45  47
HETATM   47  C24 UNL     1      10.129  -3.207   6.090  1.00  0.00     0.348 C 
HETATM   48  O2  UNL     1      10.422  -4.185   6.815  1.00  0.00    -0.284 OA
ENDBRANCH  45  47
ENDBRANCH  44  45
ENDBRANCH  43  44
ENDBRANCH  40  43
ENDBRANCH  36  37
ENDBRANCH  34  36
ENDBRANCH   7  32
TORSDOF 10
ENDMDL
MODEL 4
REMARK VINA RESULT: -9.366575954      1.063      1.274
REMARK  10 active torsions:
REMARK  status: ('A' for Active; 'I' for Inactive)
REMARK    1  A    between atoms: C12_12  and  C13_13 
REMARK    2  A    between atoms: C13_13  and  N1_14 
REMARK    3  A    between atoms: N1_14  and  C14_16 
REMARK    4  A    between atoms: C16_22  and  C17_23 
REMARK       I    between atoms: C17_23  and  N4_25 
REMARK    5  A    between atoms: N4_25  and  C18_27 
REMARK    6  A    between atoms: C18_27  and  C19_28 
REMARK    7  A    between atoms: N5_31  and  C22_32 
REMARK    8  A    between atoms: C22_32  and  C23_33 
REMARK    9  A    between atoms: C23_33  and  N6_34 
REMARK   10  A    between atoms: N6_34  and  C24_36 
ROOT
HETATM    1  C14 UNL     1       6.585   0.404  14.430  1.00  0.00     0.147 A 
HETATM    2  N2  UNL     1       7.218  -0.724  14.772  1.00  0.00    -0.283 N 
ATOM      3  H2  UNL     1       8.231  -0.845  14.778  1.00  0.00     0.188 HD
HETATM    4  N3  UNL     1       6.329  -1.671  15.106  1.00  0.00    -0.294 N 
ATOM      5  H3  UNL     1       6.571  -2.617  15.402  1.00  0.00     0.187 HD
HETATM    6  C15 UNL     1       5.070  -1.198  14.997  1.00  0.00     0.113 A 
HETATM    7  C16 UNL     1       3.727  -1.394  15.093  1.00  0.00     0.146 A 
HETATM    8  N7  UNL     1       3.095  -0.232  14.734  1.00  0.00    -0.293 N 
ATOM      9  H7  UNL     1       2.087  -0.082  14.711  1.00  0.00     0.187 HD
HETATM   10  N8  UNL     1       4.009   0.652  14.426  1.00  0.00    -0.294 N 
ATOM     11  H8  UNL     1       3.816   1.606  14.122  1.00  0.00     0.187 HD
HETATM   12  C27 UNL     1       5.240   0.125  14.565  1.00  0.00     0.124 A 
ENDROOT
BRANCH   1  13
HETATM   13  N1  UNL     1       7.124   1.513  14.042  1.00  0.00    -0.373 N 
ATOM     14  H1  UNL     1       7.316   2.248  14.723  1.00  0.00     0.161 HD
BRANCH  13  15
HETATM   15  C13 UNL     1       7.462   1.724  12.632  1.00  0.00     0.128 C 
BRANCH  15  16
HETATM   16  C12 UNL     1       6.502   2.601  11.939  1.00  0.00     0.042 C 
HETATM   17  C10 UNL     1       7.046   3.580  10.955  1.00  0.00     0.162 C 
HETATM   18  C9  UNL     1       8.239   2.987  10.245  1.00  0.00     0.042 C 
HETATM   19  C11 UNL     1       7.550   4.778  11.735  1.00  0.00     0.049 C 
HETATM   20  N9  UNL     1       6.046   4.056  10.029  1.00  0.00     0.103 N 
HETATM   21  C8  UNL     1       8.733   3.827   9.092  1.00  0.00     0.010 C 
HETATM   22  C7  UNL     1       7.586   4.216   8.240  1.00  0.00     0.027 C 
HETATM   23  C2  UNL     1       7.605   3.745   6.826  1.00  0.00    -0.042 C 
HETATM   24  C6  UNL     1       6.291   3.544   8.728  1.00  0.00     0.229 C 
HETATM   25  C1  UNL     1       7.705   2.262   6.677  1.00  0.00     0.015 C 
HETATM   26  C3  UNL     1       8.658   4.414   5.982  1.00  0.00     0.015 C 
HETATM   27  C4  UNL     1       6.188   4.138   6.381  1.00  0.00     0.011 C 
HETATM   28  C5  UNL     1       5.346   3.995   7.658  1.00  0.00     0.037 C 
HETATM   29  C30 UNL     1       4.711   4.051  10.493  1.00  0.00     0.274 C 
HETATM   30  C29 UNL     1       4.242   2.687  10.848  1.00  0.00     0.031 C 
HETATM   31  C28 UNL     1       5.328   1.817  11.366  1.00  0.00     0.010 C 
ENDBRANCH  15  16
ENDBRANCH  13  15
ENDBRANCH   1  13
BRANCH   7  32
HETATM   32  C17 UNL     1       3.031  -2.594  15.505  1.00  0.00     0.272 C 
HETATM   33  O1  UNL     1       2.428  -3.288  14.616  1.00  0.00    -0.266 OA
HETATM   34  N4  UNL     1       2.996  -3.020  16.848  1.00  0.00    -0.355 N 
ATOM     35  H4  UNL     1       3.454  -2.404  17.519  1.00  0.00     0.162 HD
BRANCH  34  36
HETATM   36  C18 UNL     1       2.406  -4.199  17.396  1.00  0.00     0.127 C 
BRANCH  36  37
HETATM   37  C19 UNL     1       3.171  -5.450  17.448  1.00  0.00     0.007 C 
HETATM   38  C20 UNL     1       3.147  -5.997  18.872  1.00  0.00     0.036 C 
HETATM   39  C21 UNL     1       3.972  -7.256  18.987  1.00  0.00     0.273 C 
HETATM   40  N5  UNL     1       5.264  -7.165  18.378  1.00  0.00     0.090 N 
HETATM   41  C25 UNL     1       5.093  -6.917  16.962  1.00  0.00     0.273 C 
HETATM   42  C26 UNL     1       4.510  -5.469  16.871  1.00  0.00     0.036 C 
BRANCH  40  43
HETATM   43  C22 UNL     1       6.026  -8.355  18.580  1.00  0.00     0.292 C 
BRANCH  43  44
HETATM   44  C23 UNL     1       7.396  -8.319  17.936  1.00  0.00     0.152 C 
BRANCH  44  45
HETATM   45  N6  UNL     1       8.192  -7.336  18.662  1.00  0.00    -0.367 N 
ATOM     46  H6  UNL     1       8.328  -7.445  19.666  1.00  0.00     0.161 HD
BRANCH  45  47
HETATM   47  C24 UNL     1       8.786  -6.223  17.994  1.00  0.00     0.348 C 
HETATM   48  O2  UNL     1       9.558  -5.491  18.654  1.00  0.00    -0.284 OA
ENDBRANCH  45  47
ENDBRANCH  44  45
ENDBRANCH  43  44
ENDBRANCH  40  43
ENDBRANCH  36  37
ENDBRANCH  34  36
ENDBRANCH   7  32
TORSDOF 10
ENDMDL
MODEL 5
REMARK VINA RESULT: -9.295677079      2.036      3.628
REMARK  10 active torsions:
REMARK  status: ('A' for Active; 'I' for Inactive)
REMARK    1  A    between atoms: C12_12  and  C13_13 
REMARK    2  A    between atoms: C13_13  and  N1_14 
REMARK    3  A    between atoms: N1_14  and  C14_16 
REMARK    4  A    between atoms: C16_22  and  C17_23 
REMARK       I    between atoms: C17_23  and  N4_25 
REMARK    5  A    between atoms: N4_25  and  C18_27 
REMARK    6  A    between atoms: C18_27  and  C19_28 
REMARK    7  A    between atoms: N5_31  and  C22_32 
REMARK    8  A    between atoms: C22_32  and  C23_33 
REMARK    9  A    between atoms: C23_33  and  N6_34 
REMARK   10  A    between atoms: N6_34  and  C24_36 
ROOT
HETATM    1  C14 UNL     1       5.140  -1.833  16.577  1.00  0.00     0.147 A 
HETATM    2  N2  UNL     1       6.162  -2.686  16.715  1.00  0.00    -0.283 N 
ATOM      3  H2  UNL     1       7.135  -2.413  16.851  1.00  0.00     0.188 HD
HETATM    4  N3  UNL     1       5.721  -3.951  16.649  1.00  0.00    -0.294 N 
ATOM      5  H3  UNL     1       6.313  -4.778  16.728  1.00  0.00     0.187 HD
HETATM    6  C15 UNL     1       4.385  -3.977  16.465  1.00  0.00     0.113 A 
HETATM    7  C16 UNL     1       3.234  -4.683  16.292  1.00  0.00     0.146 A 
HETATM    8  N7  UNL     1       2.201  -3.795  16.146  1.00  0.00    -0.293 N 
ATOM      9  H7  UNL     1       1.221  -4.037  16.001  1.00  0.00     0.187 HD
HETATM   10  N8  UNL     1       2.689  -2.584  16.224  1.00  0.00    -0.294 N 
ATOM     11  H8  UNL     1       2.139  -1.729  16.148  1.00  0.00     0.187 HD
HETATM   12  C27 UNL     1       4.020  -2.624  16.419  1.00  0.00     0.124 A 
ENDROOT
BRANCH   1  13
HETATM   13  N1  UNL     1       5.198  -0.542  16.576  1.00  0.00    -0.373 N 
ATOM     14  H1  UNL     1       5.607  -0.053  17.373  1.00  0.00     0.161 HD
BRANCH  13  15
HETATM   15  C13 UNL     1       4.683   0.227  15.440  1.00  0.00     0.128 C 
BRANCH  15  16
HETATM   16  C12 UNL     1       5.452   0.006  14.203  1.00  0.00     0.042 C 
HETATM   17  C10 UNL     1       4.758   0.244  12.905  1.00  0.00     0.162 C 
HETATM   18  C9  UNL     1       3.786   1.391  13.044  1.00  0.00     0.042 C 
HETATM   19  C11 UNL     1       3.937  -0.992  12.594  1.00  0.00     0.049 C 
HETATM   20  N9  UNL     1       5.676   0.441  11.808  1.00  0.00     0.103 N 
HETATM   21  C8  UNL     1       3.185   1.833  11.732  1.00  0.00     0.010 C 
HETATM   22  C7  UNL     1       4.260   2.000  10.729  1.00  0.00     0.027 C 
HETATM   23  C2  UNL     1       4.444   3.363  10.155  1.00  0.00    -0.042 C 
HETATM   24  C6  UNL     1       5.643   1.790  11.371  1.00  0.00     0.229 C 
HETATM   25  C1  UNL     1       4.705   4.424  11.174  1.00  0.00     0.015 C 
HETATM   26  C3  UNL     1       3.320   3.792   9.249  1.00  0.00     0.015 C 
HETATM   27  C4  UNL     1       5.755   3.165   9.378  1.00  0.00     0.011 C 
HETATM   28  C5  UNL     1       6.522   2.123  10.206  1.00  0.00     0.037 C 
HETATM   29  C30 UNL     1       6.942  -0.175  11.934  1.00  0.00     0.274 C 
HETATM   30  C29 UNL     1       7.695   0.317  13.116  1.00  0.00     0.031 C 
HETATM   31  C28 UNL     1       6.813   0.691  14.251  1.00  0.00     0.010 C 
ENDBRANCH  15  16
ENDBRANCH  13  15
ENDBRANCH   1  13
BRANCH   7  32
HETATM   32  C17 UNL     1       3.069  -6.121  16.267  1.00  0.00     0.272 C 
HETATM   33  O1  UNL     1       3.207  -6.734  15.153  1.00  0.00    -0.266 OA
HETATM   34  N4  UNL     1       2.762  -6.864  17.425  1.00  0.00    -0.355 N 
ATOM     35  H4  UNL     1       2.617  -6.318  18.274  1.00  0.00     0.162 HD
BRANCH  34  36
HETATM   36  C18 UNL     1       2.625  -8.277  17.569  1.00  0.00     0.127 C 
BRANCH  36  37
HETATM   37  C19 UNL     1       3.818  -9.129  17.649  1.00  0.00     0.007 C 
HETATM   38  C20 UNL     1       4.861  -8.454  18.535  1.00  0.00     0.036 C 
HETATM   39  C21 UNL     1       6.130  -9.268  18.599  1.00  0.00     0.273 C 
HETATM   40  N5  UNL     1       6.598  -9.723  17.325  1.00  0.00     0.090 N 
HETATM   41  C25 UNL     1       5.590 -10.583  16.742  1.00  0.00     0.273 C 
HETATM   42  C26 UNL     1       4.391  -9.638  16.409  1.00  0.00     0.036 C 
BRANCH  40  43
HETATM   43  C22 UNL     1       7.837 -10.423  17.438  1.00  0.00     0.292 C 
BRANCH  43  44
HETATM   44  C23 UNL     1       9.051  -9.519  17.423  1.00  0.00     0.152 C 
BRANCH  44  45
HETATM   45  N6  UNL     1       8.763  -8.417  16.512  1.00  0.00    -0.367 N 
ATOM     46  H6  UNL     1       8.475  -8.621  15.556  1.00  0.00     0.161 HD
BRANCH  45  47
HETATM   47  C24 UNL     1       8.876  -7.058  16.932  1.00  0.00     0.348 C 
HETATM   48  O2  UNL     1       7.823  -6.386  17.024  1.00  0.00    -0.284 OA
ENDBRANCH  45  47
ENDBRANCH  44  45
ENDBRANCH  43  44
ENDBRANCH  40  43
ENDBRANCH  36  37
ENDBRANCH  34  36
ENDBRANCH   7  32
TORSDOF 10
ENDMDL
