MODEL 1
REMARK VINA RESULT: -5.614992696      0.000      0.000
REMARK  2 active torsions:
REMARK  status: ('A' for Active; 'I' for Inactive)
REMARK    1  A    between atoms: N1_1  and  N2_4 
REMARK       I    between atoms: N2_4  and  C1_6 
REMARK    2  A    between atoms: C1_6  and  C2_8 
REMARK       I    between atoms: C2_8  and  N3_10 
ROOT
HETATM    1  N2  UNL     1      -0.041   8.684  12.502  1.00  0.00    -0.268 N 
ATOM      2  H2  UNL     1       0.799   9.193  12.228  1.00  0.00     0.190 HD
HETATM    3  C1  UNL     1      -1.192   8.888  11.726  1.00  0.00     0.327 C 
HETATM    4  O1  UNL     1      -2.241   8.277  12.037  1.00  0.00    -0.261 OA
ENDROOT
BRANCH   3   5
HETATM    5  C2  UNL     1      -1.223   9.773  10.579  1.00  0.00     0.317 C 
HETATM    6  O2  UNL     1      -1.978   9.541   9.576  1.00  0.00    -0.262 OA
HETATM    7  N3  UNL     1      -0.406  10.931  10.544  1.00  0.00    -0.295 N 
HETATM    8  C3  UNL     1       0.173  11.262   9.447  1.00  0.00     0.203 C 
ATOM      9  H3  UNL     1      -0.278  11.496  11.384  1.00  0.00     0.171 HD
HETATM   10  N4  UNL     1       1.012  12.435   9.378  1.00  0.00    -0.066 NA
HETATM   11  N5  UNL     1      -0.001  10.474   8.272  1.00  0.00    -0.066 NA
ENDBRANCH   3   5
BRANCH   1  12
HETATM   12  N1  UNL     1       0.056   7.860  13.600  1.00  0.00    -0.342 N 
ATOM     13  H12 UNL     1       0.124   6.862  13.404  1.00  0.00     0.176 HD
ATOM     14  H11 UNL     1       0.065   8.162  14.575  1.00  0.00     0.176 HD
ENDBRANCH   1  12
TORSDOF 2
ENDMDL
MODEL 2
REMARK VINA RESULT: -5.378890799      2.341      2.724
REMARK  2 active torsions:
REMARK  status: ('A' for Active; 'I' for Inactive)
REMARK    1  A    between atoms: N1_1  and  N2_4 
REMARK       I    between atoms: N2_4  and  C1_6 
REMARK    2  A    between atoms: C1_6  and  C2_8 
REMARK       I    between atoms: C2_8  and  N3_10 
ROOT
HETATM    1  N2  UNL     1      -0.253   8.918  11.836  1.00  0.00    -0.268 N 
ATOM      2  H2  UNL     1      -0.973   9.637  11.901  1.00  0.00     0.190 HD
HETATM    3  C1  UNL     1       0.203   8.585  10.552  1.00  0.00     0.327 C 
HETATM    4  O1  UNL     1       1.086   7.705  10.438  1.00  0.00    -0.261 OA
ENDROOT
BRANCH   3   5
HETATM    5  C2  UNL     1      -0.303   9.216   9.348  1.00  0.00     0.317 C 
HETATM    6  O2  UNL     1       0.474   9.814   8.530  1.00  0.00    -0.262 OA
HETATM    7  N3  UNL     1      -1.687   9.182   9.048  1.00  0.00    -0.295 N 
HETATM    8  C3  UNL     1      -2.253  10.225   8.556  1.00  0.00     0.203 C 
ATOM      9  H3  UNL     1      -2.231   8.336   9.220  1.00  0.00     0.171 HD
HETATM   10  N4  UNL     1      -3.660  10.223   8.240  1.00  0.00    -0.066 NA
HETATM   11  N5  UNL     1      -1.498  11.409   8.315  1.00  0.00    -0.066 NA
ENDBRANCH   3   5
BRANCH   1  12
HETATM   12  N1  UNL     1       0.183   8.360  13.016  1.00  0.00    -0.342 N 
ATOM     13  H12 UNL     1       0.755   8.961  13.608  1.00  0.00     0.176 HD
ATOM     14  H11 UNL     1      -0.017   7.413  13.339  1.00  0.00     0.176 HD
ENDBRANCH   1  12
TORSDOF 2
ENDMDL
MODEL 3
REMARK VINA RESULT: -5.282422238      2.446      4.401
REMARK  2 active torsions:
REMARK  status: ('A' for Active; 'I' for Inactive)
REMARK    1  A    between atoms: N1_1  and  N2_4 
REMARK       I    between atoms: N2_4  and  C1_6 
REMARK    2  A    between atoms: C1_6  and  C2_8 
REMARK       I    between atoms: C2_8  and  N3_10 
ROOT
HETATM    1  N2  UNL     1      -0.103  11.271  10.271  1.00  0.00    -0.268 N 
ATOM      2  H2  UNL     1      -0.580  11.267  11.172  1.00  0.00     0.190 HD
HETATM    3  C1  UNL     1      -0.176  10.099   9.505  1.00  0.00     0.327 C 
HETATM    4  O1  UNL     1       0.399  10.072   8.393  1.00  0.00    -0.261 OA
ENDROOT
BRANCH   3   5
HETATM    5  C2  UNL     1      -0.890   8.915   9.942  1.00  0.00     0.317 C 
HETATM    6  O2  UNL     1      -1.644   8.931  10.971  1.00  0.00    -0.262 OA
HETATM    7  N3  UNL     1      -0.764   7.697   9.227  1.00  0.00    -0.295 N 
HETATM    8  C3  UNL     1      -0.683   6.590   9.874  1.00  0.00     0.203 C 
ATOM      9  H3  UNL     1      -0.738   7.699   8.207  1.00  0.00     0.171 HD
HETATM   10  N4  UNL     1      -0.554   5.334   9.176  1.00  0.00    -0.066 NA
HETATM   11  N5  UNL     1      -0.717   6.583  11.298  1.00  0.00    -0.066 NA
ENDBRANCH   3   5
BRANCH   1  12
HETATM   12  N1  UNL     1       0.556  12.426   9.916  1.00  0.00    -0.342 N 
ATOM     13  H12 UNL     1       0.964  12.961  10.683  1.00  0.00     0.176 HD
ATOM     14  H11 UNL     1       0.667  12.784   8.968  1.00  0.00     0.176 HD
ENDBRANCH   1  12
TORSDOF 2
ENDMDL
MODEL 4
REMARK VINA RESULT: -5.239697695      1.386      4.255
REMARK  2 active torsions:
REMARK  status: ('A' for Active; 'I' for Inactive)
REMARK    1  A    between atoms: N1_1  and  N2_4 
REMARK       I    between atoms: N2_4  and  C1_6 
REMARK    2  A    between atoms: C1_6  and  C2_8 
REMARK       I    between atoms: C2_8  and  N3_10 
ROOT
HETATM    1  N2  UNL     1       0.018  11.426  10.170  1.00  0.00    -0.268 N 
ATOM      2  H2  UNL     1      -0.300  11.530  11.133  1.00  0.00     0.190 HD
HETATM    3  C1  UNL     1       0.004  10.132   9.630  1.00  0.00     0.327 C 
HETATM    4  O1  UNL     1       0.388   9.971   8.448  1.00  0.00    -0.261 OA
ENDROOT
BRANCH   3   5
HETATM    5  C2  UNL     1      -0.436   8.970  10.377  1.00  0.00     0.317 C 
HETATM    6  O2  UNL     1      -1.445   8.281  10.008  1.00  0.00    -0.262 OA
HETATM    7  N3  UNL     1       0.254   8.567  11.548  1.00  0.00    -0.295 N 
HETATM    8  C3  UNL     1      -0.414   8.152  12.563  1.00  0.00     0.203 C 
ATOM      9  H3  UNL     1       1.273   8.607  11.584  1.00  0.00     0.171 HD
HETATM   10  N4  UNL     1       0.258   7.735  13.770  1.00  0.00    -0.066 NA
HETATM   11  N5  UNL     1      -1.837   8.097  12.517  1.00  0.00    -0.066 NA
ENDBRANCH   3   5
BRANCH   1  12
HETATM   12  N1  UNL     1       0.422  12.568   9.517  1.00  0.00    -0.342 N 
ATOM     13  H12 UNL     1       1.426  12.669   9.374  1.00  0.00     0.176 HD
ATOM     14  H11 UNL     1      -0.190  13.308   9.172  1.00  0.00     0.176 HD
ENDBRANCH   1  12
TORSDOF 2
ENDMDL
MODEL 5
REMARK VINA RESULT: -5.193871190      2.886      4.503
REMARK  2 active torsions:
REMARK  status: ('A' for Active; 'I' for Inactive)
REMARK    1  A    between atoms: N1_1  and  N2_4 
REMARK       I    between atoms: N2_4  and  C1_6 
REMARK    2  A    between atoms: C1_6  and  C2_8 
REMARK       I    between atoms: C2_8  and  N3_10 
ROOT
HETATM    1  N2  UNL     1       0.373  11.133  10.085  1.00  0.00    -0.268 N 
ATOM      2  H2  UNL     1       0.455  10.868  11.066  1.00  0.00     0.190 HD
HETATM    3  C1  UNL     1       0.169  10.098   9.160  1.00  0.00     0.327 C 
HETATM    4  O1  UNL     1       0.063  10.390   7.947  1.00  0.00    -0.261 OA
ENDROOT
BRANCH   3   5
HETATM    5  C2  UNL     1       0.075   8.703   9.545  1.00  0.00     0.317 C 
HETATM    6  O2  UNL     1      -0.170   8.357  10.749  1.00  0.00    -0.262 OA
HETATM    7  N3  UNL     1       0.255   7.680   8.582  1.00  0.00    -0.295 N 
HETATM    8  C3  UNL     1       0.912   6.622   8.898  1.00  0.00     0.203 C 
ATOM      9  H3  UNL     1      -0.133   7.781   7.644  1.00  0.00     0.171 HD
HETATM   10  N4  UNL     1       1.112   5.562   7.941  1.00  0.00    -0.066 NA
HETATM   11  N5  UNL     1       1.457   6.477  10.206  1.00  0.00    -0.066 NA
ENDBRANCH   3   5
BRANCH   1  12
HETATM   12  N1  UNL     1       0.471  12.473   9.787  1.00  0.00    -0.342 N 
ATOM     13  H12 UNL     1       1.382  12.790   9.455  1.00  0.00     0.176 HD
ATOM     14  H11 UNL     1      -0.278  13.160   9.869  1.00  0.00     0.176 HD
ENDBRANCH   1  12
TORSDOF 2
ENDMDL
