MODEL 1
REMARK VINA RESULT: -7.771886286      0.000      0.000
REMARK  5 active torsions:
REMARK  status: ('A' for Active; 'I' for Inactive)
REMARK    1  A    between atoms: C5_5  and  N1_6 
REMARK    2  A    between atoms: N1_6  and  N2_8 
REMARK    3  A    between atoms: N2_8  and  C7_10 
REMARK    4  A    between atoms: C7_10  and  N3_12 
REMARK    5  A    between atoms: N3_12  and  N4_14 
ROOT
HETATM    1  C7  UNL     1      22.174   6.756  21.515  1.00  0.00     0.205 C 
HETATM    2  S1  UNL     1      20.981   7.128  22.592  1.00  0.00    -0.038 SA
ENDROOT
BRANCH   1   3
HETATM    3  N2  UNL     1      22.976   5.599  21.704  1.00  0.00    -0.277 N 
ATOM      4  H2  UNL     1      23.512   5.491  22.565  1.00  0.00     0.189 HD
BRANCH   3   5
HETATM    5  N1  UNL     1      23.034   4.627  20.738  1.00  0.00    -0.325 N 
HETATM    6  C6  UNL     1      22.126   3.563  20.805  1.00  0.00     0.171 C 
BRANCH   5   7
HETATM    7  C5  UNL     1      24.207   4.538  19.985  1.00  0.00     0.102 C 
HETATM    8  C4  UNL     1      24.922   3.208  20.199  1.00  0.00     0.027 C 
HETATM    9  C3  UNL     1      25.923   3.037  19.079  1.00  0.00     0.006 C 
HETATM   10  C2  UNL     1      25.235   2.778  17.756  1.00  0.00    -0.019 C 
HETATM   11  C1  UNL     1      25.091   1.295  17.570  1.00  0.00     0.010 C 
HETATM   12  C15 UNL     1      23.899   3.483  17.799  1.00  0.00     0.006 C 
HETATM   13  C14 UNL     1      24.120   4.795  18.529  1.00  0.00     0.027 C 
ENDBRANCH   5   7
ENDBRANCH   3   5
ENDBRANCH   1   3
BRANCH   1  14
HETATM   14  N3  UNL     1      22.418   7.576  20.388  1.00  0.00    -0.275 N 
ATOM     15  H3  UNL     1      23.249   7.372  19.832  1.00  0.00     0.189 HD
BRANCH  14  16
HETATM   16  N4  UNL     1      21.620   8.635  19.978  1.00  0.00    -0.307 N 
HETATM   17  C8  UNL     1      21.444   8.886  18.730  1.00  0.00     0.004 C 
HETATM   18  C9  UNL     1      20.575  10.035  18.316  1.00  0.00     0.054 C 
HETATM   19  C13 UNL     1      22.053   8.102  17.630  1.00  0.00     0.054 C 
HETATM   20  C10 UNL     1      20.536  10.019  16.801  1.00  0.00     0.006 C 
HETATM   21  C11 UNL     1      21.962  10.252  16.331  1.00  0.00     0.001 C 
HETATM   22  C12 UNL     1      22.754   9.003  16.627  1.00  0.00     0.006 C 
ATOM     23  H4  UNL     1      21.167   9.223  20.678  1.00  0.00     0.186 HD
ENDBRANCH  14  16
ENDBRANCH   1  14
TORSDOF 5
ENDMDL
MODEL 2
REMARK VINA RESULT: -7.750745745      0.727      1.331
REMARK  5 active torsions:
REMARK  status: ('A' for Active; 'I' for Inactive)
REMARK    1  A    between atoms: C5_5  and  N1_6 
REMARK    2  A    between atoms: N1_6  and  N2_8 
REMARK    3  A    between atoms: N2_8  and  C7_10 
REMARK    4  A    between atoms: C7_10  and  N3_12 
REMARK    5  A    between atoms: N3_12  and  N4_14 
ROOT
HETATM    1  C7  UNL     1      22.209   6.793  21.504  1.00  0.00     0.205 C 
HETATM    2  S1  UNL     1      21.016   7.107  22.600  1.00  0.00    -0.038 SA
ENDROOT
BRANCH   1   3
HETATM    3  N2  UNL     1      22.979   5.604  21.604  1.00  0.00    -0.277 N 
ATOM      4  H2  UNL     1      23.931   5.646  21.967  1.00  0.00     0.189 HD
BRANCH   3   5
HETATM    5  N1  UNL     1      22.451   4.398  21.214  1.00  0.00    -0.325 N 
HETATM    6  C6  UNL     1      21.997   3.518  22.203  1.00  0.00     0.171 C 
BRANCH   5   7
HETATM    7  C5  UNL     1      22.742   3.957  19.921  1.00  0.00     0.102 C 
HETATM    8  C4  UNL     1      23.823   4.805  19.259  1.00  0.00     0.027 C 
HETATM    9  C3  UNL     1      24.347   4.037  18.067  1.00  0.00     0.006 C 
HETATM   10  C2  UNL     1      25.157   2.833  18.497  1.00  0.00    -0.019 C 
HETATM   11  C1  UNL     1      26.599   3.237  18.604  1.00  0.00     0.010 C 
HETATM   12  C15 UNL     1      24.593   2.361  19.818  1.00  0.00     0.006 C 
HETATM   13  C14 UNL     1      23.088   2.529  19.735  1.00  0.00     0.027 C 
ENDBRANCH   5   7
ENDBRANCH   3   5
ENDBRANCH   1   3
BRANCH   1  14
HETATM   14  N3  UNL     1      22.486   7.696  20.451  1.00  0.00    -0.275 N 
ATOM     15  H3  UNL     1      23.381   7.598  19.973  1.00  0.00     0.189 HD
BRANCH  14  16
HETATM   16  N4  UNL     1      21.637   8.705  20.015  1.00  0.00    -0.307 N 
HETATM   17  C8  UNL     1      21.452   8.919  18.761  1.00  0.00     0.004 C 
HETATM   18  C9  UNL     1      20.529  10.015  18.321  1.00  0.00     0.054 C 
HETATM   19  C13 UNL     1      22.102   8.141  17.681  1.00  0.00     0.054 C 
HETATM   20  C10 UNL     1      20.495   9.962  16.806  1.00  0.00     0.006 C 
HETATM   21  C11 UNL     1      21.909  10.254  16.334  1.00  0.00     0.001 C 
HETATM   22  C12 UNL     1      22.761   9.053  16.659  1.00  0.00     0.006 C 
ATOM     23  H4  UNL     1      21.154   9.286  20.701  1.00  0.00     0.186 HD
ENDBRANCH  14  16
ENDBRANCH   1  14
TORSDOF 5
ENDMDL
MODEL 3
REMARK VINA RESULT: -7.696139428      2.415      5.423
REMARK  5 active torsions:
REMARK  status: ('A' for Active; 'I' for Inactive)
REMARK    1  A    between atoms: C5_5  and  N1_6 
REMARK    2  A    between atoms: N1_6  and  N2_8 
REMARK    3  A    between atoms: N2_8  and  C7_10 
REMARK    4  A    between atoms: C7_10  and  N3_12 
REMARK    5  A    between atoms: N3_12  and  N4_14 
ROOT
HETATM    1  C7  UNL     1      22.405   5.120  20.740  1.00  0.00     0.205 C 
HETATM    2  S1  UNL     1      22.164   3.500  20.941  1.00  0.00    -0.038 SA
ENDROOT
BRANCH   1   3
HETATM    3  N2  UNL     1      22.250   5.714  19.459  1.00  0.00    -0.277 N 
ATOM      4  H2  UNL     1      21.328   6.024  19.153  1.00  0.00     0.189 HD
BRANCH   3   5
HETATM    5  N1  UNL     1      23.333   5.873  18.631  1.00  0.00    -0.325 N 
HETATM    6  C6  UNL     1      24.233   4.809  18.498  1.00  0.00     0.171 C 
BRANCH   5   7
HETATM    7  C5  UNL     1      23.687   7.177  18.279  1.00  0.00     0.102 C 
HETATM    8  C4  UNL     1      24.280   7.247  16.876  1.00  0.00     0.027 C 
HETATM    9  C3  UNL     1      24.257   8.694  16.437  1.00  0.00     0.006 C 
HETATM   10  C2  UNL     1      22.845   9.168  16.170  1.00  0.00    -0.019 C 
HETATM   11  C1  UNL     1      22.527   8.943  14.720  1.00  0.00     0.010 C 
HETATM   12  C15 UNL     1      21.929   8.390  17.086  1.00  0.00     0.006 C 
HETATM   13  C14 UNL     1      22.660   8.236  18.407  1.00  0.00     0.027 C 
ENDBRANCH   5   7
ENDBRANCH   3   5
ENDBRANCH   1   3
BRANCH   1  14
HETATM   14  N3  UNL     1      22.767   5.943  21.832  1.00  0.00    -0.275 N 
ATOM     15  H3  UNL     1      23.567   6.563  21.707  1.00  0.00     0.189 HD
BRANCH  14  16
HETATM   16  N4  UNL     1      22.122   5.976  23.061  1.00  0.00    -0.307 N 
HETATM   17  C8  UNL     1      21.228   6.864  23.316  1.00  0.00     0.004 C 
HETATM   18  C9  UNL     1      20.547   6.873  24.651  1.00  0.00     0.054 C 
HETATM   19  C13 UNL     1      20.804   7.914  22.361  1.00  0.00     0.054 C 
HETATM   20  C10 UNL     1      19.527   7.994  24.604  1.00  0.00     0.006 C 
HETATM   21  C11 UNL     1      20.312   9.281  24.412  1.00  0.00     0.001 C 
HETATM   22  C12 UNL     1      20.840   9.293  23.000  1.00  0.00     0.006 C 
ATOM     23  H4  UNL     1      22.361   5.285  23.773  1.00  0.00     0.186 HD
ENDBRANCH  14  16
ENDBRANCH   1  14
TORSDOF 5
ENDMDL
MODEL 4
REMARK VINA RESULT: -7.653009415      3.258      6.059
REMARK  5 active torsions:
REMARK  status: ('A' for Active; 'I' for Inactive)
REMARK    1  A    between atoms: C5_5  and  N1_6 
REMARK    2  A    between atoms: N1_6  and  N2_8 
REMARK    3  A    between atoms: N2_8  and  C7_10 
REMARK    4  A    between atoms: C7_10  and  N3_12 
REMARK    5  A    between atoms: N3_12  and  N4_14 
ROOT
HETATM    1  C7  UNL     1      21.531   5.228  22.901  1.00  0.00     0.205 C 
HETATM    2  S1  UNL     1      21.391   3.636  23.313  1.00  0.00    -0.038 SA
ENDROOT
BRANCH   1   3
HETATM    3  N2  UNL     1      22.649   5.678  22.151  1.00  0.00    -0.277 N 
ATOM      4  H2  UNL     1      23.529   5.881  22.625  1.00  0.00     0.189 HD
BRANCH   3   5
HETATM    5  N1  UNL     1      22.554   5.843  20.792  1.00  0.00    -0.325 N 
HETATM    6  C6  UNL     1      22.583   4.704  19.978  1.00  0.00     0.171 C 
BRANCH   5   7
HETATM    7  C5  UNL     1      22.822   7.114  20.278  1.00  0.00     0.102 C 
HETATM    8  C4  UNL     1      22.543   7.193  18.780  1.00  0.00     0.027 C 
HETATM    9  C3  UNL     1      22.470   8.654  18.401  1.00  0.00     0.006 C 
HETATM   10  C2  UNL     1      21.222   9.308  18.955  1.00  0.00    -0.019 C 
HETATM   11  C1  UNL     1      20.129   9.205  17.931  1.00  0.00     0.010 C 
HETATM   12  C15 UNL     1      20.873   8.592  20.240  1.00  0.00     0.006 C 
HETATM   13  C14 UNL     1      22.185   8.278  20.935  1.00  0.00     0.027 C 
ENDBRANCH   5   7
ENDBRANCH   3   5
ENDBRANCH   1   3
BRANCH   1  14
HETATM   14  N3  UNL     1      20.546   6.168  23.284  1.00  0.00    -0.275 N 
ATOM     15  H3  UNL     1      19.945   6.543  22.550  1.00  0.00     0.189 HD
BRANCH  14  16
HETATM   16  N4  UNL     1      20.331   6.623  24.579  1.00  0.00    -0.307 N 
HETATM   17  C8  UNL     1      19.983   7.840  24.803  1.00  0.00     0.004 C 
HETATM   18  C9  UNL     1      19.756   8.302  26.211  1.00  0.00     0.054 C 
HETATM   19  C13 UNL     1      19.784   8.856  23.744  1.00  0.00     0.054 C 
HETATM   20  C10 UNL     1      19.312   9.749  26.120  1.00  0.00     0.006 C 
HETATM   21  C11 UNL     1      20.469  10.516  25.502  1.00  0.00     0.001 C 
HETATM   22  C12 UNL     1      20.551  10.133  24.046  1.00  0.00     0.006 C 
ATOM     23  H4  UNL     1      20.450   5.982  25.363  1.00  0.00     0.186 HD
ENDBRANCH  14  16
ENDBRANCH   1  14
TORSDOF 5
ENDMDL
MODEL 5
REMARK VINA RESULT: -7.636765928      1.564      5.546
REMARK  5 active torsions:
REMARK  status: ('A' for Active; 'I' for Inactive)
REMARK    1  A    between atoms: C5_5  and  N1_6 
REMARK    2  A    between atoms: N1_6  and  N2_8 
REMARK    3  A    between atoms: N2_8  and  C7_10 
REMARK    4  A    between atoms: C7_10  and  N3_12 
REMARK    5  A    between atoms: N3_12  and  N4_14 
ROOT
HETATM    1  C7  UNL     1      21.792   7.464  20.278  1.00  0.00     0.205 C 
HETATM    2  S1  UNL     1      21.215   8.579  21.349  1.00  0.00    -0.038 SA
ENDROOT
BRANCH   1   3
HETATM    3  N2  UNL     1      21.451   7.548  18.902  1.00  0.00    -0.277 N 
ATOM      4  H2  UNL     1      21.206   6.703  18.388  1.00  0.00     0.189 HD
BRANCH   3   5
HETATM    5  N1  UNL     1      21.449   8.761  18.259  1.00  0.00    -0.325 N 
HETATM    6  C6  UNL     1      20.218   9.349  17.949  1.00  0.00     0.171 C 
BRANCH   5   7
HETATM    7  C5  UNL     1      22.627   9.150  17.616  1.00  0.00     0.102 C 
HETATM    8  C4  UNL     1      23.669   8.037  17.616  1.00  0.00     0.027 C 
HETATM    9  C3  UNL     1      24.716   8.386  16.583  1.00  0.00     0.006 C 
HETATM   10  C2  UNL     1      24.170   8.261  15.178  1.00  0.00    -0.019 C 
HETATM   11  C1  UNL     1      24.443   6.872  14.677  1.00  0.00     0.010 C 
HETATM   12  C15 UNL     1      22.692   8.568  15.241  1.00  0.00     0.006 C 
HETATM   13  C14 UNL     1      22.522   9.694  16.243  1.00  0.00     0.027 C 
ENDBRANCH   5   7
ENDBRANCH   3   5
ENDBRANCH   1   3
BRANCH   1  14
HETATM   14  N3  UNL     1      22.631   6.409  20.707  1.00  0.00    -0.275 N 
ATOM     15  H3  UNL     1      23.510   6.663  21.159  1.00  0.00     0.189 HD
BRANCH  14  16
HETATM   16  N4  UNL     1      22.358   5.055  20.562  1.00  0.00    -0.307 N 
HETATM   17  C8  UNL     1      23.151   4.286  19.907  1.00  0.00     0.004 C 
HETATM   18  C9  UNL     1      22.830   2.828  19.769  1.00  0.00     0.054 C 
HETATM   19  C13 UNL     1      24.400   4.743  19.253  1.00  0.00     0.054 C 
HETATM   20  C10 UNL     1      23.979   2.208  18.997  1.00  0.00     0.006 C 
HETATM   21  C11 UNL     1      23.984   2.870  17.629  1.00  0.00     0.001 C 
HETATM   22  C12 UNL     1      24.468   4.287  17.805  1.00  0.00     0.006 C 
ATOM     23  H4  UNL     1      21.514   4.666  20.984  1.00  0.00     0.186 HD
ENDBRANCH  14  16
ENDBRANCH   1  14
TORSDOF 5
ENDMDL
