MODEL 1
REMARK VINA RESULT: -5.951724619      0.000      0.000
REMARK  21 active torsions:
REMARK  status: ('A' for Active; 'I' for Inactive)
REMARK    1  A    between atoms: C2_2  and  C3_3 
REMARK    2  A    between atoms: N1_7  and  C7_8 
REMARK    3  A    between atoms: C7_8  and  O1_9 
REMARK    4  A    between atoms: C7_8  and  C8_11 
REMARK    5  A    between atoms: C8_11  and  N2_12 
REMARK    6  A    between atoms: C8_11  and  C27_48 
REMARK       I    between atoms: N2_12  and  C9_14 
REMARK    7  A    between atoms: C9_14  and  C10_16 
REMARK    8  A    between atoms: C10_16  and  N3_18 
REMARK    9  A    between atoms: N3_18  and  C12_20 
REMARK   10  A    between atoms: C12_20  and  O3_21 
REMARK   11  A    between atoms: C12_20  and  C13_23 
REMARK   12  A    between atoms: C13_23  and  C14_24 
REMARK   13  A    between atoms: C13_23  and  N4_28 
REMARK   14  A    between atoms: C14_24  and  C15_25 
REMARK       I    between atoms: N4_28  and  C18_30 
REMARK   15  A    between atoms: C18_30  and  C19_32 
REMARK   16  A    between atoms: C19_32  and  C20_33 
REMARK   17  A    between atoms: C19_32  and  N5_37 
REMARK   18  A    between atoms: C20_33  and  O5_34 
REMARK   19  A    between atoms: O5_34  and  C21_35 
REMARK       I    between atoms: N5_37  and  C23_39 
REMARK   20  A    between atoms: C23_39  and  C24_41 
REMARK   21  A    between atoms: C24_41  and  N6_44 
ROOT
HETATM    1  C12 UNL     1      34.867  22.242  20.681  1.00  0.00     0.163 C 
ENDROOT
BRANCH   1   2
HETATM    2  N3  UNL     1      36.039  22.254  21.463  1.00  0.00    -0.356 N 
ATOM      3  H3  UNL     1      36.149  21.548  22.191  1.00  0.00     0.162 HD
BRANCH   2   4
HETATM    4  C10 UNL     1      37.107  23.242  21.272  1.00  0.00     0.172 C 
HETATM    5  C11 UNL     1      37.642  23.052  19.891  1.00  0.00     0.042 C 
BRANCH   4   6
HETATM    6  C9  UNL     1      36.529  24.595  21.374  1.00  0.00     0.244 C 
HETATM    7  N2  UNL     1      36.352  25.495  20.328  1.00  0.00    -0.325 N 
ATOM      8  H2  UNL     1      36.648  25.175  19.405  1.00  0.00     0.169 HD
HETATM    9  O2  UNL     1      36.163  24.965  22.518  1.00  0.00    -0.271 OA
BRANCH   7  10
HETATM   10  C8  UNL     1      35.795  26.839  20.394  1.00  0.00     0.070 C 
BRANCH  10  11
HETATM   11  C7  UNL     1      34.413  26.794  19.950  1.00  0.00     0.162 C 
BRANCH  11  12
HETATM   12  N1  UNL     1      33.304  27.667  20.063  1.00  0.00    -0.352 N 
HETATM   13  C3  UNL     1      32.607  27.866  21.333  1.00  0.00     0.108 C 
HETATM   14  C4  UNL     1      32.068  29.271  21.243  1.00  0.00     0.031 C 
HETATM   15  C5  UNL     1      31.474  29.169  19.828  1.00  0.00     0.022 C 
HETATM   16  C6  UNL     1      32.586  28.426  19.084  1.00  0.00     0.126 C 
BRANCH  13  17
HETATM   17  C2  UNL     1      33.484  27.713  22.521  1.00  0.00    -0.012 C 
HETATM   18  C1  UNL     1      34.043  28.769  23.116  1.00  0.00     0.009 C 
ENDBRANCH  13  17
ENDBRANCH  11  12
BRANCH  11  19
HETATM   19  O1  UNL     1      34.107  25.687  19.284  1.00  0.00    -0.345 OA
ATOM     20  H1  UNL     1      34.784  25.026  19.365  1.00  0.00     0.219 HD
ENDBRANCH  11  19
ENDBRANCH  10  11
BRANCH  10  21
HETATM   21  C27 UNL     1      36.702  27.955  20.258  1.00  0.00    -0.004 C 
HETATM   22  C28 UNL     1      37.475  28.233  21.557  1.00  0.00     0.021 C 
HETATM   23  C29 UNL     1      37.861  27.511  19.293  1.00  0.00     0.021 C 
HETATM   24  C30 UNL     1      36.239  29.243  19.697  1.00  0.00     0.021 C 
ENDBRANCH  10  21
ENDBRANCH   7  10
ENDBRANCH   4   6
ENDBRANCH   2   4
ENDBRANCH   1   2
BRANCH   1  25
HETATM   25  O3  UNL     1      34.055  23.232  20.993  1.00  0.00    -0.345 OA
ATOM     26  H3  UNL     1      33.405  23.386  20.318  1.00  0.00     0.219 HD
ENDBRANCH   1  25
BRANCH   1  27
HETATM   27  C13 UNL     1      34.409  21.360  19.644  1.00  0.00     0.082 C 
BRANCH  27  28
HETATM   28  C14 UNL     1      33.803  20.063  19.806  1.00  0.00     0.011 C 
BRANCH  28  29
HETATM   29  C15 UNL     1      33.636  19.108  18.688  1.00  0.00     0.002 C 
HETATM   30  C16 UNL     1      34.582  19.017  17.585  1.00  0.00     0.013 C 
HETATM   31  C17 UNL     1      32.216  19.208  18.087  1.00  0.00     0.013 C 
ENDBRANCH  28  29
ENDBRANCH  27  28
BRANCH  27  32
HETATM   32  N4  UNL     1      33.836  22.195  18.582  1.00  0.00    -0.322 N 
HETATM   33  C18 UNL     1      34.454  22.646  17.416  1.00  0.00     0.247 C 
HETATM   34  O4  UNL     1      35.657  22.348  17.104  1.00  0.00    -0.271 OA
ATOM     35  H4  UNL     1      32.865  22.481  18.712  1.00  0.00     0.169 HD
BRANCH  33  36
HETATM   36  C19 UNL     1      33.714  23.538  16.438  1.00  0.00     0.200 C 
BRANCH  36  37
HETATM   37  C20 UNL     1      32.289  23.733  16.772  1.00  0.00     0.202 C 
BRANCH  37  38
HETATM   38  O5  UNL     1      31.925  24.498  17.810  1.00  0.00    -0.389 OA
BRANCH  38  39
HETATM   39  C21 UNL     1      30.902  25.375  17.732  1.00  0.00     0.163 C 
HETATM   40  C22 UNL     1      30.230  25.504  19.125  1.00  0.00     0.033 C 
ENDBRANCH  38  39
ENDBRANCH  37  38
ENDBRANCH  36  37
BRANCH  36  41
HETATM   41  N5  UNL     1      34.075  23.192  15.114  1.00  0.00    -0.344 N 
HETATM   42  C23 UNL     1      34.851  24.094  14.290  1.00  0.00     0.253 C 
HETATM   43  O6  UNL     1      35.192  25.190  14.784  1.00  0.00    -0.271 OA
ATOM     44  H5  UNL     1      33.785  22.291  14.734  1.00  0.00     0.163 HD
BRANCH  42  45
HETATM   45  C24 UNL     1      35.230  23.728  12.902  1.00  0.00     0.196 C 
HETATM   46  C25 UNL     1      35.565  22.252  12.824  1.00  0.00     0.056 C 
HETATM   47  C26 UNL     1      36.439  24.493  12.431  1.00  0.00     0.056 C 
BRANCH  45  48
HETATM   48  N6  UNL     1      34.118  23.955  11.996  1.00  0.00    -0.062 N 
ATOM     49  H63 UNL     1      33.367  24.482  12.441  1.00  0.00     0.275 HD
ATOM     50  H62 UNL     1      34.355  24.622  11.262  1.00  0.00     0.275 HD
ATOM     51  H61 UNL     1      33.785  23.071  11.611  1.00  0.00     0.275 HD
ENDBRANCH  45  48
ENDBRANCH  42  45
ENDBRANCH  36  41
ENDBRANCH  33  36
ENDBRANCH  27  32
ENDBRANCH   1  27
TORSDOF 21
ENDMDL
MODEL 2
REMARK VINA RESULT: -5.884650084      2.979      7.754
REMARK  21 active torsions:
REMARK  status: ('A' for Active; 'I' for Inactive)
REMARK    1  A    between atoms: C2_2  and  C3_3 
REMARK    2  A    between atoms: N1_7  and  C7_8 
REMARK    3  A    between atoms: C7_8  and  O1_9 
REMARK    4  A    between atoms: C7_8  and  C8_11 
REMARK    5  A    between atoms: C8_11  and  N2_12 
REMARK    6  A    between atoms: C8_11  and  C27_48 
REMARK       I    between atoms: N2_12  and  C9_14 
REMARK    7  A    between atoms: C9_14  and  C10_16 
REMARK    8  A    between atoms: C10_16  and  N3_18 
REMARK    9  A    between atoms: N3_18  and  C12_20 
REMARK   10  A    between atoms: C12_20  and  O3_21 
REMARK   11  A    between atoms: C12_20  and  C13_23 
REMARK   12  A    between atoms: C13_23  and  C14_24 
REMARK   13  A    between atoms: C13_23  and  N4_28 
REMARK   14  A    between atoms: C14_24  and  C15_25 
REMARK       I    between atoms: N4_28  and  C18_30 
REMARK   15  A    between atoms: C18_30  and  C19_32 
REMARK   16  A    between atoms: C19_32  and  C20_33 
REMARK   17  A    between atoms: C19_32  and  N5_37 
REMARK   18  A    between atoms: C20_33  and  O5_34 
REMARK   19  A    between atoms: O5_34  and  C21_35 
REMARK       I    between atoms: N5_37  and  C23_39 
REMARK   20  A    between atoms: C23_39  and  C24_41 
REMARK   21  A    between atoms: C24_41  and  N6_44 
ROOT
HETATM    1  C12 UNL     1      32.766  29.261  20.614  1.00  0.00     0.163 C 
ENDROOT
BRANCH   1   2
HETATM    2  N3  UNL     1      33.632  29.108  21.715  1.00  0.00    -0.356 N 
ATOM      3  H3  UNL     1      33.563  29.771  22.487  1.00  0.00     0.162 HD
BRANCH   2   4
HETATM    4  C10 UNL     1      34.628  28.034  21.795  1.00  0.00     0.172 C 
HETATM    5  C11 UNL     1      35.134  28.004  23.199  1.00  0.00     0.042 C 
BRANCH   4   6
HETATM    6  C9  UNL     1      33.967  26.748  21.502  1.00  0.00     0.244 C 
HETATM    7  N2  UNL     1      34.025  26.049  20.301  1.00  0.00    -0.325 N 
ATOM      8  H2  UNL     1      34.586  26.472  19.561  1.00  0.00     0.169 HD
HETATM    9  O2  UNL     1      33.289  26.241  22.431  1.00  0.00    -0.271 OA
BRANCH   7  10
HETATM   10  C8  UNL     1      33.379  24.785  19.975  1.00  0.00     0.070 C 
BRANCH  10  11
HETATM   11  C7  UNL     1      34.181  23.699  20.510  1.00  0.00     0.162 C 
BRANCH  11  12
HETATM   12  N1  UNL     1      35.568  23.422  20.568  1.00  0.00    -0.352 N 
HETATM   13  C3  UNL     1      36.209  22.502  19.630  1.00  0.00     0.108 C 
HETATM   14  C4  UNL     1      37.624  23.013  19.520  1.00  0.00     0.031 C 
HETATM   15  C5  UNL     1      37.891  23.192  21.023  1.00  0.00     0.022 C 
HETATM   16  C6  UNL     1      36.582  23.831  21.492  1.00  0.00     0.126 C 
BRANCH  13  17
HETATM   17  C2  UNL     1      35.557  22.464  18.298  1.00  0.00    -0.012 C 
HETATM   18  C1  UNL     1      36.221  22.790  17.187  1.00  0.00     0.009 C 
ENDBRANCH  13  17
ENDBRANCH  11  12
BRANCH  11  19
HETATM   19  O1  UNL     1      33.459  22.740  21.078  1.00  0.00    -0.345 OA
ATOM     20  H1  UNL     1      32.828  22.366  20.474  1.00  0.00     0.219 HD
ENDBRANCH  11  19
ENDBRANCH  10  11
BRANCH  10  21
HETATM   21  C27 UNL     1      32.549  24.734  18.794  1.00  0.00    -0.004 C 
HETATM   22  C28 UNL     1      31.108  25.183  19.080  1.00  0.00     0.021 C 
HETATM   23  C29 UNL     1      33.041  25.865  17.818  1.00  0.00     0.021 C 
HETATM   24  C30 UNL     1      32.508  23.521  17.948  1.00  0.00     0.021 C 
ENDBRANCH  10  21
ENDBRANCH   7  10
ENDBRANCH   4   6
ENDBRANCH   2   4
ENDBRANCH   1   2
BRANCH   1  25
HETATM   25  O3  UNL     1      31.838  28.326  20.582  1.00  0.00    -0.345 OA
ATOM     26  H3  UNL     1      31.054  28.585  21.050  1.00  0.00     0.219 HD
ENDBRANCH   1  25
BRANCH   1  27
HETATM   27  C13 UNL     1      32.726  30.220  19.546  1.00  0.00     0.082 C 
BRANCH  27  28
HETATM   28  C14 UNL     1      32.116  31.526  19.568  1.00  0.00     0.011 C 
BRANCH  28  29
HETATM   29  C15 UNL     1      30.837  31.828  18.887  1.00  0.00     0.002 C 
HETATM   30  C16 UNL     1      29.655  30.990  19.028  1.00  0.00     0.013 C 
HETATM   31  C17 UNL     1      31.063  32.079  17.379  1.00  0.00     0.013 C 
ENDBRANCH  28  29
ENDBRANCH  27  28
BRANCH  27  32
HETATM   32  N4  UNL     1      34.007  30.135  18.834  1.00  0.00    -0.322 N 
HETATM   33  C18 UNL     1      34.233  29.726  17.520  1.00  0.00     0.247 C 
HETATM   34  O4  UNL     1      33.294  29.379  16.726  1.00  0.00    -0.271 OA
ATOM     35  H4  UNL     1      34.833  30.410  19.365  1.00  0.00     0.169 HD
BRANCH  33  36
HETATM   36  C19 UNL     1      35.639  29.666  16.955  1.00  0.00     0.200 C 
BRANCH  36  37
HETATM   37  C20 UNL     1      35.687  29.681  15.479  1.00  0.00     0.202 C 
BRANCH  37  38
HETATM   38  O5  UNL     1      36.131  30.757  14.816  1.00  0.00    -0.389 OA
BRANCH  38  39
HETATM   39  C21 UNL     1      36.803  31.752  15.432  1.00  0.00     0.163 C 
HETATM   40  C22 UNL     1      36.553  33.084  14.675  1.00  0.00     0.033 C 
ENDBRANCH  38  39
ENDBRANCH  37  38
ENDBRANCH  36  37
BRANCH  36  41
HETATM   41  N5  UNL     1      36.395  28.704  17.665  1.00  0.00    -0.344 N 
HETATM   42  C23 UNL     1      37.279  29.093  18.744  1.00  0.00     0.253 C 
HETATM   43  O6  UNL     1      37.353  30.307  19.029  1.00  0.00    -0.271 OA
ATOM     44  H5  UNL     1      36.317  27.719  17.412  1.00  0.00     0.163 HD
BRANCH  42  45
HETATM   45  C24 UNL     1      38.070  28.081  19.487  1.00  0.00     0.196 C 
HETATM   46  C25 UNL     1      37.417  26.718  19.372  1.00  0.00     0.056 C 
HETATM   47  C26 UNL     1      38.169  28.414  20.953  1.00  0.00     0.056 C 
BRANCH  45  48
HETATM   48  N6  UNL     1      39.400  27.958  18.917  1.00  0.00    -0.062 N 
ATOM     49  H63 UNL     1      39.712  26.987  18.886  1.00  0.00     0.275 HD
ATOM     50  H62 UNL     1      39.404  28.150  17.916  1.00  0.00     0.275 HD
ATOM     51  H61 UNL     1      40.060  28.552  19.419  1.00  0.00     0.275 HD
ENDBRANCH  45  48
ENDBRANCH  42  45
ENDBRANCH  36  41
ENDBRANCH  33  36
ENDBRANCH  27  32
ENDBRANCH   1  27
TORSDOF 21
ENDMDL
MODEL 3
REMARK VINA RESULT: -5.831498658      5.063      8.718
REMARK  21 active torsions:
REMARK  status: ('A' for Active; 'I' for Inactive)
REMARK    1  A    between atoms: C2_2  and  C3_3 
REMARK    2  A    between atoms: N1_7  and  C7_8 
REMARK    3  A    between atoms: C7_8  and  O1_9 
REMARK    4  A    between atoms: C7_8  and  C8_11 
REMARK    5  A    between atoms: C8_11  and  N2_12 
REMARK    6  A    between atoms: C8_11  and  C27_48 
REMARK       I    between atoms: N2_12  and  C9_14 
REMARK    7  A    between atoms: C9_14  and  C10_16 
REMARK    8  A    between atoms: C10_16  and  N3_18 
REMARK    9  A    between atoms: N3_18  and  C12_20 
REMARK   10  A    between atoms: C12_20  and  O3_21 
REMARK   11  A    between atoms: C12_20  and  C13_23 
REMARK   12  A    between atoms: C13_23  and  C14_24 
REMARK   13  A    between atoms: C13_23  and  N4_28 
REMARK   14  A    between atoms: C14_24  and  C15_25 
REMARK       I    between atoms: N4_28  and  C18_30 
REMARK   15  A    between atoms: C18_30  and  C19_32 
REMARK   16  A    between atoms: C19_32  and  C20_33 
REMARK   17  A    between atoms: C19_32  and  N5_37 
REMARK   18  A    between atoms: C20_33  and  O5_34 
REMARK   19  A    between atoms: O5_34  and  C21_35 
REMARK       I    between atoms: N5_37  and  C23_39 
REMARK   20  A    between atoms: C23_39  and  C24_41 
REMARK   21  A    between atoms: C24_41  and  N6_44 
ROOT
HETATM    1  C12 UNL     1      37.268  29.286  17.815  1.00  0.00     0.163 C 
ENDROOT
BRANCH   1   2
HETATM    2  N3  UNL     1      37.907  29.524  19.048  1.00  0.00    -0.356 N 
ATOM      3  H3  UNL     1      37.970  30.483  19.390  1.00  0.00     0.162 HD
BRANCH   2   4
HETATM    4  C10 UNL     1      38.487  28.448  19.860  1.00  0.00     0.172 C 
HETATM    5  C11 UNL     1      39.558  29.058  20.702  1.00  0.00     0.042 C 
BRANCH   4   6
HETATM    6  C9  UNL     1      37.440  27.904  20.745  1.00  0.00     0.244 C 
HETATM    7  N2  UNL     1      36.173  27.482  20.358  1.00  0.00    -0.325 N 
ATOM      8  H2  UNL     1      35.960  27.554  19.363  1.00  0.00     0.169 HD
HETATM    9  O2  UNL     1      37.728  27.814  21.966  1.00  0.00    -0.271 OA
BRANCH   7  10
HETATM   10  C8  UNL     1      35.115  26.949  21.205  1.00  0.00     0.070 C 
BRANCH  10  11
HETATM   11  C7  UNL     1      35.314  25.518  21.358  1.00  0.00     0.162 C 
BRANCH  11  12
HETATM   12  N1  UNL     1      34.958  24.378  20.598  1.00  0.00    -0.352 N 
HETATM   13  C3  UNL     1      35.848  23.822  19.581  1.00  0.00     0.108 C 
HETATM   14  C4  UNL     1      35.511  22.352  19.557  1.00  0.00     0.031 C 
HETATM   15  C5  UNL     1      33.981  22.497  19.518  1.00  0.00     0.022 C 
HETATM   16  C6  UNL     1      33.753  23.606  20.548  1.00  0.00     0.126 C 
BRANCH  13  17
HETATM   17  C2  UNL     1      37.288  24.027  19.876  1.00  0.00    -0.012 C 
HETATM   18  C1  UNL     1      38.047  23.045  20.367  1.00  0.00     0.009 C 
ENDBRANCH  13  17
ENDBRANCH  11  12
BRANCH  11  19
HETATM   19  O1  UNL     1      35.982  25.192  22.458  1.00  0.00    -0.345 OA
ATOM     20  H1  UNL     1      36.231  25.958  22.962  1.00  0.00     0.219 HD
ENDBRANCH  11  19
ENDBRANCH  10  11
BRANCH  10  21
HETATM   21  C27 UNL     1      33.848  27.643  21.223  1.00  0.00    -0.004 C 
HETATM   22  C28 UNL     1      33.094  27.437  22.546  1.00  0.00     0.021 C 
HETATM   23  C29 UNL     1      34.151  29.184  21.271  1.00  0.00     0.021 C 
HETATM   24  C30 UNL     1      32.890  27.499  20.105  1.00  0.00     0.021 C 
ENDBRANCH  10  21
ENDBRANCH   7  10
ENDBRANCH   4   6
ENDBRANCH   2   4
ENDBRANCH   1   2
BRANCH   1  25
HETATM   25  O3  UNL     1      37.889  28.364  17.107  1.00  0.00    -0.345 OA
ATOM     26  H3  UNL     1      37.295  27.900  16.528  1.00  0.00     0.219 HD
ENDBRANCH   1  25
BRANCH   1  27
HETATM   27  C13 UNL     1      36.102  29.863  17.208  1.00  0.00     0.082 C 
BRANCH  27  28
HETATM   28  C14 UNL     1      34.807  30.054  17.811  1.00  0.00     0.011 C 
BRANCH  28  29
HETATM   29  C15 UNL     1      33.539  29.758  17.107  1.00  0.00     0.002 C 
HETATM   30  C16 UNL     1      33.482  29.463  15.683  1.00  0.00     0.013 C 
HETATM   31  C17 UNL     1      32.477  30.837  17.410  1.00  0.00     0.013 C 
ENDBRANCH  28  29
ENDBRANCH  27  28
BRANCH  27  32
HETATM   32  N4  UNL     1      36.557  30.952  16.335  1.00  0.00    -0.322 N 
HETATM   33  C18 UNL     1      37.000  30.868  15.016  1.00  0.00     0.247 C 
HETATM   34  O4  UNL     1      37.042  29.769  14.363  1.00  0.00    -0.271 OA
ATOM     35  H4  UNL     1      36.548  31.887  16.744  1.00  0.00     0.169 HD
BRANCH  33  36
HETATM   36  C19 UNL     1      37.470  32.102  14.272  1.00  0.00     0.200 C 
BRANCH  36  37
HETATM   37  C20 UNL     1      38.342  31.804  13.117  1.00  0.00     0.202 C 
BRANCH  37  38
HETATM   38  O5  UNL     1      39.454  32.518  12.893  1.00  0.00    -0.389 OA
BRANCH  38  39
HETATM   39  C21 UNL     1      39.572  33.350  11.837  1.00  0.00     0.163 C 
HETATM   40  C22 UNL     1      40.038  34.744  12.333  1.00  0.00     0.033 C 
ENDBRANCH  38  39
ENDBRANCH  37  38
ENDBRANCH  36  37
BRANCH  36  41
HETATM   41  N5  UNL     1      37.863  33.095  15.200  1.00  0.00    -0.344 N 
HETATM   42  C23 UNL     1      37.443  34.472  15.046  1.00  0.00     0.253 C 
HETATM   43  O6  UNL     1      36.723  34.757  14.066  1.00  0.00    -0.271 OA
ATOM     44  H5  UNL     1      38.451  32.836  15.992  1.00  0.00     0.163 HD
BRANCH  42  45
HETATM   45  C24 UNL     1      37.856  35.511  16.023  1.00  0.00     0.196 C 
HETATM   46  C25 UNL     1      36.727  36.497  16.246  1.00  0.00     0.056 C 
HETATM   47  C26 UNL     1      39.050  36.291  15.539  1.00  0.00     0.056 C 
BRANCH  45  48
HETATM   48  N6  UNL     1      38.148  34.909  17.312  1.00  0.00    -0.062 N 
ATOM     49  H63 UNL     1      38.978  34.318  17.275  1.00  0.00     0.275 HD
ATOM     50  H62 UNL     1      38.482  35.597  17.986  1.00  0.00     0.275 HD
ATOM     51  H61 UNL     1      37.335  34.401  17.660  1.00  0.00     0.275 HD
ENDBRANCH  45  48
ENDBRANCH  42  45
ENDBRANCH  36  41
ENDBRANCH  33  36
ENDBRANCH  27  32
ENDBRANCH   1  27
TORSDOF 21
ENDMDL
MODEL 4
REMARK VINA RESULT: -5.794552908      4.140      8.173
REMARK  21 active torsions:
REMARK  status: ('A' for Active; 'I' for Inactive)
REMARK    1  A    between atoms: C2_2  and  C3_3 
REMARK    2  A    between atoms: N1_7  and  C7_8 
REMARK    3  A    between atoms: C7_8  and  O1_9 
REMARK    4  A    between atoms: C7_8  and  C8_11 
REMARK    5  A    between atoms: C8_11  and  N2_12 
REMARK    6  A    between atoms: C8_11  and  C27_48 
REMARK       I    between atoms: N2_12  and  C9_14 
REMARK    7  A    between atoms: C9_14  and  C10_16 
REMARK    8  A    between atoms: C10_16  and  N3_18 
REMARK    9  A    between atoms: N3_18  and  C12_20 
REMARK   10  A    between atoms: C12_20  and  O3_21 
REMARK   11  A    between atoms: C12_20  and  C13_23 
REMARK   12  A    between atoms: C13_23  and  C14_24 
REMARK   13  A    between atoms: C13_23  and  N4_28 
REMARK   14  A    between atoms: C14_24  and  C15_25 
REMARK       I    between atoms: N4_28  and  C18_30 
REMARK   15  A    between atoms: C18_30  and  C19_32 
REMARK   16  A    between atoms: C19_32  and  C20_33 
REMARK   17  A    between atoms: C19_32  and  N5_37 
REMARK   18  A    between atoms: C20_33  and  O5_34 
REMARK   19  A    between atoms: O5_34  and  C21_35 
REMARK       I    between atoms: N5_37  and  C23_39 
REMARK   20  A    between atoms: C23_39  and  C24_41 
REMARK   21  A    between atoms: C24_41  and  N6_44 
ROOT
HETATM    1  C12 UNL     1      33.806  28.347  17.851  1.00  0.00     0.163 C 
ENDROOT
BRANCH   1   2
HETATM    2  N3  UNL     1      32.720  27.490  18.117  1.00  0.00    -0.356 N 
ATOM      3  H3  UNL     1      32.229  27.063  17.331  1.00  0.00     0.162 HD
BRANCH   2   4
HETATM    4  C10 UNL     1      32.268  27.185  19.479  1.00  0.00     0.172 C 
HETATM    5  C11 UNL     1      30.948  26.498  19.363  1.00  0.00     0.042 C 
BRANCH   4   6
HETATM    6  C9  UNL     1      33.231  26.258  20.104  1.00  0.00     0.244 C 
HETATM    7  N2  UNL     1      34.214  25.526  19.446  1.00  0.00    -0.325 N 
ATOM      8  H2  UNL     1      34.270  25.655  18.436  1.00  0.00     0.169 HD
HETATM    9  O2  UNL     1      33.150  26.121  21.351  1.00  0.00    -0.271 OA
BRANCH   7  10
HETATM   10  C8  UNL     1      35.172  24.597  20.029  1.00  0.00     0.070 C 
BRANCH  10  11
HETATM   11  C7  UNL     1      36.380  25.327  20.374  1.00  0.00     0.162 C 
BRANCH  11  12
HETATM   12  N1  UNL     1      37.026  26.478  19.863  1.00  0.00    -0.352 N 
HETATM   13  C3  UNL     1      36.718  27.818  20.361  1.00  0.00     0.108 C 
HETATM   14  C4  UNL     1      38.001  28.588  20.166  1.00  0.00     0.031 C 
HETATM   15  C5  UNL     1      38.287  28.143  18.723  1.00  0.00     0.022 C 
HETATM   16  C6  UNL     1      37.965  26.648  18.796  1.00  0.00     0.126 C 
BRANCH  13  17
HETATM   17  C2  UNL     1      36.301  27.840  21.785  1.00  0.00    -0.012 C 
HETATM   18  C1  UNL     1      37.096  28.333  22.737  1.00  0.00     0.009 C 
ENDBRANCH  13  17
ENDBRANCH  11  12
BRANCH  11  19
HETATM   19  O1  UNL     1      37.038  24.804  21.402  1.00  0.00    -0.345 OA
ATOM     20  H1  UNL     1      36.932  23.861  21.448  1.00  0.00     0.219 HD
ENDBRANCH  11  19
ENDBRANCH  10  11
BRANCH  10  21
HETATM   21  C27 UNL     1      35.094  23.209  19.637  1.00  0.00    -0.004 C 
HETATM   22  C28 UNL     1      34.685  22.300  20.807  1.00  0.00     0.021 C 
HETATM   23  C29 UNL     1      33.860  23.055  18.676  1.00  0.00     0.021 C 
HETATM   24  C30 UNL     1      36.205  22.565  18.903  1.00  0.00     0.021 C 
ENDBRANCH  10  21
ENDBRANCH   7  10
ENDBRANCH   4   6
ENDBRANCH   2   4
ENDBRANCH   1   2
BRANCH   1  25
HETATM   25  O3  UNL     1      34.860  27.688  17.414  1.00  0.00    -0.345 OA
ATOM     26  H3  UNL     1      35.453  27.456  18.119  1.00  0.00     0.219 HD
ENDBRANCH   1  25
BRANCH   1  27
HETATM   27  C13 UNL     1      33.965  29.768  17.981  1.00  0.00     0.082 C 
BRANCH  27  28
HETATM   28  C14 UNL     1      33.718  30.571  19.152  1.00  0.00     0.011 C 
BRANCH  28  29
HETATM   29  C15 UNL     1      32.414  31.215  19.426  1.00  0.00     0.002 C 
HETATM   30  C16 UNL     1      31.406  30.612  20.286  1.00  0.00     0.013 C 
HETATM   31  C17 UNL     1      31.723  31.638  18.111  1.00  0.00     0.013 C 
ENDBRANCH  28  29
ENDBRANCH  27  28
BRANCH  27  32
HETATM   32  N4  UNL     1      35.143  30.150  17.192  1.00  0.00    -0.322 N 
HETATM   33  C18 UNL     1      35.187  30.922  16.032  1.00  0.00     0.247 C 
HETATM   34  O4  UNL     1      34.147  31.441  15.500  1.00  0.00    -0.271 OA
ATOM     35  H4  UNL     1      36.041  29.808  17.536  1.00  0.00     0.169 HD
BRANCH  33  36
HETATM   36  C19 UNL     1      36.500  31.190  15.324  1.00  0.00     0.200 C 
BRANCH  36  37
HETATM   37  C20 UNL     1      37.291  29.971  15.058  1.00  0.00     0.202 C 
BRANCH  37  38
HETATM   38  O5  UNL     1      38.318  29.992  14.197  1.00  0.00    -0.389 OA
BRANCH  38  39
HETATM   39  C21 UNL     1      38.466  29.059  13.233  1.00  0.00     0.163 C 
HETATM   40  C22 UNL     1      39.877  29.195  12.601  1.00  0.00     0.033 C 
ENDBRANCH  38  39
ENDBRANCH  37  38
ENDBRANCH  36  37
BRANCH  36  41
HETATM   41  N5  UNL     1      37.133  32.314  15.906  1.00  0.00    -0.344 N 
HETATM   42  C23 UNL     1      37.419  33.499  15.125  1.00  0.00     0.253 C 
HETATM   43  O6  UNL     1      37.090  33.499  13.920  1.00  0.00    -0.271 OA
ATOM     44  H5  UNL     1      37.391  32.289  16.892  1.00  0.00     0.163 HD
BRANCH  42  45
HETATM   45  C24 UNL     1      38.081  34.677  15.739  1.00  0.00     0.196 C 
HETATM   46  C25 UNL     1      37.071  35.783  15.971  1.00  0.00     0.056 C 
HETATM   47  C26 UNL     1      39.167  35.233  14.854  1.00  0.00     0.056 C 
BRANCH  45  48
HETATM   48  N6  UNL     1      38.631  34.331  17.038  1.00  0.00    -0.062 N 
ATOM     49  H63 UNL     1      37.901  34.216  17.741  1.00  0.00     0.275 HD
ATOM     50  H62 UNL     1      39.005  33.382  17.052  1.00  0.00     0.275 HD
ATOM     51  H61 UNL     1      39.329  35.017  17.324  1.00  0.00     0.275 HD
ENDBRANCH  45  48
ENDBRANCH  42  45
ENDBRANCH  36  41
ENDBRANCH  33  36
ENDBRANCH  27  32
ENDBRANCH   1  27
TORSDOF 21
ENDMDL
MODEL 5
REMARK VINA RESULT: -5.758877774      1.749      4.075
REMARK  21 active torsions:
REMARK  status: ('A' for Active; 'I' for Inactive)
REMARK    1  A    between atoms: C2_2  and  C3_3 
REMARK    2  A    between atoms: N1_7  and  C7_8 
REMARK    3  A    between atoms: C7_8  and  O1_9 
REMARK    4  A    between atoms: C7_8  and  C8_11 
REMARK    5  A    between atoms: C8_11  and  N2_12 
REMARK    6  A    between atoms: C8_11  and  C27_48 
REMARK       I    between atoms: N2_12  and  C9_14 
REMARK    7  A    between atoms: C9_14  and  C10_16 
REMARK    8  A    between atoms: C10_16  and  N3_18 
REMARK    9  A    between atoms: N3_18  and  C12_20 
REMARK   10  A    between atoms: C12_20  and  O3_21 
REMARK   11  A    between atoms: C12_20  and  C13_23 
REMARK   12  A    between atoms: C13_23  and  C14_24 
REMARK   13  A    between atoms: C13_23  and  N4_28 
REMARK   14  A    between atoms: C14_24  and  C15_25 
REMARK       I    between atoms: N4_28  and  C18_30 
REMARK   15  A    between atoms: C18_30  and  C19_32 
REMARK   16  A    between atoms: C19_32  and  C20_33 
REMARK   17  A    between atoms: C19_32  and  N5_37 
REMARK   18  A    between atoms: C20_33  and  O5_34 
REMARK   19  A    between atoms: O5_34  and  C21_35 
REMARK       I    between atoms: N5_37  and  C23_39 
REMARK   20  A    between atoms: C23_39  and  C24_41 
REMARK   21  A    between atoms: C24_41  and  N6_44 
ROOT
HETATM    1  C12 UNL     1      36.614  22.653  18.358  1.00  0.00     0.163 C 
ENDROOT
BRANCH   1   2
HETATM    2  N3  UNL     1      36.782  22.469  19.744  1.00  0.00    -0.356 N 
ATOM      3  H3  UNL     1      37.532  21.858  20.070  1.00  0.00     0.162 HD
BRANCH   2   4
HETATM    4  C10 UNL     1      35.924  23.121  20.739  1.00  0.00     0.172 C 
HETATM    5  C11 UNL     1      36.002  22.310  21.990  1.00  0.00     0.042 C 
BRANCH   4   6
HETATM    6  C9  UNL     1      36.454  24.470  21.016  1.00  0.00     0.244 C 
HETATM    7  N2  UNL     1      36.497  25.535  20.123  1.00  0.00    -0.325 N 
ATOM      8  H2  UNL     1      36.117  25.358  19.193  1.00  0.00     0.169 HD
HETATM    9  O2  UNL     1      36.909  24.669  22.171  1.00  0.00    -0.271 OA
BRANCH   7  10
HETATM   10  C8  UNL     1      37.021  26.873  20.358  1.00  0.00     0.070 C 
BRANCH  10  11
HETATM   11  C7  UNL     1      36.375  27.428  21.535  1.00  0.00     0.162 C 
BRANCH  11  12
HETATM   12  N1  UNL     1      35.035  27.714  21.892  1.00  0.00    -0.352 N 
HETATM   13  C3  UNL     1      34.495  29.071  21.831  1.00  0.00     0.108 C 
HETATM   14  C4  UNL     1      33.025  28.873  21.557  1.00  0.00     0.031 C 
HETATM   15  C5  UNL     1      32.769  27.784  22.611  1.00  0.00     0.022 C 
HETATM   16  C6  UNL     1      33.996  26.889  22.431  1.00  0.00     0.126 C 
BRANCH  13  17
HETATM   17  C2  UNL     1      35.119  29.911  20.779  1.00  0.00    -0.012 C 
HETATM   18  C1  UNL     1      34.433  30.306  19.704  1.00  0.00     0.009 C 
ENDBRANCH  13  17
ENDBRANCH  11  12
BRANCH  11  19
HETATM   19  O1  UNL     1      37.225  27.742  22.506  1.00  0.00    -0.345 OA
ATOM     20  H1  UNL     1      37.104  28.634  22.808  1.00  0.00     0.219 HD
ENDBRANCH  11  19
ENDBRANCH  10  11
BRANCH  10  21
HETATM   21  C27 UNL     1      37.513  27.617  19.222  1.00  0.00    -0.004 C 
HETATM   22  C28 UNL     1      38.214  28.918  19.643  1.00  0.00     0.021 C 
HETATM   23  C29 UNL     1      38.707  26.805  18.602  1.00  0.00     0.021 C 
HETATM   24  C30 UNL     1      36.634  27.905  18.067  1.00  0.00     0.021 C 
ENDBRANCH  10  21
ENDBRANCH   7  10
ENDBRANCH   4   6
ENDBRANCH   2   4
ENDBRANCH   1   2
BRANCH   1  25
HETATM   25  O3  UNL     1      37.479  23.517  17.866  1.00  0.00    -0.345 OA
ATOM     26  H3  UNL     1      38.377  23.238  18.002  1.00  0.00     0.219 HD
ENDBRANCH   1  25
BRANCH   1  27
HETATM   27  C13 UNL     1      35.685  22.092  17.418  1.00  0.00     0.082 C 
BRANCH  27  28
HETATM   28  C14 UNL     1      34.939  20.866  17.552  1.00  0.00     0.011 C 
BRANCH  28  29
HETATM   29  C15 UNL     1      33.828  20.702  18.516  1.00  0.00     0.002 C 
HETATM   30  C16 UNL     1      33.981  19.999  19.780  1.00  0.00     0.013 C 
HETATM   31  C17 UNL     1      32.570  20.144  17.813  1.00  0.00     0.013 C 
ENDBRANCH  28  29
ENDBRANCH  27  28
BRANCH  27  32
HETATM   32  N4  UNL     1      34.955  23.209  16.805  1.00  0.00    -0.322 N 
HETATM   33  C18 UNL     1      34.134  24.145  17.433  1.00  0.00     0.247 C 
HETATM   34  O4  UNL     1      33.927  24.157  18.694  1.00  0.00    -0.271 OA
ATOM     35  H4  UNL     1      35.061  23.313  15.796  1.00  0.00     0.169 HD
BRANCH  33  36
HETATM   36  C19 UNL     1      33.424  25.220  16.632  1.00  0.00     0.200 C 
BRANCH  36  37
HETATM   37  C20 UNL     1      34.327  26.014  15.773  1.00  0.00     0.202 C 
BRANCH  37  38
HETATM   38  O5  UNL     1      35.192  25.413  14.944  1.00  0.00    -0.389 OA
BRANCH  38  39
HETATM   39  C21 UNL     1      34.856  25.069  13.684  1.00  0.00     0.163 C 
HETATM   40  C22 UNL     1      35.603  23.766  13.292  1.00  0.00     0.033 C 
ENDBRANCH  38  39
ENDBRANCH  37  38
ENDBRANCH  36  37
BRANCH  36  41
HETATM   41  N5  UNL     1      32.487  25.885  17.456  1.00  0.00    -0.344 N 
HETATM   42  C23 UNL     1      31.078  25.555  17.406  1.00  0.00     0.253 C 
HETATM   43  O6  UNL     1      30.715  24.663  16.610  1.00  0.00    -0.271 OA
ATOM     44  H5  UNL     1      32.809  26.609  18.098  1.00  0.00     0.163 HD
BRANCH  42  45
HETATM   45  C24 UNL     1      30.097  26.254  18.273  1.00  0.00     0.196 C 
HETATM   46  C25 UNL     1      29.041  26.934  17.425  1.00  0.00     0.056 C 
HETATM   47  C26 UNL     1      30.753  27.315  19.118  1.00  0.00     0.056 C 
BRANCH  45  48
HETATM   48  N6  UNL     1      29.404  25.303  19.124  1.00  0.00    -0.062 N 
ATOM     49  H63 UNL     1      28.423  25.552  19.252  1.00  0.00     0.275 HD
ATOM     50  H62 UNL     1      29.272  24.404  18.660  1.00  0.00     0.275 HD
ATOM     51  H61 UNL     1      29.889  25.201  20.015  1.00  0.00     0.275 HD
ENDBRANCH  45  48
ENDBRANCH  42  45
ENDBRANCH  36  41
ENDBRANCH  33  36
ENDBRANCH  27  32
ENDBRANCH   1  27
TORSDOF 21
ENDMDL
