MODEL 1
REMARK VINA RESULT: -5.865981878      0.000      0.000
REMARK  19 active torsions:
REMARK  status: ('A' for Active; 'I' for Inactive)
REMARK    1  A    between atoms: C2_2  and  C3_3 
REMARK    2  A    between atoms: C3_3  and  N1_4 
REMARK    3  A    between atoms: N1_4  and  C4_6 
REMARK    4  A    between atoms: C5_9  and  N3_10 
REMARK    5  A    between atoms: N3_10  and  C6_12 
REMARK    6  A    between atoms: C6_12  and  C7_13 
REMARK    7  A    between atoms: C7_13  and  C8_14 
REMARK    8  A    between atoms: C8_14  and  N4_15 
REMARK    9  A    between atoms: C15_25  and  N7_26 
REMARK   10  A    between atoms: N7_26  and  C16_28 
REMARK   11  A    between atoms: C16_28  and  C17_29 
REMARK   12  A    between atoms: C20_34  and  N9_35 
REMARK   13  A    between atoms: N9_35  and  C21_36 
REMARK   14  A    between atoms: C21_36  and  C22_37 
REMARK   15  A    between atoms: C22_37  and  C23_38 
REMARK   16  A    between atoms: C23_38  and  C24_39 
REMARK   17  A    between atoms: C24_39  and  N10_40 
REMARK       I    between atoms: N10_40  and  C25_42 
REMARK   18  A    between atoms: C25_42  and  C26_44 
REMARK   19  A    between atoms: C26_44  and  C27_45 
ROOT
HETATM    1  C4  UNL     1      31.189  29.247  20.612  1.00  0.00     0.684 A 
HETATM    2  N2  UNL     1      32.146  29.163  21.547  1.00  0.00    -0.174 N 
ATOM      3  H2  UNL     1      32.331  29.974  22.138  1.00  0.00     0.186 HD
HETATM    4  C5  UNL     1      32.871  28.042  21.731  1.00  0.00     0.147 A 
HETATM    5  C14 UNL     1      32.654  26.917  20.952  1.00  0.00     0.125 A 
HETATM    6  N6  UNL     1      33.376  25.791  21.129  1.00  0.00    -0.186 N 
ATOM      7  H6  UNL     1      34.095  25.769  21.853  1.00  0.00     0.184 HD
HETATM    8  C15 UNL     1      33.172  24.699  20.375  1.00  0.00     0.681 A 
HETATM    9  N8  UNL     1      32.227  24.766  19.441  1.00  0.00    -0.162 N 
ATOM     10  H8  UNL     1      32.072  23.938  18.866  1.00  0.00     0.187 HD
HETATM   11  C20 UNL     1      31.440  25.878  19.192  1.00  0.00     0.222 A 
HETATM   12  C30 UNL     1      31.677  27.004  19.997  1.00  0.00     0.139 A 
HETATM   13  N11 UNL     1      30.971  28.150  19.845  1.00  0.00    -0.184 N 
ATOM     14  H11 UNL     1      30.248  28.190  19.127  1.00  0.00     0.184 HD
ENDROOT
BRANCH  11  15
HETATM   15  N9  UNL     1      30.614  25.871  18.337  1.00  0.00    -0.401 NA
BRANCH  15  16
HETATM   16  C21 UNL     1      29.897  25.774  17.229  1.00  0.00     0.157 C 
BRANCH  16  17
HETATM   17  C22 UNL     1      28.905  26.795  16.778  1.00  0.00     0.061 C 
BRANCH  17  18
HETATM   18  C23 UNL     1      29.317  28.205  16.639  1.00  0.00     0.026 C 
BRANCH  18  19
HETATM   19  C24 UNL     1      30.561  28.451  15.818  1.00  0.00     0.123 C 
BRANCH  19  20
HETATM   20  N10 UNL     1      31.694  28.673  16.689  1.00  0.00    -0.361 N 
HETATM   21  C25 UNL     1      32.906  27.962  16.550  1.00  0.00     0.217 C 
HETATM   22  O1  UNL     1      32.999  27.097  15.627  1.00  0.00    -0.274 OA
ATOM     23  H10 UNL     1      31.614  29.369  17.431  1.00  0.00     0.162 HD
BRANCH  21  24
HETATM   24  C26 UNL     1      34.044  28.241  17.486  1.00  0.00     0.106 C 
BRANCH  24  25
HETATM   25  C27 UNL     1      33.973  29.687  17.908  1.00  0.00    -0.014 C 
HETATM   26  C28 UNL     1      34.602  30.555  16.812  1.00  0.00     0.010 C 
HETATM   27  C29 UNL     1      34.737  29.897  19.199  1.00  0.00     0.010 C 
ENDBRANCH  24  25
ENDBRANCH  21  24
ENDBRANCH  19  20
ENDBRANCH  18  19
ENDBRANCH  17  18
ENDBRANCH  16  17
ENDBRANCH  15  16
ENDBRANCH  11  15
BRANCH   8  28
HETATM   28  N7  UNL     1      33.853  23.593  20.543  1.00  0.00    -0.226 N 
ATOM     29  H7  UNL     1      33.887  23.197  21.482  1.00  0.00     0.177 HD
BRANCH  28  30
HETATM   30  C16 UNL     1      34.554  22.898  19.499  1.00  0.00     0.142 C 
BRANCH  30  31
HETATM   31  C17 UNL     1      34.878  21.471  19.885  1.00  0.00    -0.004 C 
HETATM   32  C18 UNL     1      34.668  21.246  21.372  1.00  0.00     0.011 C 
HETATM   33  C19 UNL     1      33.982  20.484  19.183  1.00  0.00     0.011 C 
ENDBRANCH  30  31
ENDBRANCH  28  30
ENDBRANCH   8  28
BRANCH   4  34
HETATM   34  N3  UNL     1      33.799  27.956  22.626  1.00  0.00    -0.374 N 
ATOM     35  H3  UNL     1      33.986  27.031  23.013  1.00  0.00     0.161 HD
BRANCH  34  36
HETATM   36  C6  UNL     1      34.587  29.041  23.121  1.00  0.00     0.126 C 
BRANCH  36  37
HETATM   37  C7  UNL     1      36.049  28.925  22.781  1.00  0.00     0.065 C 
BRANCH  37  38
HETATM   38  C8  UNL     1      36.397  27.515  22.347  1.00  0.00     0.069 C 
BRANCH  38  39
HETATM   39  N4  UNL     1      37.027  27.446  21.089  1.00  0.00    -0.351 N 
HETATM   40  C9  UNL     1      37.919  28.466  20.813  1.00  0.00     0.087 C 
HETATM   41  C10 UNL     1      38.729  28.284  19.550  1.00  0.00     0.161 C 
HETATM   42  N5  UNL     1      38.030  27.644  18.503  1.00  0.00    -0.408 N 
HETATM   43  C11 UNL     1      37.662  28.433  17.380  1.00  0.00     0.143 C 
HETATM   44  C12 UNL     1      37.218  26.531  18.814  1.00  0.00     0.161 C 
HETATM   45  C13 UNL     1      36.667  26.450  20.196  1.00  0.00     0.087 C 
ENDBRANCH  38  39
ENDBRANCH  37  38
ENDBRANCH  36  37
ENDBRANCH  34  36
ENDBRANCH   4  34
BRANCH   1  46
HETATM   46  N1  UNL     1      30.500  30.348  20.417  1.00  0.00    -0.205 N 
ATOM     47  H1  UNL     1      30.138  30.810  21.251  1.00  0.00     0.183 HD
BRANCH  46  48
HETATM   48  C3  UNL     1      30.207  30.960  19.188  1.00  0.00     0.078 C 
BRANCH  48  49
HETATM   49  C2  UNL     1      31.225  32.010  18.749  1.00  0.00     0.040 C 
HETATM   50  C1  UNL     1      31.069  32.136  17.234  1.00  0.00     0.010 C 
ENDBRANCH  48  49
ENDBRANCH  46  48
ENDBRANCH   1  46
TORSDOF 19
ENDMDL
MODEL 2
REMARK VINA RESULT: -5.725197335      2.322      3.663
REMARK  19 active torsions:
REMARK  status: ('A' for Active; 'I' for Inactive)
REMARK    1  A    between atoms: C2_2  and  C3_3 
REMARK    2  A    between atoms: C3_3  and  N1_4 
REMARK    3  A    between atoms: N1_4  and  C4_6 
REMARK    4  A    between atoms: C5_9  and  N3_10 
REMARK    5  A    between atoms: N3_10  and  C6_12 
REMARK    6  A    between atoms: C6_12  and  C7_13 
REMARK    7  A    between atoms: C7_13  and  C8_14 
REMARK    8  A    between atoms: C8_14  and  N4_15 
REMARK    9  A    between atoms: C15_25  and  N7_26 
REMARK   10  A    between atoms: N7_26  and  C16_28 
REMARK   11  A    between atoms: C16_28  and  C17_29 
REMARK   12  A    between atoms: C20_34  and  N9_35 
REMARK   13  A    between atoms: N9_35  and  C21_36 
REMARK   14  A    between atoms: C21_36  and  C22_37 
REMARK   15  A    between atoms: C22_37  and  C23_38 
REMARK   16  A    between atoms: C23_38  and  C24_39 
REMARK   17  A    between atoms: C24_39  and  N10_40 
REMARK       I    between atoms: N10_40  and  C25_42 
REMARK   18  A    between atoms: C25_42  and  C26_44 
REMARK   19  A    between atoms: C26_44  and  C27_45 
ROOT
HETATM    1  C4  UNL     1      31.601  29.513  20.535  1.00  0.00     0.684 A 
HETATM    2  N2  UNL     1      32.444  29.295  21.555  1.00  0.00    -0.174 N 
ATOM      3  H2  UNL     1      32.677  30.069  22.177  1.00  0.00     0.186 HD
HETATM    4  C5  UNL     1      32.993  28.085  21.783  1.00  0.00     0.147 A 
HETATM    5  C14 UNL     1      32.705  27.006  20.965  1.00  0.00     0.125 A 
HETATM    6  N6  UNL     1      33.252  25.792  21.186  1.00  0.00    -0.186 N 
ATOM      7  H6  UNL     1      33.888  25.669  21.974  1.00  0.00     0.184 HD
HETATM    8  C15 UNL     1      32.977  24.743  20.394  1.00  0.00     0.681 A 
HETATM    9  N8  UNL     1      32.144  24.942  19.377  1.00  0.00    -0.162 N 
ATOM     10  H8  UNL     1      31.937  24.146  18.774  1.00  0.00     0.187 HD
HETATM   11  C20 UNL     1      31.539  26.151  19.077  1.00  0.00     0.222 A 
HETATM   12  C30 UNL     1      31.844  27.230  19.924  1.00  0.00     0.139 A 
HETATM   13  N11 UNL     1      31.314  28.461  19.730  1.00  0.00    -0.184 N 
ATOM     14  H11 UNL     1      30.675  28.603  18.948  1.00  0.00     0.184 HD
ENDROOT
BRANCH  11  15
HETATM   15  N9  UNL     1      30.805  26.261  18.149  1.00  0.00    -0.401 NA
BRANCH  15  16
HETATM   16  C21 UNL     1      29.823  26.498  17.295  1.00  0.00     0.157 C 
BRANCH  16  17
HETATM   17  C22 UNL     1      28.521  27.128  17.664  1.00  0.00     0.061 C 
BRANCH  17  18
HETATM   18  C23 UNL     1      28.131  28.414  17.058  1.00  0.00     0.026 C 
BRANCH  18  19
HETATM   19  C24 UNL     1      28.440  29.649  17.872  1.00  0.00     0.123 C 
BRANCH  19  20
HETATM   20  N10 UNL     1      27.229  30.158  18.477  1.00  0.00    -0.361 N 
HETATM   21  C25 UNL     1      27.204  30.693  19.783  1.00  0.00     0.217 C 
HETATM   22  O1  UNL     1      28.285  30.724  20.447  1.00  0.00    -0.274 OA
ATOM     23  H10 UNL     1      26.362  30.130  17.941  1.00  0.00     0.162 HD
BRANCH  21  24
HETATM   24  C26 UNL     1      25.915  31.206  20.353  1.00  0.00     0.106 C 
BRANCH  24  25
HETATM   25  C27 UNL     1      25.527  30.333  21.520  1.00  0.00    -0.014 C 
HETATM   26  C28 UNL     1      24.054  29.932  21.370  1.00  0.00     0.010 C 
HETATM   27  C29 UNL     1      25.701  31.085  22.823  1.00  0.00     0.010 C 
ENDBRANCH  24  25
ENDBRANCH  21  24
ENDBRANCH  19  20
ENDBRANCH  18  19
ENDBRANCH  17  18
ENDBRANCH  16  17
ENDBRANCH  15  16
ENDBRANCH  11  15
BRANCH   8  28
HETATM   28  N7  UNL     1      33.487  23.555  20.603  1.00  0.00    -0.226 N 
ATOM     29  H7  UNL     1      33.196  23.056  21.444  1.00  0.00     0.177 HD
BRANCH  28  30
HETATM   30  C16 UNL     1      34.426  22.903  19.733  1.00  0.00     0.142 C 
BRANCH  30  31
HETATM   31  C17 UNL     1      35.409  22.045  20.499  1.00  0.00    -0.004 C 
HETATM   32  C18 UNL     1      36.281  22.892  21.409  1.00  0.00     0.011 C 
HETATM   33  C19 UNL     1      34.710  21.055  21.393  1.00  0.00     0.011 C 
ENDBRANCH  30  31
ENDBRANCH  28  30
ENDBRANCH   8  28
BRANCH   4  34
HETATM   34  N3  UNL     1      33.811  27.870  22.759  1.00  0.00    -0.374 N 
ATOM     35  H3  UNL     1      33.851  26.921  23.131  1.00  0.00     0.161 HD
BRANCH  34  36
HETATM   36  C6  UNL     1      34.666  28.843  23.366  1.00  0.00     0.126 C 
BRANCH  36  37
HETATM   37  C7  UNL     1      36.060  28.854  22.796  1.00  0.00     0.065 C 
BRANCH  37  38
HETATM   38  C8  UNL     1      36.482  27.465  22.361  1.00  0.00     0.069 C 
BRANCH  38  39
HETATM   39  N4  UNL     1      37.037  27.418  21.067  1.00  0.00    -0.351 N 
HETATM   40  C9  UNL     1      37.924  28.434  20.763  1.00  0.00     0.087 C 
HETATM   41  C10 UNL     1      38.657  28.272  19.452  1.00  0.00     0.161 C 
HETATM   42  N5  UNL     1      37.890  27.664  18.432  1.00  0.00    -0.408 N 
HETATM   43  C11 UNL     1      37.468  28.484  17.351  1.00  0.00     0.143 C 
HETATM   44  C12 UNL     1      37.084  26.553  18.765  1.00  0.00     0.161 C 
HETATM   45  C13 UNL     1      36.613  26.447  20.174  1.00  0.00     0.087 C 
ENDBRANCH  38  39
ENDBRANCH  37  38
ENDBRANCH  36  37
ENDBRANCH  34  36
ENDBRANCH   4  34
BRANCH   1  46
HETATM   46  N1  UNL     1      31.085  30.697  20.299  1.00  0.00    -0.205 N 
ATOM     47  H1  UNL     1      30.144  30.862  20.656  1.00  0.00     0.183 HD
BRANCH  46  48
HETATM   48  C3  UNL     1      31.686  31.762  19.610  1.00  0.00     0.078 C 
BRANCH  48  49
HETATM   49  C2  UNL     1      31.135  31.993  18.203  1.00  0.00     0.040 C 
HETATM   50  C1  UNL     1      32.133  31.338  17.251  1.00  0.00     0.010 C 
ENDBRANCH  48  49
ENDBRANCH  46  48
ENDBRANCH   1  46
TORSDOF 19
ENDMDL
MODEL 3
REMARK VINA RESULT: -5.720611465      3.278      5.088
REMARK  19 active torsions:
REMARK  status: ('A' for Active; 'I' for Inactive)
REMARK    1  A    between atoms: C2_2  and  C3_3 
REMARK    2  A    between atoms: C3_3  and  N1_4 
REMARK    3  A    between atoms: N1_4  and  C4_6 
REMARK    4  A    between atoms: C5_9  and  N3_10 
REMARK    5  A    between atoms: N3_10  and  C6_12 
REMARK    6  A    between atoms: C6_12  and  C7_13 
REMARK    7  A    between atoms: C7_13  and  C8_14 
REMARK    8  A    between atoms: C8_14  and  N4_15 
REMARK    9  A    between atoms: C15_25  and  N7_26 
REMARK   10  A    between atoms: N7_26  and  C16_28 
REMARK   11  A    between atoms: C16_28  and  C17_29 
REMARK   12  A    between atoms: C20_34  and  N9_35 
REMARK   13  A    between atoms: N9_35  and  C21_36 
REMARK   14  A    between atoms: C21_36  and  C22_37 
REMARK   15  A    between atoms: C22_37  and  C23_38 
REMARK   16  A    between atoms: C23_38  and  C24_39 
REMARK   17  A    between atoms: C24_39  and  N10_40 
REMARK       I    between atoms: N10_40  and  C25_42 
REMARK   18  A    between atoms: C25_42  and  C26_44 
REMARK   19  A    between atoms: C26_44  and  C27_45 
ROOT
HETATM    1  C4  UNL     1      31.204  29.080  20.559  1.00  0.00     0.684 A 
HETATM    2  N2  UNL     1      32.162  28.999  21.494  1.00  0.00    -0.174 N 
ATOM      3  H2  UNL     1      32.333  29.803  22.098  1.00  0.00     0.186 HD
HETATM    4  C5  UNL     1      32.905  27.887  21.662  1.00  0.00     0.147 A 
HETATM    5  C14 UNL     1      32.707  26.771  20.866  1.00  0.00     0.125 A 
HETATM    6  N6  UNL     1      33.448  25.655  21.026  1.00  0.00    -0.186 N 
ATOM      7  H6  UNL     1      34.167  25.634  21.750  1.00  0.00     0.184 HD
HETATM    8  C15 UNL     1      33.262  24.571  20.256  1.00  0.00     0.681 A 
HETATM    9  N8  UNL     1      32.318  24.636  19.322  1.00  0.00    -0.162 N 
ATOM     10  H8  UNL     1      32.177  23.814  18.735  1.00  0.00     0.187 HD
HETATM   11  C20 UNL     1      31.512  25.738  19.089  1.00  0.00     0.222 A 
HETATM   12  C30 UNL     1      31.729  26.856  19.911  1.00  0.00     0.139 A 
HETATM   13  N11 UNL     1      31.005  27.993  19.777  1.00  0.00    -0.184 N 
ATOM     14  H11 UNL     1      30.281  28.031  19.058  1.00  0.00     0.184 HD
ENDROOT
BRANCH  11  15
HETATM   15  N9  UNL     1      30.687  25.730  18.233  1.00  0.00    -0.401 NA
BRANCH  15  16
HETATM   16  C21 UNL     1      29.775  25.454  17.316  1.00  0.00     0.157 C 
BRANCH  16  17
HETATM   17  C22 UNL     1      28.535  24.664  17.574  1.00  0.00     0.061 C 
BRANCH  17  18
HETATM   18  C23 UNL     1      27.459  25.242  18.401  1.00  0.00     0.026 C 
BRANCH  18  19
HETATM   19  C24 UNL     1      26.268  24.348  18.654  1.00  0.00     0.123 C 
BRANCH  19  20
HETATM   20  N10 UNL     1      26.701  22.976  18.803  1.00  0.00    -0.361 N 
HETATM   21  C25 UNL     1      25.790  21.905  18.929  1.00  0.00     0.217 C 
HETATM   22  O1  UNL     1      24.547  22.161  18.912  1.00  0.00    -0.274 OA
ATOM     23  H10 UNL     1      27.700  22.775  18.818  1.00  0.00     0.162 HD
BRANCH  21  24
HETATM   24  C26 UNL     1      26.303  20.504  19.079  1.00  0.00     0.106 C 
BRANCH  24  25
HETATM   25  C27 UNL     1      25.190  19.547  18.732  1.00  0.00    -0.014 C 
HETATM   26  C28 UNL     1      25.218  18.376  19.722  1.00  0.00     0.010 C 
HETATM   27  C29 UNL     1      25.375  19.010  17.329  1.00  0.00     0.010 C 
ENDBRANCH  24  25
ENDBRANCH  21  24
ENDBRANCH  19  20
ENDBRANCH  18  19
ENDBRANCH  17  18
ENDBRANCH  16  17
ENDBRANCH  15  16
ENDBRANCH  11  15
BRANCH   8  28
HETATM   28  N7  UNL     1      33.962  23.474  20.407  1.00  0.00    -0.226 N 
ATOM     29  H7  UNL     1      34.405  23.317  21.312  1.00  0.00     0.177 HD
BRANCH  28  30
HETATM   30  C16 UNL     1      34.150  22.477  19.390  1.00  0.00     0.142 C 
BRANCH  30  31
HETATM   31  C17 UNL     1      34.691  21.182  19.958  1.00  0.00    -0.004 C 
HETATM   32  C18 UNL     1      34.741  21.228  21.474  1.00  0.00     0.011 C 
HETATM   33  C19 UNL     1      33.816  20.008  19.604  1.00  0.00     0.011 C 
ENDBRANCH  30  31
ENDBRANCH  28  30
ENDBRANCH   8  28
BRANCH   4  34
HETATM   34  N3  UNL     1      33.834  27.803  22.556  1.00  0.00    -0.374 N 
ATOM     35  H3  UNL     1      34.087  26.869  22.876  1.00  0.00     0.161 HD
BRANCH  34  36
HETATM   36  C6  UNL     1      34.539  28.904  23.136  1.00  0.00     0.126 C 
BRANCH  36  37
HETATM   37  C7  UNL     1      36.000  28.939  22.771  1.00  0.00     0.065 C 
BRANCH  37  38
HETATM   38  C8  UNL     1      36.505  27.556  22.411  1.00  0.00     0.069 C 
BRANCH  38  39
HETATM   39  N4  UNL     1      37.094  27.480  21.134  1.00  0.00    -0.351 N 
HETATM   40  C9  UNL     1      37.959  28.511  20.815  1.00  0.00     0.087 C 
HETATM   41  C10 UNL     1      38.729  28.325  19.528  1.00  0.00     0.161 C 
HETATM   42  N5  UNL     1      38.006  27.660  18.513  1.00  0.00    -0.408 N 
HETATM   43  C11 UNL     1      37.589  28.427  17.393  1.00  0.00     0.143 C 
HETATM   44  C12 UNL     1      37.224  26.537  18.866  1.00  0.00     0.161 C 
HETATM   45  C13 UNL     1      36.721  26.467  20.266  1.00  0.00     0.087 C 
ENDBRANCH  38  39
ENDBRANCH  37  38
ENDBRANCH  36  37
ENDBRANCH  34  36
ENDBRANCH   4  34
BRANCH   1  46
HETATM   46  N1  UNL     1      30.497  30.173  20.381  1.00  0.00    -0.205 N 
ATOM     47  H1  UNL     1      30.013  30.539  21.201  1.00  0.00     0.183 HD
BRANCH  46  48
HETATM   48  C3  UNL     1      30.333  30.892  19.187  1.00  0.00     0.078 C 
BRANCH  48  49
HETATM   49  C2  UNL     1      31.438  31.909  18.907  1.00  0.00     0.040 C 
HETATM   50  C1  UNL     1      32.320  31.281  17.829  1.00  0.00     0.010 C 
ENDBRANCH  48  49
ENDBRANCH  46  48
ENDBRANCH   1  46
TORSDOF 19
ENDMDL
MODEL 4
REMARK VINA RESULT: -5.696439432      3.253      4.581
REMARK  19 active torsions:
REMARK  status: ('A' for Active; 'I' for Inactive)
REMARK    1  A    between atoms: C2_2  and  C3_3 
REMARK    2  A    between atoms: C3_3  and  N1_4 
REMARK    3  A    between atoms: N1_4  and  C4_6 
REMARK    4  A    between atoms: C5_9  and  N3_10 
REMARK    5  A    between atoms: N3_10  and  C6_12 
REMARK    6  A    between atoms: C6_12  and  C7_13 
REMARK    7  A    between atoms: C7_13  and  C8_14 
REMARK    8  A    between atoms: C8_14  and  N4_15 
REMARK    9  A    between atoms: C15_25  and  N7_26 
REMARK   10  A    between atoms: N7_26  and  C16_28 
REMARK   11  A    between atoms: C16_28  and  C17_29 
REMARK   12  A    between atoms: C20_34  and  N9_35 
REMARK   13  A    between atoms: N9_35  and  C21_36 
REMARK   14  A    between atoms: C21_36  and  C22_37 
REMARK   15  A    between atoms: C22_37  and  C23_38 
REMARK   16  A    between atoms: C23_38  and  C24_39 
REMARK   17  A    between atoms: C24_39  and  N10_40 
REMARK       I    between atoms: N10_40  and  C25_42 
REMARK   18  A    between atoms: C25_42  and  C26_44 
REMARK   19  A    between atoms: C26_44  and  C27_45 
ROOT
HETATM    1  C4  UNL     1      31.116  29.281  20.600  1.00  0.00     0.684 A 
HETATM    2  N2  UNL     1      32.163  29.227  21.436  1.00  0.00    -0.174 N 
ATOM      3  H2  UNL     1      32.402  30.055  21.982  1.00  0.00     0.186 HD
HETATM    4  C5  UNL     1      32.908  28.113  21.577  1.00  0.00     0.147 A 
HETATM    5  C14 UNL     1      32.619  26.967  20.856  1.00  0.00     0.125 A 
HETATM    6  N6  UNL     1      33.362  25.848  20.991  1.00  0.00    -0.186 N 
ATOM      7  H6  UNL     1      34.150  25.848  21.639  1.00  0.00     0.184 HD
HETATM    8  C15 UNL     1      33.088  24.734  20.292  1.00  0.00     0.681 A 
HETATM    9  N8  UNL     1      32.054  24.772  19.457  1.00  0.00    -0.162 N 
ATOM     10  H8  UNL     1      31.846  23.927  18.925  1.00  0.00     0.187 HD
HETATM   11  C20 UNL     1      31.240  25.874  19.257  1.00  0.00     0.222 A 
HETATM   12  C30 UNL     1      31.550  27.023  20.002  1.00  0.00     0.139 A 
HETATM   13  N11 UNL     1      30.827  28.163  19.891  1.00  0.00    -0.184 N 
ATOM     14  H11 UNL     1      30.035  28.181  19.248  1.00  0.00     0.184 HD
ENDROOT
BRANCH  11  15
HETATM   15  N9  UNL     1      30.332  25.841  18.491  1.00  0.00    -0.401 NA
BRANCH  15  16
HETATM   16  C21 UNL     1      29.398  25.547  17.601  1.00  0.00     0.157 C 
BRANCH  16  17
HETATM   17  C22 UNL     1      28.125  24.834  17.922  1.00  0.00     0.061 C 
BRANCH  17  18
HETATM   18  C23 UNL     1      26.867  25.596  18.030  1.00  0.00     0.026 C 
BRANCH  18  19
HETATM   19  C24 UNL     1      26.084  25.401  19.307  1.00  0.00     0.123 C 
BRANCH  19  20
HETATM   20  N10 UNL     1      25.304  26.584  19.595  1.00  0.00    -0.361 N 
HETATM   21  C25 UNL     1      24.683  26.795  20.845  1.00  0.00     0.217 C 
HETATM   22  O1  UNL     1      24.815  25.911  21.745  1.00  0.00    -0.274 OA
ATOM     23  H10 UNL     1      25.198  27.292  18.868  1.00  0.00     0.162 HD
BRANCH  21  24
HETATM   24  C26 UNL     1      23.888  28.045  21.081  1.00  0.00     0.106 C 
BRANCH  24  25
HETATM   25  C27 UNL     1      23.721  28.232  22.568  1.00  0.00    -0.014 C 
HETATM   26  C28 UNL     1      22.255  27.979  22.938  1.00  0.00     0.010 C 
HETATM   27  C29 UNL     1      24.092  29.645  22.966  1.00  0.00     0.010 C 
ENDBRANCH  24  25
ENDBRANCH  21  24
ENDBRANCH  19  20
ENDBRANCH  18  19
ENDBRANCH  17  18
ENDBRANCH  16  17
ENDBRANCH  15  16
ENDBRANCH  11  15
BRANCH   8  28
HETATM   28  N7  UNL     1      33.788  23.635  20.421  1.00  0.00    -0.226 N 
ATOM     29  H7  UNL     1      34.051  23.349  21.365  1.00  0.00     0.177 HD
BRANCH  28  30
HETATM   30  C16 UNL     1      34.213  22.803  19.330  1.00  0.00     0.142 C 
BRANCH  30  31
HETATM   31  C17 UNL     1      34.744  21.468  19.807  1.00  0.00    -0.004 C 
HETATM   32  C18 UNL     1      34.780  21.404  21.323  1.00  0.00     0.011 C 
HETATM   33  C19 UNL     1      33.869  20.326  19.362  1.00  0.00     0.011 C 
ENDBRANCH  30  31
ENDBRANCH  28  30
ENDBRANCH   8  28
BRANCH   4  34
HETATM   34  N3  UNL     1      33.922  28.055  22.375  1.00  0.00    -0.374 N 
ATOM     35  H3  UNL     1      34.132  27.149  22.793  1.00  0.00     0.161 HD
BRANCH  34  36
HETATM   36  C6  UNL     1      34.775  29.148  22.726  1.00  0.00     0.126 C 
BRANCH  36  37
HETATM   37  C7  UNL     1      36.227  28.763  22.838  1.00  0.00     0.065 C 
BRANCH  37  38
HETATM   38  C8  UNL     1      36.468  27.376  22.276  1.00  0.00     0.069 C 
BRANCH  38  39
HETATM   39  N4  UNL     1      37.062  27.374  21.000  1.00  0.00    -0.351 N 
HETATM   40  C9  UNL     1      37.902  28.440  20.734  1.00  0.00     0.087 C 
HETATM   41  C10 UNL     1      38.681  28.334  19.443  1.00  0.00     0.161 C 
HETATM   42  N5  UNL     1      37.980  27.698  18.395  1.00  0.00    -0.408 N 
HETATM   43  C11 UNL     1      37.546  28.506  17.309  1.00  0.00     0.143 C 
HETATM   44  C12 UNL     1      37.225  26.541  18.692  1.00  0.00     0.161 C 
HETATM   45  C13 UNL     1      36.719  26.393  20.085  1.00  0.00     0.087 C 
ENDBRANCH  38  39
ENDBRANCH  37  38
ENDBRANCH  36  37
ENDBRANCH  34  36
ENDBRANCH   4  34
BRANCH   1  46
HETATM   46  N1  UNL     1      30.405  30.375  20.444  1.00  0.00    -0.205 N 
ATOM     47  H1  UNL     1      29.995  30.774  21.289  1.00  0.00     0.183 HD
BRANCH  46  48
HETATM   48  C3  UNL     1      30.146  31.056  19.245  1.00  0.00     0.078 C 
BRANCH  48  49
HETATM   49  C2  UNL     1      31.240  32.039  18.830  1.00  0.00     0.040 C 
HETATM   50  C1  UNL     1      31.949  31.396  17.640  1.00  0.00     0.010 C 
ENDBRANCH  48  49
ENDBRANCH  46  48
ENDBRANCH   1  46
TORSDOF 19
ENDMDL
MODEL 5
REMARK VINA RESULT: -5.579683112      4.015      8.501
REMARK  19 active torsions:
REMARK  status: ('A' for Active; 'I' for Inactive)
REMARK    1  A    between atoms: C2_2  and  C3_3 
REMARK    2  A    between atoms: C3_3  and  N1_4 
REMARK    3  A    between atoms: N1_4  and  C4_6 
REMARK    4  A    between atoms: C5_9  and  N3_10 
REMARK    5  A    between atoms: N3_10  and  C6_12 
REMARK    6  A    between atoms: C6_12  and  C7_13 
REMARK    7  A    between atoms: C7_13  and  C8_14 
REMARK    8  A    between atoms: C8_14  and  N4_15 
REMARK    9  A    between atoms: C15_25  and  N7_26 
REMARK   10  A    between atoms: N7_26  and  C16_28 
REMARK   11  A    between atoms: C16_28  and  C17_29 
REMARK   12  A    between atoms: C20_34  and  N9_35 
REMARK   13  A    between atoms: N9_35  and  C21_36 
REMARK   14  A    between atoms: C21_36  and  C22_37 
REMARK   15  A    between atoms: C22_37  and  C23_38 
REMARK   16  A    between atoms: C23_38  and  C24_39 
REMARK   17  A    between atoms: C24_39  and  N10_40 
REMARK       I    between atoms: N10_40  and  C25_42 
REMARK   18  A    between atoms: C25_42  and  C26_44 
REMARK   19  A    between atoms: C26_44  and  C27_45 
ROOT
HETATM    1  C4  UNL     1      30.625  31.511  17.348  1.00  0.00     0.684 A 
HETATM    2  N2  UNL     1      29.669  31.324  18.270  1.00  0.00    -0.174 N 
ATOM      3  H2  UNL     1      28.722  31.647  18.071  1.00  0.00     0.186 HD
HETATM    4  C5  UNL     1      29.921  30.722  19.449  1.00  0.00     0.147 A 
HETATM    5  C14 UNL     1      31.191  30.267  19.761  1.00  0.00     0.125 A 
HETATM    6  N6  UNL     1      31.451  29.665  20.940  1.00  0.00    -0.186 N 
ATOM      7  H6  UNL     1      30.694  29.541  21.613  1.00  0.00     0.184 HD
HETATM    8  C15 UNL     1      32.681  29.225  21.248  1.00  0.00     0.681 A 
HETATM    9  N8  UNL     1      33.642  29.404  20.346  1.00  0.00    -0.162 N 
ATOM     10  H8  UNL     1      34.577  29.071  20.579  1.00  0.00     0.187 HD
HETATM   11  C20 UNL     1      33.464  30.010  19.113  1.00  0.00     0.222 A 
HETATM   12  C30 UNL     1      32.167  30.460  18.819  1.00  0.00     0.139 A 
HETATM   13  N11 UNL     1      31.871  31.069  17.646  1.00  0.00    -0.184 N 
ATOM     14  H11 UNL     1      32.615  31.200  16.960  1.00  0.00     0.184 HD
ENDROOT
BRANCH  11  15
HETATM   15  N9  UNL     1      34.369  30.142  18.354  1.00  0.00    -0.401 NA
BRANCH  15  16
HETATM   16  C21 UNL     1      35.420  30.027  17.558  1.00  0.00     0.157 C 
BRANCH  16  17
HETATM   17  C22 UNL     1      36.787  29.645  18.020  1.00  0.00     0.061 C 
BRANCH  17  18
HETATM   18  C23 UNL     1      37.211  28.233  17.964  1.00  0.00     0.026 C 
BRANCH  18  19
HETATM   19  C24 UNL     1      37.066  27.448  19.247  1.00  0.00     0.123 C 
BRANCH  19  20
HETATM   20  N10 UNL     1      36.474  26.157  18.973  1.00  0.00    -0.361 N 
HETATM   21  C25 UNL     1      36.600  25.065  19.859  1.00  0.00     0.217 C 
HETATM   22  O1  UNL     1      37.260  25.226  20.930  1.00  0.00    -0.274 OA
ATOM     23  H10 UNL     1      35.946  26.032  18.110  1.00  0.00     0.162 HD
BRANCH  21  24
HETATM   24  C26 UNL     1      35.961  23.752  19.518  1.00  0.00     0.106 C 
BRANCH  24  25
HETATM   25  C27 UNL     1      35.096  23.326  20.678  1.00  0.00    -0.014 C 
HETATM   26  C28 UNL     1      35.164  21.800  20.811  1.00  0.00     0.010 C 
HETATM   27  C29 UNL     1      33.657  23.735  20.441  1.00  0.00     0.010 C 
ENDBRANCH  24  25
ENDBRANCH  21  24
ENDBRANCH  19  20
ENDBRANCH  18  19
ENDBRANCH  17  18
ENDBRANCH  16  17
ENDBRANCH  15  16
ENDBRANCH  11  15
BRANCH   8  28
HETATM   28  N7  UNL     1      32.948  28.624  22.381  1.00  0.00    -0.226 N 
ATOM     29  H7  UNL     1      32.343  27.853  22.662  1.00  0.00     0.177 HD
BRANCH  28  30
HETATM   30  C16 UNL     1      34.033  28.974  23.256  1.00  0.00     0.142 C 
BRANCH  30  31
HETATM   31  C17 UNL     1      35.016  27.835  23.424  1.00  0.00    -0.004 C 
HETATM   32  C18 UNL     1      34.564  26.605  22.660  1.00  0.00     0.011 C 
HETATM   33  C19 UNL     1      36.377  28.187  22.883  1.00  0.00     0.011 C 
ENDBRANCH  30  31
ENDBRANCH  28  30
ENDBRANCH   8  28
BRANCH   4  34
HETATM   34  N3  UNL     1      29.006  30.544  20.344  1.00  0.00    -0.374 N 
ATOM     35  H3  UNL     1      29.245  29.954  21.140  1.00  0.00     0.161 HD
BRANCH  34  36
HETATM   36  C6  UNL     1      27.690  31.101  20.318  1.00  0.00     0.126 C 
BRANCH  36  37
HETATM   37  C7  UNL     1      26.844  30.698  21.498  1.00  0.00     0.065 C 
BRANCH  37  38
HETATM   38  C8  UNL     1      25.584  29.986  21.047  1.00  0.00     0.069 C 
BRANCH  38  39
HETATM   39  N4  UNL     1      24.632  29.812  22.070  1.00  0.00    -0.351 N 
HETATM   40  C9  UNL     1      23.989  28.588  22.082  1.00  0.00     0.087 C 
HETATM   41  C10 UNL     1      23.113  28.337  23.287  1.00  0.00     0.161 C 
HETATM   42  N5  UNL     1      22.463  29.490  23.779  1.00  0.00    -0.408 N 
HETATM   43  C11 UNL     1      21.058  29.584  23.589  1.00  0.00     0.143 C 
HETATM   44  C12 UNL     1      23.194  30.696  23.859  1.00  0.00     0.161 C 
HETATM   45  C13 UNL     1      24.338  30.866  22.920  1.00  0.00     0.087 C 
ENDBRANCH  38  39
ENDBRANCH  37  38
ENDBRANCH  36  37
ENDBRANCH  34  36
ENDBRANCH   4  34
BRANCH   1  46
HETATM   46  N1  UNL     1      30.385  32.120  16.209  1.00  0.00    -0.205 N 
ATOM     47  H1  UNL     1      29.711  31.672  15.589  1.00  0.00     0.183 HD
BRANCH  46  48
HETATM   48  C3  UNL     1      30.953  33.319  15.751  1.00  0.00     0.078 C 
BRANCH  48  49
HETATM   49  C2  UNL     1      29.965  34.262  15.067  1.00  0.00     0.040 C 
HETATM   50  C1  UNL     1      30.339  35.668  15.534  1.00  0.00     0.010 C 
ENDBRANCH  48  49
ENDBRANCH  46  48
ENDBRANCH   1  46
TORSDOF 19
ENDMDL
