MODEL 1
REMARK VINA RESULT: -7.218047757      0.000      0.000
REMARK  6 active torsions:
REMARK  status: ('A' for Active; 'I' for Inactive)
REMARK    1  A    between atoms: O1_2  and  N1_3 
REMARK       I    between atoms: N1_3  and  C2_5 
REMARK    2  A    between atoms: C2_5  and  C3_7 
REMARK    3  A    between atoms: C3_7  and  C4_8 
REMARK    4  A    between atoms: C4_8  and  C5_9 
REMARK    5  A    between atoms: C5_9  and  O3_10 
REMARK    6  A    between atoms: C16_22  and  O4_23 
ROOT
HETATM    1  C4  UNL     1      36.230  23.039  19.934  1.00  0.00     0.011 C 
HETATM    2  C6  UNL     1      36.018  23.177  18.449  1.00  0.00    -0.004 C 
HETATM    3  C7  UNL     1      36.449  22.015  17.621  1.00  0.00     0.011 C 
HETATM    4  C8  UNL     1      36.731  24.408  17.958  1.00  0.00     0.006 C 
HETATM    5  C9  UNL     1      36.642  25.634  18.766  1.00  0.00     0.006 C 
HETATM    6  C10 UNL     1      36.328  25.533  20.220  1.00  0.00    -0.001 C 
HETATM    7  C11 UNL     1      35.509  24.227  20.491  1.00  0.00     0.005 C 
HETATM    8  C12 UNL     1      34.205  24.599  19.916  1.00  0.00     0.006 C 
HETATM    9  C13 UNL     1      33.476  25.492  20.936  1.00  0.00     0.006 C 
HETATM   10  C14 UNL     1      34.458  26.328  21.651  1.00  0.00    -0.004 C 
HETATM   11  C15 UNL     1      33.741  27.533  22.204  1.00  0.00     0.037 C 
HETATM   12  C16 UNL     1      34.639  28.421  23.029  1.00  0.00     0.118 C 
HETATM   13  C17 UNL     1      35.992  28.649  22.425  1.00  0.00     0.032 C 
HETATM   14  C18 UNL     1      36.579  27.417  21.852  1.00  0.00     0.012 C 
HETATM   15  C19 UNL     1      35.665  26.739  20.805  1.00  0.00    -0.036 C 
HETATM   16  C20 UNL     1      35.351  27.836  19.857  1.00  0.00     0.016 C 
ENDROOT
BRANCH   1  17
HETATM   17  C3  UNL     1      35.994  21.746  20.559  1.00  0.00     0.062 C 
BRANCH  17  18
HETATM   18  C2  UNL     1      34.835  20.968  20.678  1.00  0.00     0.261 C 
HETATM   19  N1  UNL     1      34.474  20.083  19.592  1.00  0.00    -0.232 N 
ATOM     20  H1  UNL     1      35.064  20.031  18.760  1.00  0.00     0.197 HD
HETATM   21  O2  UNL     1      34.048  20.955  21.650  1.00  0.00    -0.267 OA
BRANCH  19  22
HETATM   22  O1  UNL     1      33.390  19.345  19.672  1.00  0.00    -0.282 OA
HETATM   23  C1  UNL     1      32.818  18.995  18.466  1.00  0.00     0.237 C 
ENDBRANCH  19  22
ENDBRANCH  17  18
ENDBRANCH   1  17
BRANCH   1  24
HETATM   24  C5  UNL     1      37.754  23.157  20.113  1.00  0.00     0.178 C 
BRANCH  24  25
HETATM   25  O3  UNL     1      38.084  22.884  21.467  1.00  0.00    -0.400 OA
ATOM     26  H3  UNL     1      38.990  23.126  21.621  1.00  0.00     0.209 HD
ENDBRANCH  24  25
ENDBRANCH   1  24
BRANCH  12  27
HETATM   27  O4  UNL     1      34.779  27.886  24.296  1.00  0.00    -0.396 OA
ATOM     28  H4  UNL     1      34.121  28.257  24.872  1.00  0.00     0.210 HD
ENDBRANCH  12  27
TORSDOF 6
ENDMDL
MODEL 2
REMARK VINA RESULT: -7.194887904      3.417      5.436
REMARK  6 active torsions:
REMARK  status: ('A' for Active; 'I' for Inactive)
REMARK    1  A    between atoms: O1_2  and  N1_3 
REMARK       I    between atoms: N1_3  and  C2_5 
REMARK    2  A    between atoms: C2_5  and  C3_7 
REMARK    3  A    between atoms: C3_7  and  C4_8 
REMARK    4  A    between atoms: C4_8  and  C5_9 
REMARK    5  A    between atoms: C5_9  and  O3_10 
REMARK    6  A    between atoms: C16_22  and  O4_23 
ROOT
HETATM    1  C4  UNL     1      35.865  28.292  20.954  1.00  0.00     0.011 C 
HETATM    2  C6  UNL     1      36.822  28.100  19.806  1.00  0.00    -0.004 C 
HETATM    3  C7  UNL     1      38.210  27.705  20.177  1.00  0.00     0.011 C 
HETATM    4  C8  UNL     1      36.882  29.366  18.993  1.00  0.00     0.006 C 
HETATM    5  C9  UNL     1      35.624  30.072  18.709  1.00  0.00     0.006 C 
HETATM    6  C10 UNL     1      34.446  29.860  19.598  1.00  0.00    -0.001 C 
HETATM    7  C11 UNL     1      34.542  28.450  20.270  1.00  0.00     0.005 C 
HETATM    8  C12 UNL     1      34.228  27.580  19.124  1.00  0.00     0.006 C 
HETATM    9  C13 UNL     1      32.702  27.589  18.928  1.00  0.00     0.006 C 
HETATM   10  C14 UNL     1      32.169  28.922  19.267  1.00  0.00    -0.004 C 
HETATM   11  C15 UNL     1      30.842  29.093  18.572  1.00  0.00     0.037 C 
HETATM   12  C16 UNL     1      30.164  30.396  18.917  1.00  0.00     0.118 C 
HETATM   13  C17 UNL     1      31.087  31.578  18.929  1.00  0.00     0.032 C 
HETATM   14  C18 UNL     1      32.386  31.285  19.574  1.00  0.00     0.012 C 
HETATM   15  C19 UNL     1      33.119  30.077  18.945  1.00  0.00    -0.036 C 
HETATM   16  C20 UNL     1      33.148  30.406  17.499  1.00  0.00     0.016 C 
ENDROOT
BRANCH   1  17
HETATM   17  C3  UNL     1      35.940  27.383  22.088  1.00  0.00     0.062 C 
BRANCH  17  18
HETATM   18  C2  UNL     1      35.535  26.051  22.241  1.00  0.00     0.261 C 
HETATM   19  N1  UNL     1      35.987  25.070  21.279  1.00  0.00    -0.232 N 
ATOM     20  H1  UNL     1      36.595  25.353  20.510  1.00  0.00     0.197 HD
HETATM   21  O2  UNL     1      34.797  25.599  23.145  1.00  0.00    -0.267 OA
BRANCH  19  22
HETATM   22  O1  UNL     1      35.619  23.813  21.394  1.00  0.00    -0.282 OA
HETATM   23  C1  UNL     1      36.646  22.892  21.414  1.00  0.00     0.237 C 
ENDBRANCH  19  22
ENDBRANCH  17  18
ENDBRANCH   1  17
BRANCH   1  24
HETATM   24  C5  UNL     1      36.327  29.601  21.619  1.00  0.00     0.178 C 
BRANCH  24  25
HETATM   25  O3  UNL     1      35.958  29.579  22.990  1.00  0.00    -0.400 OA
ATOM     26  H3  UNL     1      35.052  29.854  23.072  1.00  0.00     0.209 HD
ENDBRANCH  24  25
ENDBRANCH   1  24
BRANCH  12  27
HETATM   27  O4  UNL     1      29.540  30.281  20.144  1.00  0.00    -0.396 OA
ATOM     28  H4  UNL     1      29.300  31.144  20.461  1.00  0.00     0.210 HD
ENDBRANCH  12  27
TORSDOF 6
ENDMDL
MODEL 3
REMARK VINA RESULT: -7.141814838      4.040      6.740
REMARK  6 active torsions:
REMARK  status: ('A' for Active; 'I' for Inactive)
REMARK    1  A    between atoms: O1_2  and  N1_3 
REMARK       I    between atoms: N1_3  and  C2_5 
REMARK    2  A    between atoms: C2_5  and  C3_7 
REMARK    3  A    between atoms: C3_7  and  C4_8 
REMARK    4  A    between atoms: C4_8  and  C5_9 
REMARK    5  A    between atoms: C5_9  and  O3_10 
REMARK    6  A    between atoms: C16_22  and  O4_23 
ROOT
HETATM    1  C4  UNL     1      34.824  27.219  21.114  1.00  0.00     0.011 C 
HETATM    2  C6  UNL     1      34.904  27.912  22.449  1.00  0.00    -0.004 C 
HETATM    3  C7  UNL     1      35.523  27.125  23.553  1.00  0.00     0.011 C 
HETATM    4  C8  UNL     1      33.522  28.333  22.873  1.00  0.00     0.006 C 
HETATM    5  C9  UNL     1      32.632  28.923  21.862  1.00  0.00     0.006 C 
HETATM    6  C10 UNL     1      32.870  28.637  20.418  1.00  0.00    -0.001 C 
HETATM    7  C11 UNL     1      34.384  28.312  20.190  1.00  0.00     0.005 C 
HETATM    8  C12 UNL     1      34.976  29.652  20.344  1.00  0.00     0.006 C 
HETATM    9  C13 UNL     1      34.751  30.422  19.031  1.00  0.00     0.006 C 
HETATM   10  C14 UNL     1      33.454  30.032  18.447  1.00  0.00    -0.004 C 
HETATM   11  C15 UNL     1      32.999  31.134  17.525  1.00  0.00     0.037 C 
HETATM   12  C16 UNL     1      31.716  30.803  16.804  1.00  0.00     0.118 C 
HETATM   13  C17 UNL     1      30.674  30.168  17.677  1.00  0.00     0.032 C 
HETATM   14  C18 UNL     1      31.235  29.149  18.591  1.00  0.00     0.012 C 
HETATM   15  C19 UNL     1      32.378  29.691  19.480  1.00  0.00    -0.036 C 
HETATM   16  C20 UNL     1      31.785  30.898  20.106  1.00  0.00     0.016 C 
ENDROOT
BRANCH   1  17
HETATM   17  C3  UNL     1      35.935  26.378  20.692  1.00  0.00     0.062 C 
BRANCH  17  18
HETATM   18  C2  UNL     1      37.266  26.684  20.381  1.00  0.00     0.261 C 
HETATM   19  N1  UNL     1      37.872  27.853  20.980  1.00  0.00    -0.232 N 
ATOM     20  H1  UNL     1      37.331  28.435  21.619  1.00  0.00     0.197 HD
HETATM   21  O2  UNL     1      38.015  26.038  19.614  1.00  0.00    -0.267 OA
BRANCH  19  22
HETATM   22  O1  UNL     1      39.117  28.168  20.703  1.00  0.00    -0.282 OA
HETATM   23  C1  UNL     1      39.767  28.923  21.658  1.00  0.00     0.237 C 
ENDBRANCH  19  22
ENDBRANCH  17  18
ENDBRANCH   1  17
BRANCH   1  24
HETATM   24  C5  UNL     1      33.729  26.153  21.303  1.00  0.00     0.178 C 
BRANCH  24  25
HETATM   25  O3  UNL     1      34.298  24.866  21.111  1.00  0.00    -0.400 OA
ATOM     26  H3  UNL     1      34.688  24.575  21.927  1.00  0.00     0.209 HD
ENDBRANCH  24  25
ENDBRANCH   1  24
BRANCH  12  27
HETATM   27  O4  UNL     1      31.989  29.977  15.731  1.00  0.00    -0.396 OA
ATOM     28  H4  UNL     1      31.294  30.052  15.087  1.00  0.00     0.210 HD
ENDBRANCH  12  27
TORSDOF 6
ENDMDL
MODEL 4
REMARK VINA RESULT: -7.098843367      3.872      6.425
REMARK  6 active torsions:
REMARK  status: ('A' for Active; 'I' for Inactive)
REMARK    1  A    between atoms: O1_2  and  N1_3 
REMARK       I    between atoms: N1_3  and  C2_5 
REMARK    2  A    between atoms: C2_5  and  C3_7 
REMARK    3  A    between atoms: C3_7  and  C4_8 
REMARK    4  A    between atoms: C4_8  and  C5_9 
REMARK    5  A    between atoms: C5_9  and  O3_10 
REMARK    6  A    between atoms: C16_22  and  O4_23 
ROOT
HETATM    1  C4  UNL     1      34.688  27.134  20.983  1.00  0.00     0.011 C 
HETATM    2  C6  UNL     1      34.781  27.806  22.328  1.00  0.00    -0.004 C 
HETATM    3  C7  UNL     1      35.351  26.978  23.429  1.00  0.00     0.011 C 
HETATM    4  C8  UNL     1      33.414  28.282  22.741  1.00  0.00     0.006 C 
HETATM    5  C9  UNL     1      32.564  28.923  21.728  1.00  0.00     0.006 C 
HETATM    6  C10 UNL     1      32.808  28.645  20.283  1.00  0.00    -0.001 C 
HETATM    7  C11 UNL     1      34.309  28.257  20.068  1.00  0.00     0.005 C 
HETATM    8  C12 UNL     1      34.957  29.567  20.248  1.00  0.00     0.006 C 
HETATM    9  C13 UNL     1      34.783  30.364  18.943  1.00  0.00     0.006 C 
HETATM   10  C14 UNL     1      33.478  30.038  18.338  1.00  0.00    -0.004 C 
HETATM   11  C15 UNL     1      33.084  31.172  17.425  1.00  0.00     0.037 C 
HETATM   12  C16 UNL     1      31.797  30.907  16.684  1.00  0.00     0.118 C 
HETATM   13  C17 UNL     1      30.717  30.308  17.536  1.00  0.00     0.032 C 
HETATM   14  C18 UNL     1      31.221  29.252  18.442  1.00  0.00     0.012 C 
HETATM   15  C19 UNL     1      32.375  29.733  19.353  1.00  0.00    -0.036 C 
HETATM   16  C20 UNL     1      31.828  30.957  19.987  1.00  0.00     0.016 C 
ENDROOT
BRANCH   1  17
HETATM   17  C3  UNL     1      35.766  26.250  20.564  1.00  0.00     0.062 C 
BRANCH  17  18
HETATM   18  C2  UNL     1      37.132  26.484  20.356  1.00  0.00     0.261 C 
HETATM   19  N1  UNL     1      37.784  25.851  19.230  1.00  0.00    -0.232 N 
ATOM     20  H1  UNL     1      37.248  25.251  18.603  1.00  0.00     0.197 HD
HETATM   21  O2  UNL     1      37.878  27.200  21.061  1.00  0.00    -0.267 OA
BRANCH  19  22
HETATM   22  O1  UNL     1      39.065  26.047  19.012  1.00  0.00    -0.282 OA
HETATM   23  C1  UNL     1      39.369  27.048  18.112  1.00  0.00     0.237 C 
ENDBRANCH  19  22
ENDBRANCH  17  18
ENDBRANCH   1  17
BRANCH   1  24
HETATM   24  C5  UNL     1      33.545  26.115  21.145  1.00  0.00     0.178 C 
BRANCH  24  25
HETATM   25  O3  UNL     1      34.067  24.804  20.983  1.00  0.00    -0.400 OA
ATOM     26  H3  UNL     1      34.157  24.619  20.055  1.00  0.00     0.209 HD
ENDBRANCH  24  25
ENDBRANCH   1  24
BRANCH  12  27
HETATM   27  O4  UNL     1      32.047  30.083  15.603  1.00  0.00    -0.396 OA
ATOM     28  H4  UNL     1      31.829  30.540  14.799  1.00  0.00     0.210 HD
ENDBRANCH  12  27
TORSDOF 6
ENDMDL
MODEL 5
REMARK VINA RESULT: -7.011277663      4.129      6.364
REMARK  6 active torsions:
REMARK  status: ('A' for Active; 'I' for Inactive)
REMARK    1  A    between atoms: O1_2  and  N1_3 
REMARK       I    between atoms: N1_3  and  C2_5 
REMARK    2  A    between atoms: C2_5  and  C3_7 
REMARK    3  A    between atoms: C3_7  and  C4_8 
REMARK    4  A    between atoms: C4_8  and  C5_9 
REMARK    5  A    between atoms: C5_9  and  O3_10 
REMARK    6  A    between atoms: C16_22  and  O4_23 
ROOT
HETATM    1  C4  UNL     1      36.330  27.741  20.877  1.00  0.00     0.011 C 
HETATM    2  C6  UNL     1      36.380  28.509  22.172  1.00  0.00    -0.004 C 
HETATM    3  C7  UNL     1      37.504  28.164  23.088  1.00  0.00     0.011 C 
HETATM    4  C8  UNL     1      35.082  28.323  22.910  1.00  0.00     0.006 C 
HETATM    5  C9  UNL     1      33.829  28.382  22.142  1.00  0.00     0.006 C 
HETATM    6  C10 UNL     1      33.853  28.108  20.677  1.00  0.00    -0.001 C 
HETATM    7  C11 UNL     1      35.266  28.453  20.101  1.00  0.00     0.005 C 
HETATM    8  C12 UNL     1      35.224  29.925  20.142  1.00  0.00     0.006 C 
HETATM    9  C13 UNL     1      34.406  30.409  18.931  1.00  0.00     0.006 C 
HETATM   10  C14 UNL     1      33.323  29.447  18.652  1.00  0.00    -0.004 C 
HETATM   11  C15 UNL     1      32.243  30.162  17.881  1.00  0.00     0.037 C 
HETATM   12  C16 UNL     1      31.116  29.248  17.468  1.00  0.00     0.118 C 
HETATM   13  C17 UNL     1      30.675  28.300  18.544  1.00  0.00     0.032 C 
HETATM   14  C18 UNL     1      31.810  27.705  19.284  1.00  0.00     0.012 C 
HETATM   15  C19 UNL     1      32.758  28.762  19.898  1.00  0.00    -0.036 C 
HETATM   16  C20 UNL     1      31.842  29.640  20.667  1.00  0.00     0.016 C 
ENDROOT
BRANCH   1  17
HETATM   17  C3  UNL     1      37.579  27.433  20.195  1.00  0.00     0.062 C 
BRANCH  17  18
HETATM   18  C2  UNL     1      37.847  27.054  18.874  1.00  0.00     0.261 C 
HETATM   19  N1  UNL     1      37.891  28.075  17.850  1.00  0.00    -0.232 N 
ATOM     20  H1  UNL     1      37.732  29.052  18.099  1.00  0.00     0.197 HD
HETATM   21  O2  UNL     1      38.057  25.890  18.464  1.00  0.00    -0.267 OA
BRANCH  19  22
HETATM   22  O1  UNL     1      38.135  27.750  16.601  1.00  0.00    -0.282 OA
HETATM   23  C1  UNL     1      37.209  28.192  15.679  1.00  0.00     0.237 C 
ENDBRANCH  19  22
ENDBRANCH  17  18
ENDBRANCH   1  17
BRANCH   1  24
HETATM   24  C5  UNL     1      35.887  26.326  21.291  1.00  0.00     0.178 C 
BRANCH  24  25
HETATM   25  O3  UNL     1      37.034  25.497  21.408  1.00  0.00    -0.400 OA
ATOM     26  H3  UNL     1      36.782  24.674  21.811  1.00  0.00     0.209 HD
ENDBRANCH  24  25
ENDBRANCH   1  24
BRANCH  12  27
HETATM   27  O4  UNL     1      31.488  28.536  16.344  1.00  0.00    -0.396 OA
ATOM     28  H4  UNL     1      32.175  27.920  16.571  1.00  0.00     0.210 HD
ENDBRANCH  12  27
TORSDOF 6
ENDMDL
