MODEL 1
REMARK VINA RESULT: -7.402842246      0.000      0.000
REMARK  6 active torsions:
REMARK  status: ('A' for Active; 'I' for Inactive)
REMARK    1  A    between atoms: C2_2  and  C3_3 
REMARK    2  A    between atoms: C3_3  and  O1_4 
REMARK    3  A    between atoms: C17_20  and  C18_21 
REMARK    4  A    between atoms: C17_20  and  C19_24 
REMARK    5  A    between atoms: C18_21  and  O3_22 
REMARK    6  A    between atoms: C19_24  and  O4_25 
ROOT
HETATM    1  C1  UNL     1      32.943  28.015  17.933  1.00  0.00     0.018 C 
HETATM    2  C2  UNL     1      32.314  27.453  19.167  1.00  0.00    -0.018 C 
HETATM    3  C4  UNL     1      31.456  28.561  19.789  1.00  0.00     0.012 C 
HETATM    4  C5  UNL     1      32.253  29.635  20.410  1.00  0.00     0.002 C 
HETATM    5  C6  UNL     1      33.657  29.291  20.739  1.00  0.00     0.010 C 
HETATM    6  C7  UNL     1      33.924  27.850  21.042  1.00  0.00    -0.035 C 
HETATM    7  C8  UNL     1      33.714  27.545  22.487  1.00  0.00     0.016 C 
HETATM    8  C9  UNL     1      35.249  27.459  20.428  1.00  0.00     0.001 C 
HETATM    9  C10 UNL     1      36.233  27.112  21.477  1.00  0.00     0.032 C 
HETATM   10  C11 UNL     1      37.507  26.505  20.968  1.00  0.00     0.169 C 
HETATM   11  O2  UNL     1      37.426  25.547  20.049  1.00  0.00    -0.379 OA
HETATM   12  C12 UNL     1      36.445  24.669  19.931  1.00  0.00     0.073 C 
HETATM   13  C13 UNL     1      36.378  24.329  18.424  1.00  0.00     0.047 C 
HETATM   14  C14 UNL     1      35.047  25.055  20.313  1.00  0.00     0.026 C 
HETATM   15  C15 UNL     1      34.312  23.800  19.888  1.00  0.00     0.009 C 
HETATM   16  C16 UNL     1      35.246  22.694  20.288  1.00  0.00     0.017 C 
HETATM   17  C17 UNL     1      36.592  23.346  20.602  1.00  0.00     0.033 C 
HETATM   18  C20 UNL     1      34.556  26.323  19.735  1.00  0.00     0.003 C 
HETATM   19  C21 UNL     1      33.238  26.851  20.159  1.00  0.00     0.009 C 
ENDROOT
BRANCH  17  20
HETATM   20  C18 UNL     1      37.731  22.557  20.003  1.00  0.00     0.178 C 
BRANCH  20  21
HETATM   21  O3  UNL     1      38.902  22.691  20.755  1.00  0.00    -0.400 OA
ATOM     22  H3  UNL     1      38.789  22.365  21.640  1.00  0.00     0.209 HD
ENDBRANCH  20  21
ENDBRANCH  17  20
BRANCH  17  23
HETATM   23  C19 UNL     1      36.720  23.404  22.096  1.00  0.00     0.178 C 
BRANCH  23  24
HETATM   24  O4  UNL     1      36.561  22.108  22.645  1.00  0.00    -0.400 OA
ATOM     25  H4  UNL     1      35.777  21.702  22.295  1.00  0.00     0.209 HD
ENDBRANCH  23  24
ENDBRANCH  17  23
BRANCH   2  26
HETATM   26  C3  UNL     1      31.269  26.446  18.682  1.00  0.00     0.173 C 
BRANCH  26  27
HETATM   27  O1  UNL     1      29.973  26.888  18.830  1.00  0.00    -0.400 OA
ATOM     28  H1  UNL     1      29.325  26.271  18.511  1.00  0.00     0.209 HD
ENDBRANCH  26  27
ENDBRANCH   2  26
TORSDOF 6
ENDMDL
MODEL 2
REMARK VINA RESULT: -6.975933357      1.808      3.460
REMARK  6 active torsions:
REMARK  status: ('A' for Active; 'I' for Inactive)
REMARK    1  A    between atoms: C2_2  and  C3_3 
REMARK    2  A    between atoms: C3_3  and  O1_4 
REMARK    3  A    between atoms: C17_20  and  C18_21 
REMARK    4  A    between atoms: C17_20  and  C19_24 
REMARK    5  A    between atoms: C18_21  and  O3_22 
REMARK    6  A    between atoms: C19_24  and  O4_25 
ROOT
HETATM    1  C1  UNL     1      33.447  28.514  22.235  1.00  0.00     0.018 C 
HETATM    2  C2  UNL     1      33.917  28.868  20.861  1.00  0.00    -0.018 C 
HETATM    3  C4  UNL     1      32.895  29.842  20.264  1.00  0.00     0.012 C 
HETATM    4  C5  UNL     1      31.617  29.197  19.907  1.00  0.00     0.002 C 
HETATM    5  C6  UNL     1      31.658  27.724  19.747  1.00  0.00     0.010 C 
HETATM    6  C7  UNL     1      32.968  27.150  19.308  1.00  0.00    -0.035 C 
HETATM    7  C8  UNL     1      33.084  27.119  17.822  1.00  0.00     0.016 C 
HETATM    8  C9  UNL     1      33.211  25.859  20.057  1.00  0.00     0.001 C 
HETATM    9  C10 UNL     1      33.220  24.706  19.129  1.00  0.00     0.032 C 
HETATM   10  C11 UNL     1      33.667  23.410  19.740  1.00  0.00     0.169 C 
HETATM   11  O2  UNL     1      34.752  23.417  20.508  1.00  0.00    -0.379 OA
HETATM   12  C12 UNL     1      35.794  24.217  20.370  1.00  0.00     0.073 C 
HETATM   13  C13 UNL     1      36.364  24.400  21.796  1.00  0.00     0.047 C 
HETATM   14  C14 UNL     1      35.603  25.606  19.838  1.00  0.00     0.026 C 
HETATM   15  C15 UNL     1      37.017  26.132  19.989  1.00  0.00     0.009 C 
HETATM   16  C16 UNL     1      37.871  24.961  19.594  1.00  0.00     0.017 C 
HETATM   17  C17 UNL     1      36.955  23.738  19.566  1.00  0.00     0.033 C 
HETATM   18  C20 UNL     1      34.542  26.399  20.491  1.00  0.00     0.003 C 
HETATM   19  C21 UNL     1      34.193  27.732  19.948  1.00  0.00     0.009 C 
ENDROOT
BRANCH  17  20
HETATM   20  C18 UNL     1      37.615  22.550  20.223  1.00  0.00     0.178 C 
BRANCH  20  21
HETATM   21  O3  UNL     1      38.983  22.764  20.418  1.00  0.00    -0.400 OA
ATOM     22  H3  UNL     1      39.491  21.984  20.227  1.00  0.00     0.209 HD
ENDBRANCH  20  21
ENDBRANCH  17  20
BRANCH  17  23
HETATM   23  C19 UNL     1      36.651  23.443  18.127  1.00  0.00     0.178 C 
BRANCH  23  24
HETATM   24  O4  UNL     1      37.606  22.535  17.608  1.00  0.00    -0.400 OA
ATOM     25  H4  UNL     1      38.434  22.978  17.471  1.00  0.00     0.209 HD
ENDBRANCH  23  24
ENDBRANCH  17  23
BRANCH   2  26
HETATM   26  C3  UNL     1      35.151  29.751  21.056  1.00  0.00     0.173 C 
BRANCH  26  27
HETATM   27  O1  UNL     1      35.711  29.643  22.310  1.00  0.00    -0.400 OA
ATOM     28  H1  UNL     1      35.383  30.287  22.927  1.00  0.00     0.209 HD
ENDBRANCH  26  27
ENDBRANCH   2  26
TORSDOF 6
ENDMDL
MODEL 3
REMARK VINA RESULT: -6.724236597      1.789      2.287
REMARK  6 active torsions:
REMARK  status: ('A' for Active; 'I' for Inactive)
REMARK    1  A    between atoms: C2_2  and  C3_3 
REMARK    2  A    between atoms: C3_3  and  O1_4 
REMARK    3  A    between atoms: C17_20  and  C18_21 
REMARK    4  A    between atoms: C17_20  and  C19_24 
REMARK    5  A    between atoms: C18_21  and  O3_22 
REMARK    6  A    between atoms: C19_24  and  O4_25 
ROOT
HETATM    1  C1  UNL     1      35.991  29.995  18.139  1.00  0.00     0.018 C 
HETATM    2  C2  UNL     1      34.702  29.260  17.962  1.00  0.00    -0.018 C 
HETATM    3  C4  UNL     1      33.568  30.280  18.115  1.00  0.00     0.012 C 
HETATM    4  C5  UNL     1      33.380  30.737  19.504  1.00  0.00     0.002 C 
HETATM    5  C6  UNL     1      33.953  29.864  20.556  1.00  0.00     0.010 C 
HETATM    6  C7  UNL     1      34.042  28.408  20.221  1.00  0.00    -0.035 C 
HETATM    7  C8  UNL     1      32.787  27.685  20.578  1.00  0.00     0.016 C 
HETATM    8  C9  UNL     1      35.344  27.861  20.761  1.00  0.00     0.001 C 
HETATM    9  C10 UNL     1      35.095  26.859  21.821  1.00  0.00     0.032 C 
HETATM   10  C11 UNL     1      36.310  26.101  22.268  1.00  0.00     0.169 C 
HETATM   11  O2  UNL     1      37.132  25.623  21.339  1.00  0.00    -0.379 OA
HETATM   12  C12 UNL     1      36.782  25.215  20.132  1.00  0.00     0.073 C 
HETATM   13  C13 UNL     1      38.012  25.485  19.234  1.00  0.00     0.047 C 
HETATM   14  C14 UNL     1      35.628  25.866  19.429  1.00  0.00     0.026 C 
HETATM   15  C15 UNL     1      35.715  25.160  18.090  1.00  0.00     0.009 C 
HETATM   16  C16 UNL     1      36.061  23.746  18.462  1.00  0.00     0.017 C 
HETATM   17  C17 UNL     1      36.487  23.768  19.929  1.00  0.00     0.033 C 
HETATM   18  C20 UNL     1      35.657  27.342  19.388  1.00  0.00     0.003 C 
HETATM   19  C21 UNL     1      34.497  28.076  18.831  1.00  0.00     0.009 C 
ENDROOT
BRANCH  17  20
HETATM   20  C18 UNL     1      37.722  22.927  20.148  1.00  0.00     0.178 C 
BRANCH  20  21
HETATM   21  O3  UNL     1      38.129  22.948  21.486  1.00  0.00    -0.400 OA
ATOM     22  H3  UNL     1      38.771  23.630  21.646  1.00  0.00     0.209 HD
ENDBRANCH  20  21
ENDBRANCH  17  20
BRANCH  17  23
HETATM   23  C19 UNL     1      35.339  23.235  20.734  1.00  0.00     0.178 C 
BRANCH  23  24
HETATM   24  O4  UNL     1      35.620  21.915  21.162  1.00  0.00    -0.400 OA
ATOM     25  H4  UNL     1      35.209  21.753  22.003  1.00  0.00     0.209 HD
ENDBRANCH  23  24
ENDBRANCH  17  23
BRANCH   2  26
HETATM   26  C3  UNL     1      34.630  28.893  16.479  1.00  0.00     0.173 C 
BRANCH  26  27
HETATM   27  O1  UNL     1      33.996  27.693  16.241  1.00  0.00    -0.400 OA
ATOM     28  H1  UNL     1      34.369  27.205  15.517  1.00  0.00     0.209 HD
ENDBRANCH  26  27
ENDBRANCH   2  26
TORSDOF 6
ENDMDL
MODEL 4
REMARK VINA RESULT: -6.670171809      2.088      3.540
REMARK  6 active torsions:
REMARK  status: ('A' for Active; 'I' for Inactive)
REMARK    1  A    between atoms: C2_2  and  C3_3 
REMARK    2  A    between atoms: C3_3  and  O1_4 
REMARK    3  A    between atoms: C17_20  and  C18_21 
REMARK    4  A    between atoms: C17_20  and  C19_24 
REMARK    5  A    between atoms: C18_21  and  O3_22 
REMARK    6  A    between atoms: C19_24  and  O4_25 
ROOT
HETATM    1  C1  UNL     1      33.243  28.701  20.834  1.00  0.00     0.018 C 
HETATM    2  C2  UNL     1      34.719  28.802  21.042  1.00  0.00    -0.018 C 
HETATM    3  C4  UNL     1      35.145  30.216  20.630  1.00  0.00     0.012 C 
HETATM    4  C5  UNL     1      35.106  30.434  19.172  1.00  0.00     0.002 C 
HETATM    5  C6  UNL     1      35.115  29.211  18.335  1.00  0.00     0.010 C 
HETATM    6  C7  UNL     1      35.801  28.019  18.925  1.00  0.00    -0.035 C 
HETATM    7  C8  UNL     1      37.259  28.012  18.609  1.00  0.00     0.016 C 
HETATM    8  C9  UNL     1      35.004  26.779  18.586  1.00  0.00     0.001 C 
HETATM    9  C10 UNL     1      35.779  25.880  17.702  1.00  0.00     0.032 C 
HETATM   10  C11 UNL     1      35.165  24.529  17.485  1.00  0.00     0.169 C 
HETATM   11  O2  UNL     1      34.693  23.874  18.541  1.00  0.00    -0.379 OA
HETATM   12  C12 UNL     1      35.167  23.946  19.773  1.00  0.00     0.073 C 
HETATM   13  C13 UNL     1      33.954  23.691  20.696  1.00  0.00     0.047 C 
HETATM   14  C14 UNL     1      35.779  25.224  20.263  1.00  0.00     0.026 C 
HETATM   15  C15 UNL     1      36.037  24.843  21.708  1.00  0.00     0.009 C 
HETATM   16  C16 UNL     1      36.505  23.418  21.616  1.00  0.00     0.017 C 
HETATM   17  C17 UNL     1      36.178  22.938  20.203  1.00  0.00     0.033 C 
HETATM   18  C20 UNL     1      34.971  26.441  20.048  1.00  0.00     0.003 C 
HETATM   19  C21 UNL     1      35.548  27.764  20.381  1.00  0.00     0.009 C 
ENDROOT
BRANCH  17  20
HETATM   20  C18 UNL     1      35.583  21.550  20.226  1.00  0.00     0.178 C 
BRANCH  20  21
HETATM   21  O3  UNL     1      35.565  20.976  18.951  1.00  0.00    -0.400 OA
ATOM     22  H3  UNL     1      36.126  20.211  18.903  1.00  0.00     0.209 HD
ENDBRANCH  20  21
ENDBRANCH  17  20
BRANCH  17  23
HETATM   23  C19 UNL     1      37.458  22.948  19.422  1.00  0.00     0.178 C 
BRANCH  23  24
HETATM   24  O4  UNL     1      38.429  22.150  20.073  1.00  0.00    -0.400 OA
ATOM     25  H4  UNL     1      38.921  22.677  20.691  1.00  0.00     0.209 HD
ENDBRANCH  23  24
ENDBRANCH  17  23
BRANCH   2  26
HETATM   26  C3  UNL     1      34.929  28.813  22.557  1.00  0.00     0.173 C 
BRANCH  26  27
HETATM   27  O1  UNL     1      35.987  29.599  22.959  1.00  0.00    -0.400 OA
ATOM     28  H1  UNL     1      36.832  29.271  22.675  1.00  0.00     0.209 HD
ENDBRANCH  26  27
ENDBRANCH   2  26
TORSDOF 6
ENDMDL
MODEL 5
REMARK VINA RESULT: -6.628269920      2.382      3.708
REMARK  6 active torsions:
REMARK  status: ('A' for Active; 'I' for Inactive)
REMARK    1  A    between atoms: C2_2  and  C3_3 
REMARK    2  A    between atoms: C3_3  and  O1_4 
REMARK    3  A    between atoms: C17_20  and  C18_21 
REMARK    4  A    between atoms: C17_20  and  C19_24 
REMARK    5  A    between atoms: C18_21  and  O3_22 
REMARK    6  A    between atoms: C19_24  and  O4_25 
ROOT
HETATM    1  C1  UNL     1      31.948  28.823  16.008  1.00  0.00     0.018 C 
HETATM    2  C2  UNL     1      31.107  29.085  17.215  1.00  0.00    -0.018 C 
HETATM    3  C4  UNL     1      30.211  30.288  16.896  1.00  0.00     0.012 C 
HETATM    4  C5  UNL     1      30.946  31.565  16.850  1.00  0.00     0.002 C 
HETATM    5  C6  UNL     1      32.263  31.579  17.531  1.00  0.00     0.010 C 
HETATM    6  C7  UNL     1      32.414  30.635  18.683  1.00  0.00    -0.035 C 
HETATM    7  C8  UNL     1      31.965  31.255  19.962  1.00  0.00     0.016 C 
HETATM    8  C9  UNL     1      33.801  30.034  18.643  1.00  0.00     0.001 C 
HETATM    9  C10 UNL     1      34.590  30.454  19.823  1.00  0.00     0.032 C 
HETATM   10  C11 UNL     1      35.900  29.743  19.990  1.00  0.00     0.169 C 
HETATM   11  O2  UNL     1      35.922  28.421  19.843  1.00  0.00    -0.379 OA
HETATM   12  C12 UNL     1      34.935  27.593  20.133  1.00  0.00     0.073 C 
HETATM   13  C13 UNL     1      35.092  26.406  19.154  1.00  0.00     0.047 C 
HETATM   14  C14 UNL     1      33.513  28.045  19.982  1.00  0.00     0.026 C 
HETATM   15  C15 UNL     1      32.798  26.746  20.301  1.00  0.00     0.009 C 
HETATM   16  C16 UNL     1      33.607  26.169  21.428  1.00  0.00     0.017 C 
HETATM   17  C17 UNL     1      34.913  26.959  21.482  1.00  0.00     0.033 C 
HETATM   18  C20 UNL     1      33.176  28.671  18.687  1.00  0.00     0.003 C 
HETATM   19  C21 UNL     1      31.833  29.265  18.496  1.00  0.00     0.009 C 
ENDROOT
BRANCH  17  20
HETATM   20  C18 UNL     1      36.097  26.040  21.668  1.00  0.00     0.178 C 
BRANCH  20  21
HETATM   21  O3  UNL     1      37.281  26.758  21.861  1.00  0.00    -0.400 OA
ATOM     22  H3  UNL     1      37.310  27.538  21.320  1.00  0.00     0.209 HD
ENDBRANCH  20  21
ENDBRANCH  17  20
BRANCH  17  23
HETATM   23  C19 UNL     1      34.806  27.917  22.631  1.00  0.00     0.178 C 
BRANCH  23  24
HETATM   24  O4  UNL     1      35.271  27.302  23.819  1.00  0.00    -0.400 OA
ATOM     25  H4  UNL     1      35.497  26.396  23.647  1.00  0.00     0.209 HD
ENDBRANCH  23  24
ENDBRANCH  17  23
BRANCH   2  26
HETATM   26  C3  UNL     1      30.107  27.929  17.289  1.00  0.00     0.173 C 
BRANCH  26  27
HETATM   27  O1  UNL     1      29.770  27.577  18.577  1.00  0.00    -0.400 OA
ATOM     28  H1  UNL     1      30.494  27.640  19.189  1.00  0.00     0.209 HD
ENDBRANCH  26  27
ENDBRANCH   2  26
TORSDOF 6
ENDMDL
