MODEL 1
REMARK VINA RESULT: -7.345136506      0.000      0.000
REMARK  4 active torsions:
REMARK  status: ('A' for Active; 'I' for Inactive)
REMARK    1  A    between atoms: N1_9  and  C9_10 
REMARK    2  A    between atoms: C9_10  and  C10_11 
REMARK    3  A    between atoms: C16_20  and  C18_22 
REMARK    4  A    between atoms: C19_26  and  O1_27 
ROOT
HETATM    1  C1  UNL     1      37.759  28.268  22.569  1.00  0.00     0.016 C 
HETATM    2  C2  UNL     1      36.725  27.693  21.587  1.00  0.00    -0.030 C 
HETATM    3  C3  UNL     1      36.209  26.454  22.219  1.00  0.00     0.016 C 
HETATM    4  C4  UNL     1      35.662  28.782  21.492  1.00  0.00     0.023 C 
HETATM    5  C5  UNL     1      36.091  29.607  20.301  1.00  0.00     0.013 C 
HETATM    6  C6  UNL     1      36.554  28.522  19.312  1.00  0.00     0.002 C 
HETATM    7  C7  UNL     1      35.472  28.143  18.415  1.00  0.00     0.036 C 
HETATM    8  C8  UNL     1      34.150  27.748  19.001  1.00  0.00     0.273 C 
HETATM    9  N1  UNL     1      33.674  28.620  20.021  1.00  0.00     0.089 N 
HETATM   10  C15 UNL     1      34.288  28.259  21.311  1.00  0.00     0.277 C 
HETATM   11  C16 UNL     1      37.243  27.571  20.189  1.00  0.00     0.006 C 
HETATM   12  C17 UNL     1      38.705  28.080  20.251  1.00  0.00     0.022 C 
ENDROOT
BRANCH   9  13
HETATM   13  C9  UNL     1      32.263  28.393  20.222  1.00  0.00     0.277 C 
BRANCH  13  14
HETATM   14  C10 UNL     1      31.353  29.470  19.763  1.00  0.00     0.017 C 
HETATM   15  C11 UNL     1      32.235  30.703  19.510  1.00  0.00     0.034 C 
HETATM   16  C12 UNL     1      31.419  31.838  18.974  1.00  0.00     0.232 C 
HETATM   17  N2  UNL     1      30.087  31.431  18.584  1.00  0.00    -0.075 N 
HETATM   18  C13 UNL     1      30.120  30.267  17.731  1.00  0.00     0.232 C 
ATOM     19  H22 UNL     1      29.489  31.282  19.396  1.00  0.00     0.277 HD
ATOM     20  H21 UNL     1      29.574  32.198  18.149  1.00  0.00     0.277 HD
HETATM   21  C14 UNL     1      30.723  29.087  18.436  1.00  0.00     0.034 C 
ENDBRANCH  13  14
ENDBRANCH   9  13
BRANCH  11  22
HETATM   22  C18 UNL     1      37.356  26.162  19.697  1.00  0.00     0.060 A 
HETATM   23  S1  UNL     1      36.439  24.753  19.534  1.00  0.00    -0.012 SA
HETATM   24  N3  UNL     1      37.865  24.255  18.936  1.00  0.00    -0.306 N 
HETATM   25  C19 UNL     1      38.394  25.460  19.153  1.00  0.00     0.161 A 
ATOM     26  H3  UNL     1      38.214  23.378  18.551  1.00  0.00     0.176 HD
BRANCH  25  27
HETATM   27  O1  UNL     1      39.757  25.763  18.825  1.00  0.00    -0.345 OA
ATOM     28  H1  UNL     1      40.186  26.411  18.277  1.00  0.00     0.219 HD
ENDBRANCH  25  27
ENDBRANCH  11  22
TORSDOF 4
ENDMDL
MODEL 2
REMARK VINA RESULT: -7.262185442      1.828      2.328
REMARK  4 active torsions:
REMARK  status: ('A' for Active; 'I' for Inactive)
REMARK    1  A    between atoms: N1_9  and  C9_10 
REMARK    2  A    between atoms: C9_10  and  C10_11 
REMARK    3  A    between atoms: C16_20  and  C18_22 
REMARK    4  A    between atoms: C19_26  and  O1_27 
ROOT
HETATM    1  C1  UNL     1      35.618  26.145  22.947  1.00  0.00     0.016 C 
HETATM    2  C2  UNL     1      35.571  26.855  21.584  1.00  0.00    -0.030 C 
HETATM    3  C3  UNL     1      35.806  25.801  20.568  1.00  0.00     0.016 C 
HETATM    4  C4  UNL     1      34.158  27.425  21.515  1.00  0.00     0.023 C 
HETATM    5  C5  UNL     1      34.305  28.828  22.057  1.00  0.00     0.013 C 
HETATM    6  C6  UNL     1      35.635  29.277  21.425  1.00  0.00     0.002 C 
HETATM    7  C7  UNL     1      35.402  29.991  20.178  1.00  0.00     0.036 C 
HETATM    8  C8  UNL     1      34.545  29.351  19.128  1.00  0.00     0.273 C 
HETATM    9  N1  UNL     1      33.332  28.789  19.618  1.00  0.00     0.089 N 
HETATM   10  C15 UNL     1      33.589  27.438  20.147  1.00  0.00     0.277 C 
HETATM   11  C16 UNL     1      36.451  28.063  21.518  1.00  0.00     0.006 C 
HETATM   12  C17 UNL     1      37.129  28.149  22.909  1.00  0.00     0.022 C 
ENDROOT
BRANCH   9  13
HETATM   13  C9  UNL     1      32.427  28.573  18.515  1.00  0.00     0.277 C 
BRANCH  13  14
HETATM   14  C10 UNL     1      31.004  28.917  18.757  1.00  0.00     0.017 C 
HETATM   15  C11 UNL     1      31.005  30.234  19.549  1.00  0.00     0.034 C 
HETATM   16  C12 UNL     1      29.606  30.708  19.790  1.00  0.00     0.232 C 
HETATM   17  N2  UNL     1      28.629  29.977  19.015  1.00  0.00    -0.075 N 
HETATM   18  C13 UNL     1      29.002  29.910  17.623  1.00  0.00     0.232 C 
ATOM     19  H22 UNL     1      28.463  29.049  19.403  1.00  0.00     0.277 HD
ATOM     20  H21 UNL     1      27.693  30.366  19.133  1.00  0.00     0.277 HD
HETATM   21  C14 UNL     1      30.303  29.184  17.438  1.00  0.00     0.034 C 
ENDBRANCH  13  14
ENDBRANCH   9  13
BRANCH  11  22
HETATM   22  C18 UNL     1      37.588  27.941  20.553  1.00  0.00     0.060 A 
HETATM   23  S1  UNL     1      37.903  27.541  18.942  1.00  0.00    -0.012 SA
HETATM   24  N3  UNL     1      39.405  27.857  19.473  1.00  0.00    -0.306 N 
HETATM   25  C19 UNL     1      38.934  28.133  20.689  1.00  0.00     0.161 A 
ATOM     26  H3  UNL     1      40.333  27.847  19.049  1.00  0.00     0.176 HD
BRANCH  25  27
HETATM   27  O1  UNL     1      39.793  28.528  21.768  1.00  0.00    -0.345 OA
ATOM     28  H1  UNL     1      40.731  28.509  21.917  1.00  0.00     0.219 HD
ENDBRANCH  25  27
ENDBRANCH  11  22
TORSDOF 4
ENDMDL
MODEL 3
REMARK VINA RESULT: -7.248621037      2.033      2.752
REMARK  4 active torsions:
REMARK  status: ('A' for Active; 'I' for Inactive)
REMARK    1  A    between atoms: N1_9  and  C9_10 
REMARK    2  A    between atoms: C9_10  and  C10_11 
REMARK    3  A    between atoms: C16_20  and  C18_22 
REMARK    4  A    between atoms: C19_26  and  O1_27 
ROOT
HETATM    1  C1  UNL     1      35.574  25.693  22.616  1.00  0.00     0.016 C 
HETATM    2  C2  UNL     1      35.723  26.654  21.425  1.00  0.00    -0.030 C 
HETATM    3  C3  UNL     1      36.321  25.853  20.329  1.00  0.00     0.016 C 
HETATM    4  C4  UNL     1      34.292  27.083  21.117  1.00  0.00     0.023 C 
HETATM    5  C5  UNL     1      34.116  28.356  21.911  1.00  0.00     0.013 C 
HETATM    6  C6  UNL     1      35.473  29.052  21.704  1.00  0.00     0.002 C 
HETATM    7  C7  UNL     1      35.416  29.974  20.579  1.00  0.00     0.036 C 
HETATM    8  C8  UNL     1      34.908  29.476  19.260  1.00  0.00     0.273 C 
HETATM    9  N1  UNL     1      33.711  28.710  19.341  1.00  0.00     0.089 N 
HETATM   10  C15 UNL     1      34.037  27.312  19.676  1.00  0.00     0.277 C 
HETATM   11  C16 UNL     1      36.414  27.931  21.780  1.00  0.00     0.006 C 
HETATM   12  C17 UNL     1      36.756  27.804  23.286  1.00  0.00     0.022 C 
ENDROOT
BRANCH   9  13
HETATM   13  C9  UNL     1      33.107  28.630  18.033  1.00  0.00     0.277 C 
BRANCH  13  14
HETATM   14  C10 UNL     1      31.896  29.461  17.818  1.00  0.00     0.017 C 
HETATM   15  C11 UNL     1      31.292  29.713  19.208  1.00  0.00     0.034 C 
HETATM   16  C12 UNL     1      30.094  30.605  19.111  1.00  0.00     0.232 C 
HETATM   17  N2  UNL     1      29.955  31.212  17.806  1.00  0.00    -0.075 N 
HETATM   18  C13 UNL     1      31.189  31.824  17.376  1.00  0.00     0.232 C 
ATOM     19  H22 UNL     1      29.610  30.544  17.118  1.00  0.00     0.277 HD
ATOM     20  H21 UNL     1      29.181  31.876  17.783  1.00  0.00     0.277 HD
HETATM   21  C14 UNL     1      32.289  30.811  17.245  1.00  0.00     0.034 C 
ENDBRANCH  13  14
ENDBRANCH   9  13
BRANCH  11  22
HETATM   22  C18 UNL     1      37.740  28.120  21.110  1.00  0.00     0.060 A 
HETATM   23  S1  UNL     1      38.471  27.988  19.593  1.00  0.00    -0.012 SA
HETATM   24  N3  UNL     1      39.734  28.467  20.496  1.00  0.00    -0.306 N 
HETATM   25  C19 UNL     1      38.962  28.504  21.583  1.00  0.00     0.161 A 
ATOM     26  H3  UNL     1      40.717  28.660  20.308  1.00  0.00     0.176 HD
BRANCH  25  27
HETATM   27  O1  UNL     1      39.474  28.885  22.868  1.00  0.00    -0.345 OA
ATOM     28  H1  UNL     1      39.641  29.713  23.302  1.00  0.00     0.219 HD
ENDBRANCH  25  27
ENDBRANCH  11  22
TORSDOF 4
ENDMDL
MODEL 4
REMARK VINA RESULT: -7.247757444      1.803      2.485
REMARK  4 active torsions:
REMARK  status: ('A' for Active; 'I' for Inactive)
REMARK    1  A    between atoms: N1_9  and  C9_10 
REMARK    2  A    between atoms: C9_10  and  C10_11 
REMARK    3  A    between atoms: C16_20  and  C18_22 
REMARK    4  A    between atoms: C19_26  and  O1_27 
ROOT
HETATM    1  C1  UNL     1      35.650  26.151  22.937  1.00  0.00     0.016 C 
HETATM    2  C2  UNL     1      35.582  26.817  21.552  1.00  0.00    -0.030 C 
HETATM    3  C3  UNL     1      35.842  25.737  20.569  1.00  0.00     0.016 C 
HETATM    4  C4  UNL     1      34.154  27.346  21.469  1.00  0.00     0.023 C 
HETATM    5  C5  UNL     1      34.264  28.769  21.966  1.00  0.00     0.013 C 
HETATM    6  C6  UNL     1      35.581  29.233  21.317  1.00  0.00     0.002 C 
HETATM    7  C7  UNL     1      35.326  29.900  20.049  1.00  0.00     0.036 C 
HETATM    8  C8  UNL     1      34.484  29.206  19.022  1.00  0.00     0.273 C 
HETATM    9  N1  UNL     1      33.288  28.627  19.533  1.00  0.00     0.089 N 
HETATM   10  C15 UNL     1      33.581  27.301  20.104  1.00  0.00     0.277 C 
HETATM   11  C16 UNL     1      36.429  28.044  21.446  1.00  0.00     0.006 C 
HETATM   12  C17 UNL     1      37.108  28.192  22.831  1.00  0.00     0.022 C 
ENDROOT
BRANCH   9  13
HETATM   13  C9  UNL     1      32.386  28.353  18.440  1.00  0.00     0.277 C 
BRANCH  13  14
HETATM   14  C10 UNL     1      31.288  29.330  18.234  1.00  0.00     0.017 C 
HETATM   15  C11 UNL     1      30.054  28.513  17.818  1.00  0.00     0.034 C 
HETATM   16  C12 UNL     1      28.863  29.402  17.650  1.00  0.00     0.232 C 
HETATM   17  N2  UNL     1      29.086  30.736  18.161  1.00  0.00    -0.075 N 
HETATM   18  C13 UNL     1      29.620  30.705  19.502  1.00  0.00     0.232 C 
ATOM     19  H22 UNL     1      29.679  31.282  17.536  1.00  0.00     0.277 HD
ATOM     20  H21 UNL     1      28.239  31.303  18.109  1.00  0.00     0.277 HD
HETATM   21  C14 UNL     1      30.953  30.017  19.545  1.00  0.00     0.034 C 
ENDBRANCH  13  14
ENDBRANCH   9  13
BRANCH  11  22
HETATM   22  C18 UNL     1      37.567  27.923  20.481  1.00  0.00     0.060 A 
HETATM   23  S1  UNL     1      37.882  27.528  18.869  1.00  0.00    -0.012 SA
HETATM   24  N3  UNL     1      39.385  27.836  19.404  1.00  0.00    -0.306 N 
HETATM   25  C19 UNL     1      38.913  28.109  20.621  1.00  0.00     0.161 A 
ATOM     26  H3  UNL     1      40.313  27.825  18.980  1.00  0.00     0.176 HD
BRANCH  25  27
HETATM   27  O1  UNL     1      39.773  28.495  21.702  1.00  0.00    -0.345 OA
ATOM     28  H1  UNL     1      40.645  28.246  21.985  1.00  0.00     0.219 HD
ENDBRANCH  25  27
ENDBRANCH  11  22
TORSDOF 4
ENDMDL
MODEL 5
REMARK VINA RESULT: -7.085345316      3.787      6.595
REMARK  4 active torsions:
REMARK  status: ('A' for Active; 'I' for Inactive)
REMARK    1  A    between atoms: N1_9  and  C9_10 
REMARK    2  A    between atoms: C9_10  and  C10_11 
REMARK    3  A    between atoms: C16_20  and  C18_22 
REMARK    4  A    between atoms: C19_26  and  O1_27 
ROOT
HETATM    1  C1  UNL     1      37.242  28.135  22.842  1.00  0.00     0.016 C 
HETATM    2  C2  UNL     1      36.401  27.513  21.715  1.00  0.00    -0.030 C 
HETATM    3  C3  UNL     1      37.133  27.796  20.457  1.00  0.00     0.016 C 
HETATM    4  C4  UNL     1      36.379  26.025  22.052  1.00  0.00     0.023 C 
HETATM    5  C5  UNL     1      35.117  25.855  22.866  1.00  0.00     0.013 C 
HETATM    6  C6  UNL     1      34.127  26.761  22.112  1.00  0.00     0.002 C 
HETATM    7  C7  UNL     1      33.367  25.997  21.133  1.00  0.00     0.036 C 
HETATM    8  C8  UNL     1      34.109  25.145  20.147  1.00  0.00     0.273 C 
HETATM    9  N1  UNL     1      35.139  24.345  20.718  1.00  0.00     0.089 N 
HETATM   10  C15 UNL     1      36.368  25.146  20.861  1.00  0.00     0.277 C 
HETATM   11  C16 UNL     1      34.961  27.914  21.763  1.00  0.00     0.006 C 
HETATM   12  C17 UNL     1      34.845  28.868  22.979  1.00  0.00     0.022 C 
ENDROOT
BRANCH   9  13
HETATM   13  C9  UNL     1      35.500  23.301  19.789  1.00  0.00     0.277 C 
BRANCH  13  14
HETATM   14  C10 UNL     1      34.680  22.066  19.840  1.00  0.00     0.017 C 
HETATM   15  C11 UNL     1      35.071  21.235  18.608  1.00  0.00     0.034 C 
HETATM   16  C12 UNL     1      34.344  19.927  18.598  1.00  0.00     0.232 C 
HETATM   17  N2  UNL     1      33.672  19.654  19.849  1.00  0.00    -0.075 N 
HETATM   18  C13 UNL     1      34.557  19.834  20.974  1.00  0.00     0.232 C 
ATOM     19  H22 UNL     1      32.824  20.212  19.947  1.00  0.00     0.277 HD
ATOM     20  H21 UNL     1      33.249  18.725  19.851  1.00  0.00     0.277 HD
HETATM   21  C14 UNL     1      35.044  21.251  21.068  1.00  0.00     0.034 C 
ENDBRANCH  13  14
ENDBRANCH   9  13
BRANCH  11  22
HETATM   22  C18 UNL     1      34.515  28.739  20.596  1.00  0.00     0.060 A 
HETATM   23  S1  UNL     1      33.489  28.665  19.256  1.00  0.00    -0.012 SA
HETATM   24  N3  UNL     1      34.122  30.150  19.070  1.00  0.00    -0.306 N 
HETATM   25  C19 UNL     1      34.854  29.993  20.174  1.00  0.00     0.161 A 
ATOM     26  H3  UNL     1      34.007  30.898  18.386  1.00  0.00     0.176 HD
BRANCH  25  27
HETATM   27  O1  UNL     1      35.736  31.017  20.655  1.00  0.00    -0.345 OA
ATOM     28  H1  UNL     1      36.125  31.797  20.277  1.00  0.00     0.219 HD
ENDBRANCH  25  27
ENDBRANCH  11  22
TORSDOF 4
ENDMDL
