MODEL 1
REMARK VINA RESULT: -9.765869528      0.000      0.000
REMARK  6 active torsions:
REMARK  status: ('A' for Active; 'I' for Inactive)
REMARK    1  A    between atoms: C1_2  and  C2_4 
REMARK    2  A    between atoms: C2_4  and  N2_5 
REMARK    3  A    between atoms: C2_4  and  C3_9 
REMARK    4  A    between atoms: C4_12  and  N4_13 
REMARK    5  A    between atoms: C4_12  and  C16_33 
REMARK       I    between atoms: N4_13  and  C5_15 
REMARK    6  A    between atoms: C5_15  and  C6_17 
ROOT
HETATM    1  C3  UNL     1      24.371  41.201  33.424  1.00  0.00     0.211 C 
HETATM    2  N3  UNL     1      23.781  40.037  33.919  1.00  0.00    -0.374 N 
ATOM      3  H3  UNL     1      22.931  39.705  33.464  1.00  0.00     0.157 HD
HETATM    4  C4  UNL     1      24.273  39.303  34.988  1.00  0.00     0.183 C 
HETATM    5  C17 UNL     1      23.915  39.979  36.316  1.00  0.00     0.065 C 
HETATM    6  C18 UNL     1      22.433  39.911  36.478  1.00  0.00     0.024 C 
HETATM    7  C19 UNL     1      21.798  41.204  36.914  1.00  0.00     0.114 C 
HETATM    8  N8  UNL     1      20.545  41.409  36.239  1.00  0.00    -0.420 N 
ATOM      9  H8  UNL     1      19.731  40.817  36.404  1.00  0.00     0.153 HD
HETATM   10  C20 UNL     1      20.520  42.504  35.318  1.00  0.00     0.133 C 
HETATM   11  C21 UNL     1      21.433  42.233  34.122  1.00  0.00     0.141 C 
HETATM   12  N9  UNL     1      22.673  42.935  34.273  1.00  0.00    -0.358 N 
ATOM     13  H9  UNL     1      22.592  43.915  34.548  1.00  0.00     0.162 HD
HETATM   14  C22 UNL     1      23.981  42.466  34.096  1.00  0.00     0.242 C 
HETATM   15  O5  UNL     1      24.947  43.191  34.555  1.00  0.00    -0.271 OA
ENDROOT
BRANCH   4  16
HETATM   16  N4  UNL     1      23.500  38.030  35.029  1.00  0.00    -0.325 N 
HETATM   17  C5  UNL     1      22.889  37.503  33.861  1.00  0.00     0.250 C 
HETATM   18  O2  UNL     1      23.019  38.132  32.790  1.00  0.00    -0.271 OA
ATOM     19  H4  UNL     1      23.407  37.529  35.912  1.00  0.00     0.165 HD
BRANCH  17  20
HETATM   20  C6  UNL     1      22.113  36.243  33.868  1.00  0.00     0.277 C 
HETATM   21  C7  UNL     1      21.108  36.211  32.734  1.00  0.00     0.043 C 
HETATM   22  C8  UNL     1      19.721  35.850  33.204  1.00  0.00     0.004 C 
HETATM   23  C9  UNL     1      19.210  34.762  32.276  1.00  0.00     0.020 C 
HETATM   24  C10 UNL     1      18.278  33.821  32.961  1.00  0.00     0.122 C 
HETATM   25  N5  UNL     1      18.453  33.792  34.395  1.00  0.00    -0.361 N 
HETATM   26  C11 UNL     1      19.305  32.892  35.090  1.00  0.00     0.217 C 
ATOM     27  H5  UNL     1      17.926  34.468  34.949  1.00  0.00     0.162 HD
HETATM   28  O3  UNL     1      18.904  32.361  36.159  1.00  0.00    -0.274 OA
HETATM   29  C12 UNL     1      20.671  32.523  34.634  1.00  0.00     0.103 C 
HETATM   30  C13 UNL     1      21.606  32.795  35.814  1.00  0.00     0.011 C 
HETATM   31  C14 UNL     1      21.319  34.103  36.474  1.00  0.00     0.028 C 
HETATM   32  C15 UNL     1      22.221  35.218  36.018  1.00  0.00     0.233 C 
HETATM   33  N6  UNL     1      21.466  36.104  35.155  1.00  0.00    -0.062 N 
ATOM     34  H62 UNL     1      21.302  37.009  35.595  1.00  0.00     0.278 HD
ATOM     35  H61 UNL     1      20.496  35.802  35.060  1.00  0.00     0.278 HD
ENDBRANCH  17  20
ENDBRANCH   4  16
BRANCH   4  36
HETATM   36  C16 UNL     1      25.697  38.953  35.035  1.00  0.00     0.280 C 
HETATM   37  N7  UNL     1      26.325  38.226  33.955  1.00  0.00    -0.058 NA
HETATM   38  O4  UNL     1      26.431  39.253  35.980  1.00  0.00    -0.272 OA
ENDBRANCH   4  36
BRANCH   1  39
HETATM   39  C2  UNL     1      23.879  41.370  31.960  1.00  0.00     0.303 C 
BRANCH  39  40
HETATM   40  C1  UNL     1      24.605  42.500  31.349  1.00  0.00     0.264 C 
HETATM   41  N1  UNL     1      25.754  42.250  30.563  1.00  0.00    -0.060 NA
HETATM   42  O1  UNL     1      24.250  43.692  31.491  1.00  0.00    -0.274 OA
ENDBRANCH  39  40
BRANCH  39  43
HETATM   43  N2  UNL     1      24.249  40.143  31.269  1.00  0.00    -0.064 N 
ATOM     44  H23 UNL     1      23.964  39.308  31.781  1.00  0.00     0.275 HD
ATOM     45  H22 UNL     1      23.694  39.989  30.427  1.00  0.00     0.275 HD
ATOM     46  H21 UNL     1      25.250  40.159  31.078  1.00  0.00     0.275 HD
ENDBRANCH  39  43
ENDBRANCH   1  39
TORSDOF 6
ENDMDL
MODEL 2
REMARK VINA RESULT: -8.615154308      1.206      2.211
REMARK  6 active torsions:
REMARK  status: ('A' for Active; 'I' for Inactive)
REMARK    1  A    between atoms: C1_2  and  C2_4 
REMARK    2  A    between atoms: C2_4  and  N2_5 
REMARK    3  A    between atoms: C2_4  and  C3_9 
REMARK    4  A    between atoms: C4_12  and  N4_13 
REMARK    5  A    between atoms: C4_12  and  C16_33 
REMARK       I    between atoms: N4_13  and  C5_15 
REMARK    6  A    between atoms: C5_15  and  C6_17 
ROOT
HETATM    1  C3  UNL     1      24.905  41.234  32.963  1.00  0.00     0.211 C 
HETATM    2  N3  UNL     1      24.087  40.351  33.667  1.00  0.00    -0.374 N 
ATOM      3  H3  UNL     1      23.142  40.196  33.316  1.00  0.00     0.157 HD
HETATM    4  C4  UNL     1      24.471  39.669  34.812  1.00  0.00     0.183 C 
HETATM    5  C17 UNL     1      24.422  40.596  36.032  1.00  0.00     0.065 C 
HETATM    6  C18 UNL     1      22.993  40.948  36.281  1.00  0.00     0.024 C 
HETATM    7  C19 UNL     1      22.751  42.411  36.536  1.00  0.00     0.114 C 
HETATM    8  N8  UNL     1      21.535  42.846  35.904  1.00  0.00    -0.420 N 
ATOM      9  H8  UNL     1      20.616  42.520  36.203  1.00  0.00     0.153 HD
HETATM   10  C20 UNL     1      21.705  43.767  34.823  1.00  0.00     0.133 C 
HETATM   11  C21 UNL     1      22.405  43.098  33.639  1.00  0.00     0.141 C 
HETATM   12  N9  UNL     1      23.792  43.459  33.611  1.00  0.00    -0.358 N 
ATOM     13  H9  UNL     1      23.988  44.453  33.730  1.00  0.00     0.162 HD
HETATM   14  C22 UNL     1      24.915  42.638  33.444  1.00  0.00     0.242 C 
HETATM   15  O5  UNL     1      26.072  43.137  33.730  1.00  0.00    -0.271 OA
ENDROOT
BRANCH   4  16
HETATM   16  N4  UNL     1      23.406  38.667  35.096  1.00  0.00    -0.325 N 
HETATM   17  C5  UNL     1      22.815  37.906  34.053  1.00  0.00     0.250 C 
HETATM   18  O2  UNL     1      23.214  38.095  32.885  1.00  0.00    -0.271 OA
ATOM     19  H4  UNL     1      23.096  38.525  36.057  1.00  0.00     0.165 HD
BRANCH  17  20
HETATM   20  C6  UNL     1      21.755  36.905  34.301  1.00  0.00     0.277 C 
HETATM   21  C7  UNL     1      21.984  36.178  35.611  1.00  0.00     0.043 C 
HETATM   22  C8  UNL     1      21.917  34.679  35.458  1.00  0.00     0.004 C 
HETATM   23  C9  UNL     1      21.001  34.163  36.554  1.00  0.00     0.020 C 
HETATM   24  C10 UNL     1      20.261  32.934  36.146  1.00  0.00     0.122 C 
HETATM   25  N5  UNL     1      20.143  32.792  34.713  1.00  0.00    -0.361 N 
HETATM   26  C11 UNL     1      19.054  33.274  33.937  1.00  0.00     0.217 C 
ATOM     27  H5  UNL     1      20.897  32.311  34.222  1.00  0.00     0.162 HD
HETATM   28  O3  UNL     1      18.586  32.556  33.016  1.00  0.00    -0.274 OA
HETATM   29  C12 UNL     1      18.414  34.600  34.140  1.00  0.00     0.103 C 
HETATM   30  C13 UNL     1      18.432  35.299  32.780  1.00  0.00     0.011 C 
HETATM   31  C14 UNL     1      19.747  35.154  32.087  1.00  0.00     0.028 C 
HETATM   32  C15 UNL     1      20.654  36.341  32.263  1.00  0.00     0.233 C 
HETATM   33  N6  UNL     1      21.714  35.985  33.184  1.00  0.00    -0.062 N 
ATOM     34  H62 UNL     1      22.617  35.922  32.715  1.00  0.00     0.278 HD
ATOM     35  H61 UNL     1      21.634  35.017  33.495  1.00  0.00     0.278 HD
ENDBRANCH  17  20
ENDBRANCH   4  16
BRANCH   4  36
HETATM   36  C16 UNL     1      25.757  38.963  34.840  1.00  0.00     0.280 C 
HETATM   37  N7  UNL     1      26.189  38.151  33.726  1.00  0.00    -0.058 NA
HETATM   38  O4  UNL     1      26.533  39.020  35.798  1.00  0.00    -0.272 OA
ENDBRANCH   4  36
BRANCH   1  39
HETATM   39  C2  UNL     1      24.341  41.321  31.518  1.00  0.00     0.303 C 
BRANCH  39  40
HETATM   40  C1  UNL     1      25.109  42.336  30.773  1.00  0.00     0.264 C 
HETATM   41  N1  UNL     1      26.317  41.969  30.135  1.00  0.00    -0.060 NA
HETATM   42  O1  UNL     1      24.742  43.529  30.675  1.00  0.00    -0.274 OA
ENDBRANCH  39  40
BRANCH  39  43
HETATM   43  N2  UNL     1      24.576  40.015  30.917  1.00  0.00    -0.064 N 
ATOM     44  H23 UNL     1      24.298  39.983  29.936  1.00  0.00     0.275 HD
ATOM     45  H22 UNL     1      25.569  39.820  30.790  1.00  0.00     0.275 HD
ATOM     46  H21 UNL     1      24.108  39.304  31.478  1.00  0.00     0.275 HD
ENDBRANCH  39  43
ENDBRANCH   1  39
TORSDOF 6
ENDMDL
MODEL 3
REMARK VINA RESULT: -8.426296985      2.490      8.286
REMARK  6 active torsions:
REMARK  status: ('A' for Active; 'I' for Inactive)
REMARK    1  A    between atoms: C1_2  and  C2_4 
REMARK    2  A    between atoms: C2_4  and  N2_5 
REMARK    3  A    between atoms: C2_4  and  C3_9 
REMARK    4  A    between atoms: C4_12  and  N4_13 
REMARK    5  A    between atoms: C4_12  and  C16_33 
REMARK       I    between atoms: N4_13  and  C5_15 
REMARK    6  A    between atoms: C5_15  and  C6_17 
ROOT
HETATM    1  C3  UNL     1      21.828  33.827  35.854  1.00  0.00     0.211 C 
HETATM    2  N3  UNL     1      21.617  35.072  35.261  1.00  0.00    -0.374 N 
ATOM      3  H3  UNL     1      20.989  35.723  35.733  1.00  0.00     0.157 HD
HETATM    4  C4  UNL     1      22.202  35.485  34.073  1.00  0.00     0.183 C 
HETATM    5  C17 UNL     1      21.485  34.856  32.873  1.00  0.00     0.065 C 
HETATM    6  C18 UNL     1      20.106  35.424  32.816  1.00  0.00     0.024 C 
HETATM    7  C19 UNL     1      19.023  34.402  32.598  1.00  0.00     0.114 C 
HETATM    8  N8  UNL     1      17.862  34.714  33.387  1.00  0.00    -0.420 N 
ATOM      9  H8  UNL     1      17.285  35.536  33.209  1.00  0.00     0.153 HD
HETATM   10  C20 UNL     1      17.573  33.788  34.438  1.00  0.00     0.133 C 
HETATM   11  C21 UNL     1      18.655  33.832  35.518  1.00  0.00     0.141 C 
HETATM   12  N9  UNL     1      19.556  32.728  35.364  1.00  0.00    -0.358 N 
ATOM     13  H9  UNL     1      19.115  31.819  35.224  1.00  0.00     0.162 HD
HETATM   14  C22 UNL     1      20.957  32.723  35.381  1.00  0.00     0.242 C 
HETATM   15  O5  UNL     1      21.559  31.665  34.946  1.00  0.00    -0.271 OA
ENDROOT
BRANCH   4  16
HETATM   16  N4  UNL     1      21.909  36.938  33.929  1.00  0.00    -0.325 N 
HETATM   17  C5  UNL     1      22.099  37.837  35.011  1.00  0.00     0.250 C 
HETATM   18  O2  UNL     1      22.525  37.380  36.091  1.00  0.00    -0.271 OA
ATOM     19  H4  UNL     1      21.564  37.293  33.037  1.00  0.00     0.165 HD
BRANCH  17  20
HETATM   20  C6  UNL     1      21.816  39.286  34.900  1.00  0.00     0.277 C 
HETATM   21  C7  UNL     1      22.467  39.878  33.667  1.00  0.00     0.043 C 
HETATM   22  C8  UNL     1      23.268  41.118  33.978  1.00  0.00     0.004 C 
HETATM   23  C9  UNL     1      22.853  42.176  32.970  1.00  0.00     0.020 C 
HETATM   24  C10 UNL     1      22.939  43.558  33.526  1.00  0.00     0.122 C 
HETATM   25  N5  UNL     1      22.873  43.593  34.969  1.00  0.00    -0.361 N 
HETATM   26  C11 UNL     1      21.678  43.748  35.723  1.00  0.00     0.217 C 
ATOM     27  H5  UNL     1      23.749  43.501  35.484  1.00  0.00     0.162 HD
HETATM   28  O3  UNL     1      21.674  44.506  36.727  1.00  0.00    -0.274 OA
HETATM   29  C12 UNL     1      20.401  43.060  35.401  1.00  0.00     0.103 C 
HETATM   30  C13 UNL     1      19.966  42.342  36.680  1.00  0.00     0.011 C 
HETATM   31  C14 UNL     1      21.099  41.633  37.345  1.00  0.00     0.028 C 
HETATM   32  C15 UNL     1      21.166  40.166  37.018  1.00  0.00     0.233 C 
HETATM   33  N6  UNL     1      22.270  39.941  36.108  1.00  0.00    -0.062 N 
ATOM     34  H62 UNL     1      23.029  39.426  36.554  1.00  0.00     0.278 HD
ATOM     35  H61 UNL     1      22.772  40.805  35.903  1.00  0.00     0.278 HD
ENDBRANCH  17  20
ENDBRANCH   4  16
BRANCH   4  36
HETATM   36  C16 UNL     1      23.645  35.306  33.874  1.00  0.00     0.280 C 
HETATM   37  N7  UNL     1      24.432  36.295  33.174  1.00  0.00    -0.058 NA
HETATM   38  O4  UNL     1      24.262  34.320  34.285  1.00  0.00    -0.272 OA
ENDBRANCH   4  36
BRANCH   1  39
HETATM   39  C2  UNL     1      21.481  33.978  37.361  1.00  0.00     0.303 C 
BRANCH  39  40
HETATM   40  C1  UNL     1      22.720  33.828  38.146  1.00  0.00     0.264 C 
HETATM   41  N1  UNL     1      23.803  33.093  37.609  1.00  0.00    -0.060 NA
HETATM   42  O1  UNL     1      22.868  34.325  39.285  1.00  0.00    -0.274 OA
ENDBRANCH  39  40
BRANCH  39  43
HETATM   43  N2  UNL     1      20.981  35.337  37.523  1.00  0.00    -0.064 N 
ATOM     44  H23 UNL     1      20.516  35.476  38.419  1.00  0.00     0.275 HD
ATOM     45  H22 UNL     1      21.733  36.015  37.645  1.00  0.00     0.275 HD
ATOM     46  H21 UNL     1      20.378  35.563  36.732  1.00  0.00     0.275 HD
ENDBRANCH  39  43
ENDBRANCH   1  39
TORSDOF 6
ENDMDL
MODEL 4
REMARK VINA RESULT: -8.058460740      1.177      2.157
REMARK  6 active torsions:
REMARK  status: ('A' for Active; 'I' for Inactive)
REMARK    1  A    between atoms: C1_2  and  C2_4 
REMARK    2  A    between atoms: C2_4  and  N2_5 
REMARK    3  A    between atoms: C2_4  and  C3_9 
REMARK    4  A    between atoms: C4_12  and  N4_13 
REMARK    5  A    between atoms: C4_12  and  C16_33 
REMARK       I    between atoms: N4_13  and  C5_15 
REMARK    6  A    between atoms: C5_15  and  C6_17 
ROOT
HETATM    1  C3  UNL     1      24.120  41.166  33.436  1.00  0.00     0.211 C 
HETATM    2  N3  UNL     1      23.591  40.018  34.026  1.00  0.00    -0.374 N 
ATOM      3  H3  UNL     1      22.705  39.664  33.666  1.00  0.00     0.157 HD
HETATM    4  C4  UNL     1      24.188  39.325  35.069  1.00  0.00     0.183 C 
HETATM    5  C17 UNL     1      23.951  40.048  36.400  1.00  0.00     0.065 C 
HETATM    6  C18 UNL     1      22.491  39.977  36.704  1.00  0.00     0.024 C 
HETATM    7  C19 UNL     1      21.887  41.282  37.151  1.00  0.00     0.114 C 
HETATM    8  N8  UNL     1      20.575  41.455  36.591  1.00  0.00    -0.420 N 
ATOM      9  H8  UNL     1      19.786  40.864  36.853  1.00  0.00     0.153 HD
HETATM   10  C20 UNL     1      20.453  42.515  35.638  1.00  0.00     0.133 C 
HETATM   11  C21 UNL     1      21.252  42.206  34.371  1.00  0.00     0.141 C 
HETATM   12  N9  UNL     1      22.494  42.920  34.379  1.00  0.00    -0.358 N 
ATOM     13  H9  UNL     1      22.430  43.908  34.625  1.00  0.00     0.162 HD
HETATM   14  C22 UNL     1      23.784  42.452  34.096  1.00  0.00     0.242 C 
HETATM   15  O5  UNL     1      24.782  43.200  34.435  1.00  0.00    -0.271 OA
ENDROOT
BRANCH   4  16
HETATM   16  N4  UNL     1      23.434  38.051  35.229  1.00  0.00    -0.325 N 
HETATM   17  C5  UNL     1      22.199  37.838  34.561  1.00  0.00     0.250 C 
HETATM   18  O2  UNL     1      21.759  38.748  33.828  1.00  0.00    -0.271 OA
ATOM     19  H4  UNL     1      23.811  37.318  35.830  1.00  0.00     0.165 HD
BRANCH  17  20
HETATM   20  C6  UNL     1      21.425  36.584  34.699  1.00  0.00     0.277 C 
HETATM   21  C7  UNL     1      22.192  35.554  35.503  1.00  0.00     0.043 C 
HETATM   22  C8  UNL     1      22.255  34.215  34.812  1.00  0.00     0.004 C 
HETATM   23  C9  UNL     1      21.859  33.168  35.839  1.00  0.00     0.020 C 
HETATM   24  C10 UNL     1      21.175  31.995  35.222  1.00  0.00     0.122 C 
HETATM   25  N5  UNL     1      20.571  32.297  33.945  1.00  0.00    -0.361 N 
HETATM   26  C11 UNL     1      19.228  32.724  33.764  1.00  0.00     0.217 C 
ATOM     27  H5  UNL     1      21.153  32.197  33.112  1.00  0.00     0.162 HD
HETATM   28  O3  UNL     1      18.551  32.249  32.815  1.00  0.00    -0.274 OA
HETATM   29  C12 UNL     1      18.549  33.717  34.636  1.00  0.00     0.103 C 
HETATM   30  C13 UNL     1      17.996  34.799  33.706  1.00  0.00     0.011 C 
HETATM   31  C14 UNL     1      18.984  35.208  32.664  1.00  0.00     0.028 C 
HETATM   32  C15 UNL     1      19.745  36.457  33.013  1.00  0.00     0.233 C 
HETATM   33  N6  UNL     1      21.099  36.092  33.378  1.00  0.00    -0.062 N 
ATOM     34  H62 UNL     1      21.775  36.403  32.682  1.00  0.00     0.278 HD
ATOM     35  H61 UNL     1      21.251  35.086  33.302  1.00  0.00     0.278 HD
ENDBRANCH  17  20
ENDBRANCH   4  16
BRANCH   4  36
HETATM   36  C16 UNL     1      25.613  38.986  34.994  1.00  0.00     0.280 C 
HETATM   37  N7  UNL     1      26.136  38.190  33.907  1.00  0.00    -0.058 NA
HETATM   38  O4  UNL     1      26.436  39.353  35.837  1.00  0.00    -0.272 OA
ENDBRANCH   4  36
BRANCH   1  39
HETATM   39  C2  UNL     1      23.491  41.279  32.020  1.00  0.00     0.303 C 
BRANCH  39  40
HETATM   40  C1  UNL     1      24.462  41.939  31.126  1.00  0.00     0.264 C 
HETATM   41  N1  UNL     1      24.520  43.351  31.080  1.00  0.00    -0.060 NA
HETATM   42  O1  UNL     1      25.251  41.303  30.393  1.00  0.00    -0.274 OA
ENDBRANCH  39  40
BRANCH  39  43
HETATM   43  N2  UNL     1      23.283  39.911  31.564  1.00  0.00    -0.064 N 
ATOM     44  H23 UNL     1      22.475  39.473  32.006  1.00  0.00     0.275 HD
ATOM     45  H22 UNL     1      22.957  39.869  30.598  1.00  0.00     0.275 HD
ATOM     46  H21 UNL     1      24.142  39.380  31.709  1.00  0.00     0.275 HD
ENDBRANCH  39  43
ENDBRANCH   1  39
TORSDOF 6
ENDMDL
MODEL 5
REMARK VINA RESULT: -7.950011838      2.141      8.344
REMARK  6 active torsions:
REMARK  status: ('A' for Active; 'I' for Inactive)
REMARK    1  A    between atoms: C1_2  and  C2_4 
REMARK    2  A    between atoms: C2_4  and  N2_5 
REMARK    3  A    between atoms: C2_4  and  C3_9 
REMARK    4  A    between atoms: C4_12  and  N4_13 
REMARK    5  A    between atoms: C4_12  and  C16_33 
REMARK       I    between atoms: N4_13  and  C5_15 
REMARK    6  A    between atoms: C5_15  and  C6_17 
ROOT
HETATM    1  C3  UNL     1      21.700  34.146  36.042  1.00  0.00     0.211 C 
HETATM    2  N3  UNL     1      21.710  35.239  35.174  1.00  0.00    -0.374 N 
ATOM      3  H3  UNL     1      21.128  36.042  35.415  1.00  0.00     0.157 HD
HETATM    4  C4  UNL     1      22.456  35.307  34.007  1.00  0.00     0.183 C 
HETATM    5  C17 UNL     1      21.784  34.501  32.891  1.00  0.00     0.065 C 
HETATM    6  C18 UNL     1      20.502  35.183  32.543  1.00  0.00     0.024 C 
HETATM    7  C19 UNL     1      19.322  34.257  32.418  1.00  0.00     0.114 C 
HETATM    8  N8  UNL     1      18.140  34.859  32.972  1.00  0.00    -0.420 N 
ATOM      9  H8  UNL     1      17.695  35.675  32.553  1.00  0.00     0.153 HD
HETATM   10  C20 UNL     1      17.632  34.232  34.153  1.00  0.00     0.133 C 
HETATM   11  C21 UNL     1      18.602  34.406  35.323  1.00  0.00     0.141 C 
HETATM   12  N9  UNL     1      19.363  33.208  35.522  1.00  0.00    -0.358 N 
ATOM     13  H9  UNL     1      18.824  32.342  35.525  1.00  0.00     0.162 HD
HETATM   14  C22 UNL     1      20.743  33.060  35.711  1.00  0.00     0.242 C 
HETATM   15  O5  UNL     1      21.243  31.875  35.591  1.00  0.00    -0.271 OA
ENDROOT
BRANCH   4  16
HETATM   16  N4  UNL     1      22.368  36.713  33.520  1.00  0.00    -0.325 N 
HETATM   17  C5  UNL     1      22.849  37.794  34.305  1.00  0.00     0.250 C 
HETATM   18  O2  UNL     1      23.353  37.538  35.418  1.00  0.00    -0.271 OA
ATOM     19  H4  UNL     1      21.956  36.901  32.607  1.00  0.00     0.165 HD
BRANCH  17  20
HETATM   20  C6  UNL     1      22.775  39.200  33.851  1.00  0.00     0.277 C 
HETATM   21  C7  UNL     1      23.834  39.495  32.809  1.00  0.00     0.043 C 
HETATM   22  C8  UNL     1      24.634  40.733  33.133  1.00  0.00     0.004 C 
HETATM   23  C9  UNL     1      24.668  41.580  31.873  1.00  0.00     0.020 C 
HETATM   24  C10 UNL     1      24.732  43.040  32.169  1.00  0.00     0.122 C 
HETATM   25  N5  UNL     1      24.231  43.374  33.482  1.00  0.00    -0.361 N 
HETATM   26  C11 UNL     1      22.887  43.737  33.770  1.00  0.00     0.217 C 
ATOM     27  H5  UNL     1      24.891  43.348  34.260  1.00  0.00     0.162 HD
HETATM   28  O3  UNL     1      22.660  44.685  34.566  1.00  0.00    -0.274 OA
HETATM   29  C12 UNL     1      21.702  43.061  33.183  1.00  0.00     0.103 C 
HETATM   30  C13 UNL     1      20.819  42.642  34.360  1.00  0.00     0.011 C 
HETATM   31  C14 UNL     1      21.608  42.032  35.470  1.00  0.00     0.028 C 
HETATM   32  C15 UNL     1      21.609  40.527  35.452  1.00  0.00     0.233 C 
HETATM   33  N6  UNL     1      22.907  40.068  35.002  1.00  0.00    -0.062 N 
ATOM     34  H62 UNL     1      23.430  39.619  35.754  1.00  0.00     0.278 HD
ATOM     35  H61 UNL     1      23.540  40.846  34.818  1.00  0.00     0.278 HD
ENDBRANCH  17  20
ENDBRANCH   4  16
BRANCH   4  36
HETATM   36  C16 UNL     1      23.876  34.938  34.031  1.00  0.00     0.280 C 
HETATM   37  N7  UNL     1      24.820  35.537  33.114  1.00  0.00    -0.058 NA
HETATM   38  O4  UNL     1      24.342  34.111  34.819  1.00  0.00    -0.272 OA
ENDBRANCH   4  36
BRANCH   1  39
HETATM   39  C2  UNL     1      21.230  34.671  37.427  1.00  0.00     0.303 C 
BRANCH  39  40
HETATM   40  C1  UNL     1      22.265  34.349  38.427  1.00  0.00     0.264 C 
HETATM   41  N1  UNL     1      21.975  34.492  39.804  1.00  0.00    -0.060 NA
HETATM   42  O1  UNL     1      23.409  33.947  38.116  1.00  0.00    -0.274 OA
ENDBRANCH  39  40
BRANCH  39  43
HETATM   43  N2  UNL     1      21.134  36.118  37.295  1.00  0.00    -0.064 N 
ATOM     44  H23 UNL     1      20.918  36.408  36.342  1.00  0.00     0.275 HD
ATOM     45  H22 UNL     1      20.304  36.496  37.751  1.00  0.00     0.275 HD
ATOM     46  H21 UNL     1      21.995  36.540  37.644  1.00  0.00     0.275 HD
ENDBRANCH  39  43
ENDBRANCH   1  39
TORSDOF 6
ENDMDL
