MODEL 1
REMARK VINA RESULT: -8.033929160      0.000      0.000
REMARK  10 active torsions:
REMARK  status: ('A' for Active; 'I' for Inactive)
REMARK    1  A    between atoms: C2_2  and  C3_4 
REMARK    2  A    between atoms: C3_4  and  C4_5 
REMARK    3  A    between atoms: C4_5  and  C5_6 
REMARK    4  A    between atoms: C5_6  and  N1_7 
REMARK    5  A    between atoms: C11_18  and  C12_19 
REMARK    6  A    between atoms: C12_19  and  S3_27 
REMARK    7  A    between atoms: N2_20  and  N3_22 
REMARK    8  A    between atoms: S3_27  and  N6_30 
REMARK    9  A    between atoms: N6_30  and  C14_32 
REMARK   10  A    between atoms: N7_33  and  N8_35 
ROOT
HETATM    1  C5  UNL     1      18.701  13.244  15.302  1.00  0.00     0.142 C 
HETATM    2  C6  UNL     1      18.214  11.793  15.359  1.00  0.00     0.114 C 
HETATM    3  S1  UNL     1      18.129  11.507  17.216  1.00  0.00    -0.150 SA
HETATM    4  C7  UNL     1      19.507  12.683  17.461  1.00  0.00     0.119 C 
HETATM    5  S2  UNL     1      19.872  13.202  19.111  1.00  0.00    -0.149 SA
HETATM    6  C8  UNL     1      19.898  15.073  18.829  1.00  0.00     0.109 C 
HETATM    7  C9  UNL     1      18.419  15.206  18.463  1.00  0.00    -0.065 C 
HETATM    8  C10 UNL     1      17.648  15.830  19.553  1.00  0.00     0.045 C 
HETATM    9  C11 UNL     1      17.905  14.588  17.386  1.00  0.00    -0.005 C 
HETATM   10  C15 UNL     1      18.904  13.816  16.593  1.00  0.00     0.082 C 
ENDROOT
BRANCH   9  11
HETATM   11  C12 UNL     1      16.512  14.786  17.124  1.00  0.00     0.171 C 
HETATM   12  N2  UNL     1      16.152  15.867  16.397  1.00  0.00    -0.286 N 
ATOM     13  H2  UNL     1      16.881  16.499  16.066  1.00  0.00     0.188 HD
BRANCH  12  14
HETATM   14  N3  UNL     1      14.836  16.152  16.084  1.00  0.00    -0.275 N 
HETATM   15  C13 UNL     1      14.350  15.906  14.914  1.00  0.00     0.215 C 
HETATM   16  N4  UNL     1      12.983  16.218  14.639  1.00  0.00    -0.065 NA
HETATM   17  N5  UNL     1      15.199  15.328  13.929  1.00  0.00    -0.065 NA
ATOM     18  H3  UNL     1      14.233  16.566  16.795  1.00  0.00     0.189 HD
ENDBRANCH  12  14
BRANCH  11  19
HETATM   19  S3  UNL     1      15.074  14.123  17.855  1.00  0.00     0.281 S 
HETATM   20  O2  UNL     1      15.300  12.798  18.558  1.00  0.00    -0.199 OA
HETATM   21  O3  UNL     1      13.902  14.021  16.988  1.00  0.00    -0.199 OA
BRANCH  19  22
HETATM   22  N6  UNL     1      14.584  15.198  19.214  1.00  0.00    -0.274 N 
ATOM     23  H6  UNL     1      15.214  15.890  19.621  1.00  0.00     0.179 HD
BRANCH  22  24
HETATM   24  C14 UNL     1      13.267  15.014  19.671  1.00  0.00     0.207 C 
HETATM   25  N7  UNL     1      12.308  15.682  19.083  1.00  0.00    -0.302 N 
ATOM     26  H7  UNL     1      11.344  15.565  19.395  1.00  0.00     0.187 HD
BRANCH  25  27
HETATM   27  N8  UNL     1      12.593  16.549  18.038  1.00  0.00    -0.344 N 
ATOM     28  H82 UNL     1      13.403  16.358  17.449  1.00  0.00     0.176 HD
ATOM     29  H81 UNL     1      12.002  17.361  17.864  1.00  0.00     0.176 HD
ENDBRANCH  25  27
ENDBRANCH  22  24
ENDBRANCH  19  22
ENDBRANCH  11  19
ENDBRANCH   9  11
BRANCH   1  30
HETATM   30  C4  UNL     1      19.937  13.389  14.406  1.00  0.00     0.047 C 
BRANCH  30  31
HETATM   31  C3  UNL     1      20.271  12.472  13.359  1.00  0.00     0.080 C 
BRANCH  31  32
HETATM   32  C2  UNL     1      21.518  11.702  13.801  1.00  0.00     0.123 C 
HETATM   33  C1  UNL     1      22.577  11.371  12.837  1.00  0.00     0.091 C 
HETATM   34  O1  UNL     1      21.633  11.362  14.955  1.00  0.00    -0.298 OA
ENDBRANCH  31  32
ENDBRANCH  30  31
ENDBRANCH   1  30
BRANCH   1  35
HETATM   35  N1  UNL     1      17.708  13.851  14.395  1.00  0.00    -0.069 N 
ATOM     36  H13 UNL     1      17.760  14.862  14.272  1.00  0.00     0.275 HD
ATOM     37  H12 UNL     1      17.819  13.655  13.400  1.00  0.00     0.275 HD
ATOM     38  H11 UNL     1      16.864  13.490  14.838  1.00  0.00     0.275 HD
ENDBRANCH   1  35
TORSDOF 10
ENDMDL
MODEL 2
REMARK VINA RESULT: -8.013782624      1.924      2.852
REMARK  10 active torsions:
REMARK  status: ('A' for Active; 'I' for Inactive)
REMARK    1  A    between atoms: C2_2  and  C3_4 
REMARK    2  A    between atoms: C3_4  and  C4_5 
REMARK    3  A    between atoms: C4_5  and  C5_6 
REMARK    4  A    between atoms: C5_6  and  N1_7 
REMARK    5  A    between atoms: C11_18  and  C12_19 
REMARK    6  A    between atoms: C12_19  and  S3_27 
REMARK    7  A    between atoms: N2_20  and  N3_22 
REMARK    8  A    between atoms: S3_27  and  N6_30 
REMARK    9  A    between atoms: N6_30  and  C14_32 
REMARK   10  A    between atoms: N7_33  and  N8_35 
ROOT
HETATM    1  C5  UNL     1      19.548  12.204  15.247  1.00  0.00     0.142 C 
HETATM    2  C6  UNL     1      19.032  10.793  15.540  1.00  0.00     0.114 C 
HETATM    3  S1  UNL     1      18.741  10.887  17.396  1.00  0.00    -0.150 SA
HETATM    4  C7  UNL     1      20.105  12.093  17.549  1.00  0.00     0.119 C 
HETATM    5  S2  UNL     1      20.299  12.937  19.091  1.00  0.00    -0.149 SA
HETATM    6  C8  UNL     1      20.389  14.712  18.443  1.00  0.00     0.109 C 
HETATM    7  C9  UNL     1      18.961  14.762  17.898  1.00  0.00    -0.065 C 
HETATM    8  C10 UNL     1      18.088  15.590  18.749  1.00  0.00     0.045 C 
HETATM    9  C11 UNL     1      18.556  13.938  16.917  1.00  0.00    -0.005 C 
HETATM   10  C15 UNL     1      19.620  13.026  16.410  1.00  0.00     0.082 C 
ENDROOT
BRANCH   9  11
HETATM   11  C12 UNL     1      17.203  14.073  16.470  1.00  0.00     0.171 C 
HETATM   12  N2  UNL     1      16.248  13.375  17.124  1.00  0.00    -0.286 N 
ATOM     13  H2  UNL     1      16.525  12.779  17.904  1.00  0.00     0.188 HD
BRANCH  12  14
HETATM   14  N3  UNL     1      14.911  13.435  16.778  1.00  0.00    -0.275 N 
HETATM   15  C13 UNL     1      14.007  13.785  17.629  1.00  0.00     0.215 C 
HETATM   16  N4  UNL     1      12.637  13.832  17.222  1.00  0.00    -0.065 NA
HETATM   17  N5  UNL     1      14.406  14.115  18.953  1.00  0.00    -0.065 NA
ATOM     18  H3  UNL     1      14.632  13.195  15.826  1.00  0.00     0.189 HD
ENDBRANCH  12  14
BRANCH  11  19
HETATM   19  S3  UNL     1      16.510  14.682  14.990  1.00  0.00     0.281 S 
HETATM   20  O2  UNL     1      15.697  13.654  14.226  1.00  0.00    -0.199 OA
HETATM   21  O3  UNL     1      17.434  15.350  14.076  1.00  0.00    -0.199 OA
BRANCH  19  22
HETATM   22  N6  UNL     1      15.267  15.915  15.414  1.00  0.00    -0.274 N 
ATOM     23  H6  UNL     1      15.271  16.415  16.304  1.00  0.00     0.179 HD
BRANCH  22  24
HETATM   24  C14 UNL     1      14.291  16.136  14.427  1.00  0.00     0.207 C 
HETATM   25  N7  UNL     1      13.639  17.271  14.444  1.00  0.00    -0.302 N 
ATOM     26  H7  UNL     1      12.926  17.456  13.738  1.00  0.00     0.187 HD
BRANCH  25  27
HETATM   27  N8  UNL     1      13.910  18.224  15.414  1.00  0.00    -0.344 N 
ATOM     28  H82 UNL     1      13.493  19.150  15.323  1.00  0.00     0.176 HD
ATOM     29  H81 UNL     1      14.515  18.000  16.204  1.00  0.00     0.176 HD
ENDBRANCH  25  27
ENDBRANCH  22  24
ENDBRANCH  19  22
ENDBRANCH  11  19
ENDBRANCH   9  11
BRANCH   1  30
HETATM   30  C4  UNL     1      20.876  12.171  14.480  1.00  0.00     0.047 C 
BRANCH  30  31
HETATM   31  C3  UNL     1      21.430  10.984  13.904  1.00  0.00     0.080 C 
BRANCH  31  32
HETATM   32  C2  UNL     1      22.565  11.411  12.969  1.00  0.00     0.123 C 
HETATM   33  C1  UNL     1      23.968  11.163  13.331  1.00  0.00     0.091 C 
HETATM   34  O1  UNL     1      22.305  11.956  11.923  1.00  0.00    -0.298 OA
ENDBRANCH  31  32
ENDBRANCH  30  31
ENDBRANCH   1  30
BRANCH   1  35
HETATM   35  N1  UNL     1      18.669  12.612  14.132  1.00  0.00    -0.069 N 
ATOM     36  H13 UNL     1      18.391  13.593  14.107  1.00  0.00     0.275 HD
ATOM     37  H12 UNL     1      19.092  12.636  13.204  1.00  0.00     0.275 HD
ATOM     38  H11 UNL     1      17.925  11.930  14.276  1.00  0.00     0.275 HD
ENDBRANCH   1  35
TORSDOF 10
ENDMDL
MODEL 3
REMARK VINA RESULT: -7.964559422      1.086      1.310
REMARK  10 active torsions:
REMARK  status: ('A' for Active; 'I' for Inactive)
REMARK    1  A    between atoms: C2_2  and  C3_4 
REMARK    2  A    between atoms: C3_4  and  C4_5 
REMARK    3  A    between atoms: C4_5  and  C5_6 
REMARK    4  A    between atoms: C5_6  and  N1_7 
REMARK    5  A    between atoms: C11_18  and  C12_19 
REMARK    6  A    between atoms: C12_19  and  S3_27 
REMARK    7  A    between atoms: N2_20  and  N3_22 
REMARK    8  A    between atoms: S3_27  and  N6_30 
REMARK    9  A    between atoms: N6_30  and  C14_32 
REMARK   10  A    between atoms: N7_33  and  N8_35 
ROOT
HETATM    1  C5  UNL     1      18.238  13.606  15.452  1.00  0.00     0.142 C 
HETATM    2  C6  UNL     1      17.963  12.134  15.769  1.00  0.00     0.114 C 
HETATM    3  S1  UNL     1      18.002  12.150  17.650  1.00  0.00    -0.150 SA
HETATM    4  C7  UNL     1      19.210  13.521  17.613  1.00  0.00     0.119 C 
HETATM    5  S2  UNL     1      19.571  14.351  19.132  1.00  0.00    -0.149 SA
HETATM    6  C8  UNL     1      19.321  16.136  18.556  1.00  0.00     0.109 C 
HETATM    7  C9  UNL     1      17.823  16.010  18.274  1.00  0.00    -0.065 C 
HETATM    8  C10 UNL     1      17.022  16.700  19.301  1.00  0.00     0.045 C 
HETATM    9  C11 UNL     1      17.355  15.161  17.345  1.00  0.00    -0.005 C 
HETATM   10  C15 UNL     1      18.415  14.406  16.619  1.00  0.00     0.082 C 
ENDROOT
BRANCH   9  11
HETATM   11  C12 UNL     1      15.937  15.128  17.149  1.00  0.00     0.171 C 
HETATM   12  N2  UNL     1      15.373  16.129  16.438  1.00  0.00    -0.286 N 
ATOM     13  H2  UNL     1      15.973  16.868  16.072  1.00  0.00     0.188 HD
BRANCH  12  14
HETATM   14  N3  UNL     1      14.015  16.193  16.186  1.00  0.00    -0.275 N 
HETATM   15  C13 UNL     1      13.416  17.319  15.987  1.00  0.00     0.215 C 
HETATM   16  N4  UNL     1      12.010  17.332  15.731  1.00  0.00    -0.065 NA
HETATM   17  N5  UNL     1      14.182  18.517  16.030  1.00  0.00    -0.065 NA
ATOM     18  H3  UNL     1      13.473  15.330  16.158  1.00  0.00     0.189 HD
ENDBRANCH  12  14
BRANCH  11  19
HETATM   19  S3  UNL     1      14.661  14.247  17.948  1.00  0.00     0.281 S 
HETATM   20  O2  UNL     1      15.075  12.868  18.425  1.00  0.00    -0.199 OA
HETATM   21  O3  UNL     1      13.395  14.152  17.224  1.00  0.00    -0.199 OA
BRANCH  19  22
HETATM   22  N6  UNL     1      14.277  15.087  19.494  1.00  0.00    -0.274 N 
ATOM     23  H6  UNL     1      14.602  14.746  20.399  1.00  0.00     0.179 HD
BRANCH  22  24
HETATM   24  C14 UNL     1      13.498  16.249  19.359  1.00  0.00     0.207 C 
HETATM   25  N7  UNL     1      12.375  16.323  20.026  1.00  0.00    -0.302 N 
ATOM     26  H7  UNL     1      11.792  17.156  19.946  1.00  0.00     0.187 HD
BRANCH  25  27
HETATM   27  N8  UNL     1      11.971  15.276  20.842  1.00  0.00    -0.344 N 
ATOM     28  H82 UNL     1      12.669  14.805  21.417  1.00  0.00     0.176 HD
ATOM     29  H81 UNL     1      10.995  14.985  20.864  1.00  0.00     0.176 HD
ENDBRANCH  25  27
ENDBRANCH  22  24
ENDBRANCH  19  22
ENDBRANCH  11  19
ENDBRANCH   9  11
BRANCH   1  30
HETATM   30  C4  UNL     1      19.400  13.762  14.463  1.00  0.00     0.047 C 
BRANCH  30  31
HETATM   31  C3  UNL     1      19.743  12.780  13.480  1.00  0.00     0.080 C 
BRANCH  31  32
HETATM   32  C2  UNL     1      20.991  12.046  13.977  1.00  0.00     0.123 C 
HETATM   33  C1  UNL     1      21.875  11.345  13.033  1.00  0.00     0.091 C 
HETATM   34  O1  UNL     1      21.253  12.042  15.156  1.00  0.00    -0.298 OA
ENDBRANCH  31  32
ENDBRANCH  30  31
ENDBRANCH   1  30
BRANCH   1  35
HETATM   35  N1  UNL     1      17.130  13.918  14.528  1.00  0.00    -0.069 N 
ATOM     36  H13 UNL     1      16.738  14.858  14.587  1.00  0.00     0.275 HD
ATOM     37  H12 UNL     1      17.370  14.006  13.541  1.00  0.00     0.275 HD
ATOM     38  H11 UNL     1      16.508  13.150  14.779  1.00  0.00     0.275 HD
ENDBRANCH   1  35
TORSDOF 10
ENDMDL
MODEL 4
REMARK VINA RESULT: -7.794915191      0.923      1.037
REMARK  10 active torsions:
REMARK  status: ('A' for Active; 'I' for Inactive)
REMARK    1  A    between atoms: C2_2  and  C3_4 
REMARK    2  A    between atoms: C3_4  and  C4_5 
REMARK    3  A    between atoms: C4_5  and  C5_6 
REMARK    4  A    between atoms: C5_6  and  N1_7 
REMARK    5  A    between atoms: C11_18  and  C12_19 
REMARK    6  A    between atoms: C12_19  and  S3_27 
REMARK    7  A    between atoms: N2_20  and  N3_22 
REMARK    8  A    between atoms: S3_27  and  N6_30 
REMARK    9  A    between atoms: N6_30  and  C14_32 
REMARK   10  A    between atoms: N7_33  and  N8_35 
ROOT
HETATM    1  C5  UNL     1      18.758  13.211  15.242  1.00  0.00     0.142 C 
HETATM    2  C6  UNL     1      18.218  11.779  15.288  1.00  0.00     0.114 C 
HETATM    3  S1  UNL     1      18.185  11.459  17.142  1.00  0.00    -0.150 SA
HETATM    4  C7  UNL     1      19.613  12.577  17.361  1.00  0.00     0.119 C 
HETATM    5  S2  UNL     1      20.052  13.050  19.007  1.00  0.00    -0.149 SA
HETATM    6  C8  UNL     1      20.140  14.924  18.759  1.00  0.00     0.109 C 
HETATM    7  C9  UNL     1      18.656  15.119  18.446  1.00  0.00    -0.065 C 
HETATM    8  C10 UNL     1      17.946  15.750  19.574  1.00  0.00     0.045 C 
HETATM    9  C11 UNL     1      18.084  14.543  17.376  1.00  0.00    -0.005 C 
HETATM   10  C15 UNL     1      19.025  13.750  16.535  1.00  0.00     0.082 C 
ENDROOT
BRANCH   9  11
HETATM   11  C12 UNL     1      16.691  14.798  17.166  1.00  0.00     0.171 C 
HETATM   12  N2  UNL     1      16.347  15.922  16.499  1.00  0.00    -0.286 N 
ATOM     13  H2  UNL     1      17.088  16.545  16.175  1.00  0.00     0.188 HD
BRANCH  12  14
HETATM   14  N3  UNL     1      15.033  16.264  16.239  1.00  0.00    -0.275 N 
HETATM   15  C13 UNL     1      14.512  16.104  15.069  1.00  0.00     0.215 C 
HETATM   16  N4  UNL     1      13.148  16.472  14.850  1.00  0.00    -0.065 NA
HETATM   17  N5  UNL     1      15.318  15.565  14.029  1.00  0.00    -0.065 NA
ATOM     18  H3  UNL     1      14.461  16.651  16.990  1.00  0.00     0.189 HD
ENDBRANCH  12  14
BRANCH  11  19
HETATM   19  S3  UNL     1      15.253  14.149  17.909  1.00  0.00     0.281 S 
HETATM   20  O2  UNL     1      14.697  15.013  19.025  1.00  0.00    -0.199 OA
HETATM   21  O3  UNL     1      15.334  12.761  18.361  1.00  0.00    -0.199 OA
BRANCH  19  22
HETATM   22  N6  UNL     1      13.923  14.190  16.694  1.00  0.00    -0.274 N 
ATOM     23  H6  UNL     1      14.074  14.467  15.724  1.00  0.00     0.179 HD
BRANCH  22  24
HETATM   24  C14 UNL     1      12.661  13.812  17.185  1.00  0.00     0.207 C 
HETATM   25  N7  UNL     1      11.888  14.740  17.687  1.00  0.00    -0.302 N 
ATOM     26  H7  UNL     1      10.966  14.492  18.049  1.00  0.00     0.187 HD
BRANCH  25  27
HETATM   27  N8  UNL     1      12.311  16.060  17.732  1.00  0.00    -0.344 N 
ATOM     28  H82 UNL     1      11.775  16.765  17.226  1.00  0.00     0.176 HD
ATOM     29  H81 UNL     1      13.144  16.319  18.260  1.00  0.00     0.176 HD
ENDBRANCH  25  27
ENDBRANCH  22  24
ENDBRANCH  19  22
ENDBRANCH  11  19
ENDBRANCH   9  11
BRANCH   1  30
HETATM   30  C4  UNL     1      19.968  13.328  14.307  1.00  0.00     0.047 C 
BRANCH  30  31
HETATM   31  C3  UNL     1      20.296  12.357  13.308  1.00  0.00     0.080 C 
BRANCH  31  32
HETATM   32  C2  UNL     1      21.575  11.647  13.756  1.00  0.00     0.123 C 
HETATM   33  C1  UNL     1      22.666  11.393  12.803  1.00  0.00     0.091 C 
HETATM   34  O1  UNL     1      21.691  11.291  14.905  1.00  0.00    -0.298 OA
ENDBRANCH  31  32
ENDBRANCH  30  31
ENDBRANCH   1  30
BRANCH   1  35
HETATM   35  N1  UNL     1      17.759  13.873  14.381  1.00  0.00    -0.069 N 
ATOM     36  H13 UNL     1      16.792  13.851  14.704  1.00  0.00     0.275 HD
ATOM     37  H12 UNL     1      17.795  14.892  14.341  1.00  0.00     0.275 HD
ATOM     38  H11 UNL     1      17.960  13.376  13.514  1.00  0.00     0.275 HD
ENDBRANCH   1  35
TORSDOF 10
ENDMDL
MODEL 5
REMARK VINA RESULT: -7.619054826      1.512      2.486
REMARK  10 active torsions:
REMARK  status: ('A' for Active; 'I' for Inactive)
REMARK    1  A    between atoms: C2_2  and  C3_4 
REMARK    2  A    between atoms: C3_4  and  C4_5 
REMARK    3  A    between atoms: C4_5  and  C5_6 
REMARK    4  A    between atoms: C5_6  and  N1_7 
REMARK    5  A    between atoms: C11_18  and  C12_19 
REMARK    6  A    between atoms: C12_19  and  S3_27 
REMARK    7  A    between atoms: N2_20  and  N3_22 
REMARK    8  A    between atoms: S3_27  and  N6_30 
REMARK    9  A    between atoms: N6_30  and  C14_32 
REMARK   10  A    between atoms: N7_33  and  N8_35 
ROOT
HETATM    1  C5  UNL     1      18.952  12.687  15.127  1.00  0.00     0.142 C 
HETATM    2  C6  UNL     1      18.625  11.212  15.375  1.00  0.00     0.114 C 
HETATM    3  S1  UNL     1      18.622  11.149  17.256  1.00  0.00    -0.150 SA
HETATM    4  C7  UNL     1      19.871  12.482  17.303  1.00  0.00     0.119 C 
HETATM    5  S2  UNL     1      20.223  13.236  18.863  1.00  0.00    -0.149 SA
HETATM    6  C8  UNL     1      20.041  15.050  18.358  1.00  0.00     0.109 C 
HETATM    7  C9  UNL     1      18.547  14.984  18.038  1.00  0.00    -0.065 C 
HETATM    8  C10 UNL     1      17.744  15.655  19.076  1.00  0.00     0.045 C 
HETATM    9  C11 UNL     1      18.074  14.189  17.064  1.00  0.00    -0.005 C 
HETATM   10  C15 UNL     1      19.127  13.432  16.330  1.00  0.00     0.082 C 
ENDROOT
BRANCH   9  11
HETATM   11  C12 UNL     1      16.661  14.208  16.837  1.00  0.00     0.171 C 
HETATM   12  N2  UNL     1      15.923  13.200  17.352  1.00  0.00    -0.286 N 
ATOM     13  H2  UNL     1      16.397  12.466  17.878  1.00  0.00     0.188 HD
BRANCH  12  14
HETATM   14  N3  UNL     1      14.551  13.123  17.196  1.00  0.00    -0.275 N 
HETATM   15  C13 UNL     1      13.741  13.595  18.082  1.00  0.00     0.215 C 
HETATM   16  N4  UNL     1      12.331  13.491  17.874  1.00  0.00    -0.065 NA
HETATM   17  N5  UNL     1      14.284  14.207  19.246  1.00  0.00    -0.065 NA
ATOM     18  H3  UNL     1      14.170  12.682  16.358  1.00  0.00     0.189 HD
ENDBRANCH  12  14
BRANCH  11  19
HETATM   19  S3  UNL     1      15.666  15.080  15.699  1.00  0.00     0.281 S 
HETATM   20  O2  UNL     1      14.289  14.475  15.501  1.00  0.00    -0.199 OA
HETATM   21  O3  UNL     1      16.270  15.354  14.397  1.00  0.00    -0.199 OA
BRANCH  19  22
HETATM   22  N6  UNL     1      15.278  16.690  16.407  1.00  0.00    -0.274 N 
ATOM     23  H6  UNL     1      16.000  17.362  16.669  1.00  0.00     0.179 HD
BRANCH  22  24
HETATM   24  C14 UNL     1      13.907  16.951  16.570  1.00  0.00     0.207 C 
HETATM   25  N7  UNL     1      13.221  17.338  15.525  1.00  0.00    -0.302 N 
ATOM     26  H7  UNL     1      12.224  17.533  15.617  1.00  0.00     0.187 HD
BRANCH  25  27
HETATM   27  N8  UNL     1      13.840  17.486  14.293  1.00  0.00    -0.344 N 
ATOM     28  H82 UNL     1      13.588  18.283  13.710  1.00  0.00     0.176 HD
ATOM     29  H81 UNL     1      14.534  16.808  13.978  1.00  0.00     0.176 HD
ENDBRANCH  25  27
ENDBRANCH  22  24
ENDBRANCH  19  22
ENDBRANCH  11  19
ENDBRANCH   9  11
BRANCH   1  30
HETATM   30  C4  UNL     1      20.141  12.847  14.171  1.00  0.00     0.047 C 
BRANCH  30  31
HETATM   31  C3  UNL     1      20.546  11.844  13.233  1.00  0.00     0.080 C 
BRANCH  31  32
HETATM   32  C2  UNL     1      21.909  11.315  13.684  1.00  0.00     0.123 C 
HETATM   33  C1  UNL     1      23.069  11.360  12.780  1.00  0.00     0.091 C 
HETATM   34  O1  UNL     1      22.036  10.856  14.794  1.00  0.00    -0.298 OA
ENDBRANCH  31  32
ENDBRANCH  30  31
ENDBRANCH   1  30
BRANCH   1  35
HETATM   35  N1  UNL     1      17.875  13.072  14.193  1.00  0.00    -0.069 N 
ATOM     36  H13 UNL     1      17.925  12.680  13.253  1.00  0.00     0.275 HD
ATOM     37  H12 UNL     1      16.950  12.685  14.380  1.00  0.00     0.275 HD
ATOM     38  H11 UNL     1      17.970  14.084  14.270  1.00  0.00     0.275 HD
ENDBRANCH   1  35
TORSDOF 10
ENDMDL
