MODEL 1
REMARK VINA RESULT: -7.296822956      0.000      0.000
REMARK  15 active torsions:
REMARK  status: ('A' for Active; 'I' for Inactive)
REMARK    1  A    between atoms: C2_2  and  C3_3 
REMARK    2  A    between atoms: C3_3  and  C4_4 
REMARK    3  A    between atoms: C4_4  and  N1_5 
REMARK    4  A    between atoms: N1_5  and  C5_6 
REMARK    5  A    between atoms: N1_5  and  C20_25 
REMARK    6  A    between atoms: C5_6  and  C6_7 
REMARK    7  A    between atoms: C5_6  and  C7_10 
REMARK    8  A    between atoms: C6_7  and  O1_8 
REMARK    9  A    between atoms: C7_10  and  O2_11 
REMARK   10  A    between atoms: O2_11  and  C8_12 
REMARK   11  A    between atoms: C8_12  and  C9_14 
REMARK   12  A    between atoms: C20_25  and  C21_26 
REMARK   13  A    between atoms: C20_25  and  C26_38 
REMARK       I    between atoms: C21_26  and  N2_28 
REMARK   14  A    between atoms: N2_28  and  C22_30 
REMARK   15  A    between atoms: C25_35  and  O7_36 
ROOT
HETATM    1  N1  UNL     1      -2.762   2.501  21.118  1.00  0.00    -0.391 N 
ENDROOT
BRANCH   1   2
HETATM    2  C4  UNL     1      -2.997   1.204  21.659  1.00  0.00     0.118 C 
BRANCH   2   3
HETATM    3  C3  UNL     1      -4.192   0.429  21.235  1.00  0.00     0.019 C 
BRANCH   3   4
HETATM    4  C2  UNL     1      -4.242   0.040  19.784  1.00  0.00    -0.003 C 
HETATM    5  C1  UNL     1      -4.666  -1.405  19.631  1.00  0.00     0.005 C 
ENDBRANCH   3   4
ENDBRANCH   2   3
ENDBRANCH   1   2
BRANCH   1   6
HETATM    6  C5  UNL     1      -1.472   2.774  20.710  1.00  0.00     0.128 C 
BRANCH   6   7
HETATM    7  C6  UNL     1      -0.509   3.432  21.698  1.00  0.00     0.191 C 
BRANCH   7   8
HETATM    8  O1  UNL     1      -0.073   4.674  21.310  1.00  0.00    -0.399 OA
ATOM      9  H1  UNL     1      -0.580   5.393  21.670  1.00  0.00     0.209 HD
ENDBRANCH   7   8
ENDBRANCH   6   7
BRANCH   6  10
HETATM   10  C7  UNL     1      -0.718   1.471  20.319  1.00  0.00     0.205 C 
BRANCH  10  11
HETATM   11  O2  UNL     1      -0.990   1.201  18.934  1.00  0.00    -0.319 OA
BRANCH  11  12
HETATM   12  C8  UNL     1       0.051   0.687  18.181  1.00  0.00     0.267 C 
HETATM   13  O3  UNL     1       1.011   1.446  17.909  1.00  0.00    -0.264 OA
BRANCH  12  14
HETATM   14  C9  UNL     1       0.030  -0.748  17.706  1.00  0.00     0.049 C 
HETATM   15  C10 UNL     1       1.295  -1.396  18.180  1.00  0.00     0.020 C 
HETATM   16  C11 UNL     1       1.674  -2.667  17.534  1.00  0.00     0.006 C 
HETATM   17  C12 UNL     1       0.605  -3.491  16.926  1.00  0.00    -0.014 C 
HETATM   18  C13 UNL     1       0.276  -2.995  15.552  1.00  0.00     0.009 C 
HETATM   19  C17 UNL     1      -0.613  -3.719  17.780  1.00  0.00     0.009 C 
HETATM   20  C14 UNL     1      -0.675  -1.849  15.558  1.00  0.00    -0.013 C 
HETATM   21  C15 UNL     1      -1.948  -2.271  16.234  1.00  0.00     0.009 C 
HETATM   22  C19 UNL     1      -0.050  -0.641  16.203  1.00  0.00     0.024 C 
HETATM   23  C16 UNL     1      -1.639  -2.643  17.645  1.00  0.00    -0.013 C 
HETATM   24  C18 UNL     1      -1.128  -1.420  18.351  1.00  0.00     0.024 C 
ENDBRANCH  12  14
ENDBRANCH  11  12
ENDBRANCH  10  11
ENDBRANCH   6  10
ENDBRANCH   1   6
BRANCH   1  25
HETATM   25  C20 UNL     1      -3.801   3.449  21.262  1.00  0.00     0.175 C 
BRANCH  25  26
HETATM   26  C21 UNL     1      -3.741   4.639  20.385  1.00  0.00     0.241 C 
HETATM   27  O4  UNL     1      -4.571   4.834  19.409  1.00  0.00    -0.271 OA
HETATM   28  N2  UNL     1      -2.810   5.700  20.478  1.00  0.00    -0.349 N 
ATOM     29  H2  UNL     1      -2.100   5.685  21.211  1.00  0.00     0.163 HD
BRANCH  28  30
HETATM   30  C22 UNL     1      -2.853   6.826  19.530  1.00  0.00     0.149 C 
HETATM   31  C23 UNL     1      -3.441   8.043  20.163  1.00  0.00     0.141 C 
HETATM   32  C24 UNL     1      -2.751   9.155  19.409  1.00  0.00     0.263 C 
HETATM   33  O5  UNL     1      -3.073  10.379  19.382  1.00  0.00    -0.265 OA
HETATM   34  O6  UNL     1      -1.665   8.622  18.716  1.00  0.00    -0.288 OA
HETATM   35  C25 UNL     1      -1.455   7.274  19.127  1.00  0.00     0.289 C 
BRANCH  35  36
HETATM   36  O7  UNL     1      -0.537   7.172  20.159  1.00  0.00    -0.369 OA
ATOM     37  H7  UNL     1       0.363   7.212  19.859  1.00  0.00     0.212 HD
ENDBRANCH  35  36
ENDBRANCH  28  30
ENDBRANCH  25  26
BRANCH  25  38
HETATM   38  C26 UNL     1      -4.128   3.838  22.662  1.00  0.00     0.009 C 
HETATM   39  C27 UNL     1      -3.217   4.683  23.445  1.00  0.00     0.012 C 
HETATM   40  C28 UNL     1      -5.540   4.304  22.823  1.00  0.00     0.012 C 
ENDBRANCH  25  38
ENDBRANCH   1  25
TORSDOF 15
ENDMDL
MODEL 2
REMARK VINA RESULT: -7.264522863      0.608      1.630
REMARK  15 active torsions:
REMARK  status: ('A' for Active; 'I' for Inactive)
REMARK    1  A    between atoms: C2_2  and  C3_3 
REMARK    2  A    between atoms: C3_3  and  C4_4 
REMARK    3  A    between atoms: C4_4  and  N1_5 
REMARK    4  A    between atoms: N1_5  and  C5_6 
REMARK    5  A    between atoms: N1_5  and  C20_25 
REMARK    6  A    between atoms: C5_6  and  C6_7 
REMARK    7  A    between atoms: C5_6  and  C7_10 
REMARK    8  A    between atoms: C6_7  and  O1_8 
REMARK    9  A    between atoms: C7_10  and  O2_11 
REMARK   10  A    between atoms: O2_11  and  C8_12 
REMARK   11  A    between atoms: C8_12  and  C9_14 
REMARK   12  A    between atoms: C20_25  and  C21_26 
REMARK   13  A    between atoms: C20_25  and  C26_38 
REMARK       I    between atoms: C21_26  and  N2_28 
REMARK   14  A    between atoms: N2_28  and  C22_30 
REMARK   15  A    between atoms: C25_35  and  O7_36 
ROOT
HETATM    1  N1  UNL     1      -2.781   2.483  21.067  1.00  0.00    -0.391 N 
ENDROOT
BRANCH   1   2
HETATM    2  C4  UNL     1      -3.058   1.184  21.582  1.00  0.00     0.118 C 
BRANCH   2   3
HETATM    3  C3  UNL     1      -4.316   0.489  21.205  1.00  0.00     0.019 C 
BRANCH   3   4
HETATM    4  C2  UNL     1      -4.195  -0.546  20.122  1.00  0.00    -0.003 C 
HETATM    5  C1  UNL     1      -3.299  -1.682  20.564  1.00  0.00     0.005 C 
ENDBRANCH   3   4
ENDBRANCH   2   3
ENDBRANCH   1   2
BRANCH   1   6
HETATM    6  C5  UNL     1      -1.498   2.704  20.609  1.00  0.00     0.128 C 
BRANCH   6   7
HETATM    7  C6  UNL     1      -0.459   3.278  21.571  1.00  0.00     0.191 C 
BRANCH   7   8
HETATM    8  O1  UNL     1      -0.091   4.571  21.291  1.00  0.00    -0.399 OA
ATOM      9  H1  UNL     1       0.802   4.660  20.977  1.00  0.00     0.209 HD
ENDBRANCH   7   8
ENDBRANCH   6   7
BRANCH   6  10
HETATM   10  C7  UNL     1      -0.832   1.379  20.140  1.00  0.00     0.205 C 
BRANCH  10  11
HETATM   11  O2  UNL     1      -0.874   1.346  18.705  1.00  0.00    -0.319 OA
BRANCH  11  12
HETATM   12  C8  UNL     1      -0.015   0.463  18.075  1.00  0.00     0.267 C 
HETATM   13  O3  UNL     1       1.207   0.744  18.053  1.00  0.00    -0.264 OA
BRANCH  12  14
HETATM   14  C9  UNL     1      -0.536  -0.804  17.435  1.00  0.00     0.049 C 
HETATM   15  C10 UNL     1      -2.004  -0.619  17.204  1.00  0.00     0.020 C 
HETATM   16  C11 UNL     1      -2.794  -1.836  16.939  1.00  0.00     0.006 C 
HETATM   17  C12 UNL     1      -2.100  -3.014  16.371  1.00  0.00    -0.014 C 
HETATM   18  C13 UNL     1      -1.423  -3.797  17.454  1.00  0.00     0.009 C 
HETATM   19  C17 UNL     1      -1.207  -2.743  15.191  1.00  0.00     0.009 C 
HETATM   20  C14 UNL     1      -0.089  -3.248  17.824  1.00  0.00    -0.013 C 
HETATM   21  C15 UNL     1       0.794  -3.243  16.610  1.00  0.00     0.009 C 
HETATM   22  C19 UNL     1      -0.229  -1.884  18.444  1.00  0.00     0.024 C 
HETATM   23  C16 UNL     1       0.183  -2.358  15.578  1.00  0.00    -0.013 C 
HETATM   24  C18 UNL     1       0.144  -0.959  16.123  1.00  0.00     0.024 C 
ENDBRANCH  12  14
ENDBRANCH  11  12
ENDBRANCH  10  11
ENDBRANCH   6  10
ENDBRANCH   1   6
BRANCH   1  25
HETATM   25  C20 UNL     1      -3.763   3.477  21.285  1.00  0.00     0.175 C 
BRANCH  25  26
HETATM   26  C21 UNL     1      -3.718   4.662  20.400  1.00  0.00     0.241 C 
HETATM   27  O4  UNL     1      -4.558   4.846  19.431  1.00  0.00    -0.271 OA
HETATM   28  N2  UNL     1      -2.791   5.728  20.478  1.00  0.00    -0.349 N 
ATOM     29  H2  UNL     1      -2.074   5.722  21.203  1.00  0.00     0.163 HD
BRANCH  28  30
HETATM   30  C22 UNL     1      -2.850   6.847  19.523  1.00  0.00     0.149 C 
HETATM   31  C23 UNL     1      -3.457   8.059  20.147  1.00  0.00     0.141 C 
HETATM   32  C24 UNL     1      -2.782   9.177  19.388  1.00  0.00     0.263 C 
HETATM   33  O5  UNL     1      -3.123  10.395  19.353  1.00  0.00    -0.265 OA
HETATM   34  O6  UNL     1      -1.687   8.657  18.700  1.00  0.00    -0.288 OA
HETATM   35  C25 UNL     1      -1.457   7.314  19.120  1.00  0.00     0.289 C 
BRANCH  35  36
HETATM   36  O7  UNL     1      -0.540   7.232  20.155  1.00  0.00    -0.369 OA
ATOM     37  H7  UNL     1       0.360   7.234  19.852  1.00  0.00     0.212 HD
ENDBRANCH  35  36
ENDBRANCH  28  30
ENDBRANCH  25  26
BRANCH  25  38
HETATM   38  C26 UNL     1      -3.965   3.883  22.703  1.00  0.00     0.009 C 
HETATM   39  C27 UNL     1      -3.015   4.777  23.377  1.00  0.00     0.012 C 
HETATM   40  C28 UNL     1      -5.371   4.299  22.996  1.00  0.00     0.012 C 
ENDBRANCH  25  38
ENDBRANCH   1  25
TORSDOF 15
ENDMDL
MODEL 3
REMARK VINA RESULT: -7.196294109      1.702      2.536
REMARK  15 active torsions:
REMARK  status: ('A' for Active; 'I' for Inactive)
REMARK    1  A    between atoms: C2_2  and  C3_3 
REMARK    2  A    between atoms: C3_3  and  C4_4 
REMARK    3  A    between atoms: C4_4  and  N1_5 
REMARK    4  A    between atoms: N1_5  and  C5_6 
REMARK    5  A    between atoms: N1_5  and  C20_25 
REMARK    6  A    between atoms: C5_6  and  C6_7 
REMARK    7  A    between atoms: C5_6  and  C7_10 
REMARK    8  A    between atoms: C6_7  and  O1_8 
REMARK    9  A    between atoms: C7_10  and  O2_11 
REMARK   10  A    between atoms: O2_11  and  C8_12 
REMARK   11  A    between atoms: C8_12  and  C9_14 
REMARK   12  A    between atoms: C20_25  and  C21_26 
REMARK   13  A    between atoms: C20_25  and  C26_38 
REMARK       I    between atoms: C21_26  and  N2_28 
REMARK   14  A    between atoms: N2_28  and  C22_30 
REMARK   15  A    between atoms: C25_35  and  O7_36 
ROOT
HETATM    1  N1  UNL     1      -2.827   2.639  21.183  1.00  0.00    -0.391 N 
ENDROOT
BRANCH   1   2
HETATM    2  C4  UNL     1      -2.999   1.402  21.868  1.00  0.00     0.118 C 
BRANCH   2   3
HETATM    3  C3  UNL     1      -4.254   0.626  21.693  1.00  0.00     0.019 C 
BRANCH   3   4
HETATM    4  C2  UNL     1      -4.683   0.382  20.273  1.00  0.00    -0.003 C 
HETATM    5  C1  UNL     1      -6.113   0.829  20.061  1.00  0.00     0.005 C 
ENDBRANCH   3   4
ENDBRANCH   2   3
ENDBRANCH   1   2
BRANCH   1   6
HETATM    6  C5  UNL     1      -1.573   2.885  20.661  1.00  0.00     0.128 C 
BRANCH   6   7
HETATM    7  C6  UNL     1      -0.465   3.368  21.597  1.00  0.00     0.191 C 
BRANCH   7   8
HETATM    8  O1  UNL     1      -0.090   4.672  21.392  1.00  0.00    -0.399 OA
ATOM      9  H1  UNL     1       0.829   4.843  21.565  1.00  0.00     0.209 HD
ENDBRANCH   7   8
ENDBRANCH   6   7
BRANCH   6  10
HETATM   10  C7  UNL     1      -0.958   1.597  20.044  1.00  0.00     0.205 C 
BRANCH  10  11
HETATM   11  O2  UNL     1       0.463   1.643  20.247  1.00  0.00    -0.319 OA
BRANCH  11  12
HETATM   12  C8  UNL     1       1.236   0.818  19.449  1.00  0.00     0.267 C 
HETATM   13  O3  UNL     1       1.552   1.230  18.308  1.00  0.00    -0.264 OA
BRANCH  12  14
HETATM   14  C9  UNL     1       1.688  -0.538  19.942  1.00  0.00     0.049 C 
HETATM   15  C10 UNL     1       1.375  -0.611  21.406  1.00  0.00     0.020 C 
HETATM   16  C11 UNL     1       2.050  -1.670  22.178  1.00  0.00     0.006 C 
HETATM   17  C12 UNL     1       2.504  -2.882  21.460  1.00  0.00    -0.014 C 
HETATM   18  C13 UNL     1       3.830  -2.639  20.806  1.00  0.00     0.009 C 
HETATM   19  C17 UNL     1       1.497  -3.514  20.537  1.00  0.00     0.009 C 
HETATM   20  C14 UNL     1       3.714  -1.957  19.487  1.00  0.00    -0.013 C 
HETATM   21  C15 UNL     1       2.873  -2.799  18.571  1.00  0.00     0.009 C 
HETATM   22  C19 UNL     1       3.170  -0.563  19.655  1.00  0.00     0.024 C 
HETATM   23  C16 UNL     1       1.511  -2.933  19.161  1.00  0.00    -0.013 C 
HETATM   24  C18 UNL     1       0.891  -1.567  19.226  1.00  0.00     0.024 C 
ENDBRANCH  12  14
ENDBRANCH  11  12
ENDBRANCH  10  11
ENDBRANCH   6  10
ENDBRANCH   1   6
BRANCH   1  25
HETATM   25  C20 UNL     1      -3.871   3.584  21.303  1.00  0.00     0.175 C 
BRANCH  25  26
HETATM   26  C21 UNL     1      -3.808   4.763  20.411  1.00  0.00     0.241 C 
HETATM   27  O4  UNL     1      -4.612   4.929  19.409  1.00  0.00    -0.271 OA
HETATM   28  N2  UNL     1      -2.899   5.841  20.515  1.00  0.00    -0.349 N 
ATOM     29  H2  UNL     1      -2.210   5.850  21.268  1.00  0.00     0.163 HD
BRANCH  28  30
HETATM   30  C22 UNL     1      -2.934   6.953  19.550  1.00  0.00     0.149 C 
HETATM   31  C23 UNL     1      -3.500   8.188  20.168  1.00  0.00     0.141 C 
HETATM   32  C24 UNL     1      -2.801   9.278  19.391  1.00  0.00     0.263 C 
HETATM   33  O5  UNL     1      -3.106  10.505  19.347  1.00  0.00    -0.265 OA
HETATM   34  O6  UNL     1      -1.729   8.719  18.697  1.00  0.00    -0.288 OA
HETATM   35  C25 UNL     1      -1.534   7.375  19.128  1.00  0.00     0.289 C 
BRANCH  35  36
HETATM   36  O7  UNL     1      -0.608   7.277  20.154  1.00  0.00    -0.369 OA
ATOM     37  H7  UNL     1      -0.712   7.953  20.812  1.00  0.00     0.212 HD
ENDBRANCH  35  36
ENDBRANCH  28  30
ENDBRANCH  25  26
BRANCH  25  38
HETATM   38  C26 UNL     1      -4.216   3.991  22.694  1.00  0.00     0.009 C 
HETATM   39  C27 UNL     1      -3.261   4.738  23.522  1.00  0.00     0.012 C 
HETATM   40  C28 UNL     1      -5.582   4.586  22.806  1.00  0.00     0.012 C 
ENDBRANCH  25  38
ENDBRANCH   1  25
TORSDOF 15
ENDMDL
MODEL 4
REMARK VINA RESULT: -7.137699509      3.679      8.693
REMARK  15 active torsions:
REMARK  status: ('A' for Active; 'I' for Inactive)
REMARK    1  A    between atoms: C2_2  and  C3_3 
REMARK    2  A    between atoms: C3_3  and  C4_4 
REMARK    3  A    between atoms: C4_4  and  N1_5 
REMARK    4  A    between atoms: N1_5  and  C5_6 
REMARK    5  A    between atoms: N1_5  and  C20_25 
REMARK    6  A    between atoms: C5_6  and  C6_7 
REMARK    7  A    between atoms: C5_6  and  C7_10 
REMARK    8  A    between atoms: C6_7  and  O1_8 
REMARK    9  A    between atoms: C7_10  and  O2_11 
REMARK   10  A    between atoms: O2_11  and  C8_12 
REMARK   11  A    between atoms: C8_12  and  C9_14 
REMARK   12  A    between atoms: C20_25  and  C21_26 
REMARK   13  A    between atoms: C20_25  and  C26_38 
REMARK       I    between atoms: C21_26  and  N2_28 
REMARK   14  A    between atoms: N2_28  and  C22_30 
REMARK   15  A    between atoms: C25_35  and  O7_36 
ROOT
HETATM    1  N1  UNL     1      -1.896   3.193  22.092  1.00  0.00    -0.391 N 
ENDROOT
BRANCH   1   2
HETATM    2  C4  UNL     1      -0.867   2.717  21.229  1.00  0.00     0.118 C 
BRANCH   2   3
HETATM    3  C3  UNL     1      -1.122   1.552  20.342  1.00  0.00     0.019 C 
BRANCH   3   4
HETATM    4  C2  UNL     1      -0.445   1.586  19.001  1.00  0.00    -0.003 C 
HETATM    5  C1  UNL     1      -0.632   0.273  18.273  1.00  0.00     0.005 C 
ENDBRANCH   3   4
ENDBRANCH   2   3
ENDBRANCH   1   2
BRANCH   1   6
HETATM    6  C5  UNL     1      -1.617   3.189  23.444  1.00  0.00     0.128 C 
BRANCH   6   7
HETATM    7  C6  UNL     1      -0.172   2.985  23.899  1.00  0.00     0.191 C 
BRANCH   7   8
HETATM    8  O1  UNL     1       0.602   4.117  23.825  1.00  0.00    -0.399 OA
ATOM      9  H1  UNL     1       1.537   3.949  23.859  1.00  0.00     0.209 HD
ENDBRANCH   7   8
ENDBRANCH   6   7
BRANCH   6  10
HETATM   10  C7  UNL     1      -1.991   4.548  24.100  1.00  0.00     0.205 C 
BRANCH  10  11
HETATM   11  O2  UNL     1      -1.794   4.425  25.518  1.00  0.00    -0.319 OA
BRANCH  11  12
HETATM   12  C8  UNL     1      -2.921   4.517  26.316  1.00  0.00     0.267 C 
HETATM   13  O3  UNL     1      -3.999   4.063  25.866  1.00  0.00    -0.264 OA
BRANCH  12  14
HETATM   14  C9  UNL     1      -2.849   5.145  27.690  1.00  0.00     0.049 C 
HETATM   15  C10 UNL     1      -4.134   5.882  27.913  1.00  0.00     0.020 C 
HETATM   16  C11 UNL     1      -4.152   6.870  29.009  1.00  0.00     0.006 C 
HETATM   17  C12 UNL     1      -3.197   6.697  30.126  1.00  0.00    -0.014 C 
HETATM   18  C13 UNL     1      -1.856   7.258  29.762  1.00  0.00     0.009 C 
HETATM   19  C17 UNL     1      -3.118   5.314  30.714  1.00  0.00     0.009 C 
HETATM   20  C14 UNL     1      -1.024   6.314  28.965  1.00  0.00    -0.013 C 
HETATM   21  C15 UNL     1      -0.820   5.053  29.756  1.00  0.00     0.009 C 
HETATM   22  C19 UNL     1      -1.650   6.058  27.620  1.00  0.00     0.024 C 
HETATM   23  C16 UNL     1      -2.148   4.425  30.007  1.00  0.00    -0.013 C 
HETATM   24  C18 UNL     1      -2.745   4.044  28.683  1.00  0.00     0.024 C 
ENDBRANCH  12  14
ENDBRANCH  11  12
ENDBRANCH  10  11
ENDBRANCH   6  10
ENDBRANCH   1   6
BRANCH   1  25
HETATM   25  C20 UNL     1      -3.168   3.402  21.511  1.00  0.00     0.175 C 
BRANCH  25  26
HETATM   26  C21 UNL     1      -3.298   4.553  20.591  1.00  0.00     0.241 C 
HETATM   27  O4  UNL     1      -4.182   4.598  19.645  1.00  0.00    -0.271 OA
HETATM   28  N2  UNL     1      -2.512   5.729  20.607  1.00  0.00    -0.349 N 
ATOM     29  H2  UNL     1      -1.780   5.837  21.309  1.00  0.00     0.163 HD
BRANCH  28  30
HETATM   30  C22 UNL     1      -2.739   6.800  19.622  1.00  0.00     0.149 C 
HETATM   31  C23 UNL     1      -3.357   7.999  20.259  1.00  0.00     0.141 C 
HETATM   32  C24 UNL     1      -2.836   9.121  19.393  1.00  0.00     0.263 C 
HETATM   33  O5  UNL     1      -3.257  10.314  19.347  1.00  0.00    -0.265 OA
HETATM   34  O6  UNL     1      -1.784   8.638  18.616  1.00  0.00    -0.288 OA
HETATM   35  C25 UNL     1      -1.427   7.332  19.060  1.00  0.00     0.289 C 
BRANCH  35  36
HETATM   36  O7  UNL     1      -0.407   7.351  19.996  1.00  0.00    -0.369 OA
ATOM     37  H7  UNL     1      -0.213   6.492  20.351  1.00  0.00     0.212 HD
ENDBRANCH  35  36
ENDBRANCH  28  30
ENDBRANCH  25  26
BRANCH  25  38
HETATM   38  C26 UNL     1      -4.322   3.342  22.451  1.00  0.00     0.009 C 
HETATM   39  C27 UNL     1      -5.289   4.445  22.533  1.00  0.00     0.012 C 
HETATM   40  C28 UNL     1      -5.032   2.027  22.419  1.00  0.00     0.012 C 
ENDBRANCH  25  38
ENDBRANCH   1  25
TORSDOF 15
ENDMDL
MODEL 5
REMARK VINA RESULT: -7.104079069      1.781      3.403
REMARK  15 active torsions:
REMARK  status: ('A' for Active; 'I' for Inactive)
REMARK    1  A    between atoms: C2_2  and  C3_3 
REMARK    2  A    between atoms: C3_3  and  C4_4 
REMARK    3  A    between atoms: C4_4  and  N1_5 
REMARK    4  A    between atoms: N1_5  and  C5_6 
REMARK    5  A    between atoms: N1_5  and  C20_25 
REMARK    6  A    between atoms: C5_6  and  C6_7 
REMARK    7  A    between atoms: C5_6  and  C7_10 
REMARK    8  A    between atoms: C6_7  and  O1_8 
REMARK    9  A    between atoms: C7_10  and  O2_11 
REMARK   10  A    between atoms: O2_11  and  C8_12 
REMARK   11  A    between atoms: C8_12  and  C9_14 
REMARK   12  A    between atoms: C20_25  and  C21_26 
REMARK   13  A    between atoms: C20_25  and  C26_38 
REMARK       I    between atoms: C21_26  and  N2_28 
REMARK   14  A    between atoms: N2_28  and  C22_30 
REMARK   15  A    between atoms: C25_35  and  O7_36 
ROOT
HETATM    1  N1  UNL     1      -2.805   3.398  22.356  1.00  0.00    -0.391 N 
ENDROOT
BRANCH   1   2
HETATM    2  C4  UNL     1      -3.048   3.639  23.739  1.00  0.00     0.118 C 
BRANCH   2   3
HETATM    3  C3  UNL     1      -2.895   5.010  24.292  1.00  0.00     0.019 C 
BRANCH   3   4
HETATM    4  C2  UNL     1      -2.882   5.116  25.791  1.00  0.00    -0.003 C 
HETATM    5  C1  UNL     1      -1.656   4.441  26.365  1.00  0.00     0.005 C 
ENDBRANCH   3   4
ENDBRANCH   2   3
ENDBRANCH   1   2
BRANCH   1   6
HETATM    6  C5  UNL     1      -1.486   3.251  21.979  1.00  0.00     0.128 C 
BRANCH   6   7
HETATM    7  C6  UNL     1      -0.522   2.538  22.926  1.00  0.00     0.191 C 
BRANCH   7   8
HETATM    8  O1  UNL     1       0.421   3.362  23.488  1.00  0.00    -0.399 OA
ATOM      9  H1  UNL     1       0.877   2.979  24.230  1.00  0.00     0.209 HD
ENDBRANCH   7   8
ENDBRANCH   6   7
BRANCH   6  10
HETATM   10  C7  UNL     1      -1.363   2.411  20.675  1.00  0.00     0.205 C 
BRANCH  10  11
HETATM   11  O2  UNL     1      -0.031   1.878  20.616  1.00  0.00    -0.319 OA
BRANCH  11  12
HETATM   12  C8  UNL     1       0.376   1.346  19.404  1.00  0.00     0.267 C 
HETATM   13  O3  UNL     1       0.194   2.031  18.370  1.00  0.00    -0.264 OA
BRANCH  12  14
HETATM   14  C9  UNL     1       1.022  -0.019  19.334  1.00  0.00     0.049 C 
HETATM   15  C10 UNL     1       0.824  -0.538  17.942  1.00  0.00     0.020 C 
HETATM   16  C11 UNL     1       1.034  -1.983  17.735  1.00  0.00     0.006 C 
HETATM   17  C12 UNL     1       1.925  -2.704  18.672  1.00  0.00    -0.014 C 
HETATM   18  C13 UNL     1       1.183  -3.082  19.917  1.00  0.00     0.009 C 
HETATM   19  C17 UNL     1       3.251  -2.051  18.949  1.00  0.00     0.009 C 
HETATM   20  C14 UNL     1       1.110  -1.975  20.912  1.00  0.00    -0.013 C 
HETATM   21  C15 UNL     1       2.504  -1.562  21.288  1.00  0.00     0.009 C 
HETATM   22  C19 UNL     1       0.292  -0.831  20.375  1.00  0.00     0.024 C 
HETATM   23  C16 UNL     1       3.201  -1.064  20.069  1.00  0.00    -0.013 C 
HETATM   24  C18 UNL     1       2.477   0.158  19.580  1.00  0.00     0.024 C 
ENDBRANCH  12  14
ENDBRANCH  11  12
ENDBRANCH  10  11
ENDBRANCH   6  10
ENDBRANCH   1   6
BRANCH   1  25
HETATM   25  C20 UNL     1      -3.902   3.562  21.479  1.00  0.00     0.175 C 
BRANCH  25  26
HETATM   26  C21 UNL     1      -3.837   4.701  20.538  1.00  0.00     0.241 C 
HETATM   27  O4  UNL     1      -4.575   4.777  19.475  1.00  0.00    -0.271 OA
HETATM   28  N2  UNL     1      -2.997   5.833  20.653  1.00  0.00    -0.349 N 
ATOM     29  H2  UNL     1      -2.365   5.914  21.450  1.00  0.00     0.163 HD
BRANCH  28  30
HETATM   30  C22 UNL     1      -3.022   6.897  19.635  1.00  0.00     0.149 C 
HETATM   31  C23 UNL     1      -3.527   8.180  20.206  1.00  0.00     0.141 C 
HETATM   32  C24 UNL     1      -2.814   9.205  19.357  1.00  0.00     0.263 C 
HETATM   33  O5  UNL     1      -3.078  10.439  19.260  1.00  0.00    -0.265 OA
HETATM   34  O6  UNL     1      -1.781   8.576  18.664  1.00  0.00    -0.288 OA
HETATM   35  C25 UNL     1      -1.620   7.248  19.155  1.00  0.00     0.289 C 
BRANCH  35  36
HETATM   36  O7  UNL     1      -0.670   7.167  20.160  1.00  0.00    -0.369 OA
ATOM     37  H7  UNL     1      -0.612   6.300  20.545  1.00  0.00     0.212 HD
ENDBRANCH  35  36
ENDBRANCH  28  30
ENDBRANCH  25  26
BRANCH  25  38
HETATM   38  C26 UNL     1      -5.249   3.471  22.108  1.00  0.00     0.009 C 
HETATM   39  C27 UNL     1      -6.082   4.667  22.288  1.00  0.00     0.012 C 
HETATM   40  C28 UNL     1      -6.067   2.340  21.574  1.00  0.00     0.012 C 
ENDBRANCH  25  38
ENDBRANCH   1  25
TORSDOF 15
ENDMDL
