MODEL 1
REMARK VINA RESULT: -6.509813091      0.000      0.000
REMARK  6 active torsions:
REMARK  status: ('A' for Active; 'I' for Inactive)
REMARK    1  A    between atoms: N2_7  and  C7_9 
REMARK    2  A    between atoms: C7_9  and  C8_10 
REMARK    3  A    between atoms: C8_10  and  C9_12 
REMARK    4  A    between atoms: C9_12  and  N3_13 
REMARK    5  A    between atoms: C16_21  and  O1_22 
REMARK    6  A    between atoms: C17_24  and  O2_26 
ROOT
HETATM    1  N3  UNL     1      16.109 -12.581  19.980  1.00  0.00    -0.029 N 
HETATM    2  C10 UNL     1      16.430 -11.179  20.158  1.00  0.00     0.269 C 
HETATM    3  C11 UNL     1      15.529 -10.525  21.177  1.00  0.00     0.265 C 
HETATM    4  N4  UNL     1      14.193 -11.079  21.063  1.00  0.00    -0.065 N 
HETATM    5  C12 UNL     1      13.360 -10.312  21.978  1.00  0.00     0.272 C 
HETATM    6  C13 UNL     1      14.105 -12.453  21.407  1.00  0.00     0.265 C 
HETATM    7  C14 UNL     1      15.450 -13.130  21.145  1.00  0.00     0.269 C 
HETATM    8  C15 UNL     1      13.652 -10.905  19.751  1.00  0.00     0.273 C 
HETATM    9  C16 UNL     1      14.162 -11.730  18.657  1.00  0.00     0.207 C 
HETATM   10  C17 UNL     1      15.181 -12.755  18.867  1.00  0.00     0.252 C 
HETATM   11  C18 UNL     1      15.946 -12.915  17.553  1.00  0.00     0.082 C 
ENDROOT
BRANCH   1  12
HETATM   12  C9  UNL     1      17.329 -13.276  19.727  1.00  0.00     0.259 C 
BRANCH  12  13
HETATM   13  C8  UNL     1      18.427 -13.194  20.709  1.00  0.00     0.110 C 
HETATM   14 BR1  UNL     1      20.068 -12.401  20.035  1.00  0.00    -0.088 Br
BRANCH  13  15
HETATM   15  C7  UNL     1      18.798 -14.619  21.075  1.00  0.00     0.257 C 
BRANCH  15  16
HETATM   16  N2  UNL     1      18.619 -14.964  22.447  1.00  0.00    -0.038 N 
HETATM   17  C2  UNL     1      19.858 -15.573  22.906  1.00  0.00     0.216 C 
HETATM   18  C1  UNL     1      20.029 -16.993  22.443  1.00  0.00     0.042 C 
HETATM   19  C3  UNL     1      19.703 -15.513  24.394  1.00  0.00     0.307 C 
HETATM   20  N1  UNL     1      19.133 -14.180  24.565  1.00  0.00     0.112 N 
HETATM   21  C4  UNL     1      20.247 -13.272  24.772  1.00  0.00     0.312 C 
HETATM   22  C5  UNL     1      18.405 -13.900  23.358  1.00  0.00     0.507 C 
HETATM   23  C6  UNL     1      17.518 -15.915  22.531  1.00  0.00     0.275 C 
ENDBRANCH  15  16
ENDBRANCH  13  15
ENDBRANCH  12  13
ENDBRANCH   1  12
BRANCH  10  24
HETATM   24  O2  UNL     1      14.559 -13.999  19.069  1.00  0.00    -0.363 OA
ATOM     25  H2  UNL     1      14.170 -14.239  18.236  1.00  0.00     0.212 HD
ENDBRANCH  10  24
BRANCH   9  26
HETATM   26  O1  UNL     1      14.522 -10.900  17.557  1.00  0.00    -0.389 OA
ATOM     27  H1  UNL     1      14.785 -11.441  16.821  1.00  0.00     0.210 HD
ENDBRANCH   9  26
TORSDOF 6
ENDMDL
MODEL 2
REMARK VINA RESULT: -6.432056929      2.616      6.281
REMARK  6 active torsions:
REMARK  status: ('A' for Active; 'I' for Inactive)
REMARK    1  A    between atoms: N2_7  and  C7_9 
REMARK    2  A    between atoms: C7_9  and  C8_10 
REMARK    3  A    between atoms: C8_10  and  C9_12 
REMARK    4  A    between atoms: C9_12  and  N3_13 
REMARK    5  A    between atoms: C16_21  and  O1_22 
REMARK    6  A    between atoms: C17_24  and  O2_26 
ROOT
HETATM    1  N3  UNL     1      18.403 -13.826  22.013  1.00  0.00    -0.029 N 
HETATM    2  C10 UNL     1      17.802 -14.867  21.203  1.00  0.00     0.269 C 
HETATM    3  C11 UNL     1      17.278 -16.000  22.051  1.00  0.00     0.265 C 
HETATM    4  N4  UNL     1      18.171 -16.212  23.174  1.00  0.00    -0.065 N 
HETATM    5  C12 UNL     1      17.676 -17.396  23.864  1.00  0.00     0.272 C 
HETATM    6  C13 UNL     1      18.211 -15.132  24.093  1.00  0.00     0.265 C 
HETATM    7  C14 UNL     1      17.882 -13.830  23.362  1.00  0.00     0.269 C 
HETATM    8  C15 UNL     1      19.506 -16.497  22.751  1.00  0.00     0.273 C 
HETATM    9  C16 UNL     1      20.327 -15.413  22.214  1.00  0.00     0.207 C 
HETATM   10  C17 UNL     1      19.842 -14.039  22.132  1.00  0.00     0.252 C 
HETATM   11  C18 UNL     1      20.580 -13.361  20.976  1.00  0.00     0.082 C 
ENDROOT
BRANCH   1  12
HETATM   12  C9  UNL     1      18.133 -12.576  21.381  1.00  0.00     0.259 C 
BRANCH  12  13
HETATM   13  C8  UNL     1      17.093 -12.500  20.338  1.00  0.00     0.110 C 
HETATM   14 BR1  UNL     1      17.759 -12.182  18.541  1.00  0.00    -0.088 Br
BRANCH  13  15
HETATM   15  C7  UNL     1      16.232 -11.291  20.660  1.00  0.00     0.257 C 
BRANCH  15  16
HETATM   16  N2  UNL     1      14.871 -11.576  20.976  1.00  0.00    -0.038 N 
HETATM   17  C2  UNL     1      14.234 -12.053  19.759  1.00  0.00     0.216 C 
HETATM   18  C1  UNL     1      13.907 -10.951  18.789  1.00  0.00     0.042 C 
HETATM   19  C3  UNL     1      12.984 -12.685  20.287  1.00  0.00     0.307 C 
HETATM   20  N1  UNL     1      13.493 -13.371  21.471  1.00  0.00     0.112 N 
HETATM   21  C4  UNL     1      13.847 -14.716  21.056  1.00  0.00     0.312 C 
HETATM   22  C5  UNL     1      14.629 -12.610  21.914  1.00  0.00     0.507 C 
HETATM   23  C6  UNL     1      14.249 -10.340  21.433  1.00  0.00     0.275 C 
ENDBRANCH  15  16
ENDBRANCH  13  15
ENDBRANCH  12  13
ENDBRANCH   1  12
BRANCH  10  24
HETATM   24  O2  UNL     1      20.248 -13.329  23.276  1.00  0.00    -0.363 OA
ATOM     25  H2  UNL     1      20.770 -13.934  23.790  1.00  0.00     0.212 HD
ENDBRANCH  10  24
BRANCH   9  26
HETATM   26  O1  UNL     1      20.890 -15.809  20.967  1.00  0.00    -0.389 OA
ATOM     27  H1  UNL     1      20.196 -16.015  20.352  1.00  0.00     0.210 HD
ENDBRANCH   9  26
TORSDOF 6
ENDMDL
MODEL 3
REMARK VINA RESULT: -6.385508113      1.377      1.778
REMARK  6 active torsions:
REMARK  status: ('A' for Active; 'I' for Inactive)
REMARK    1  A    between atoms: N2_7  and  C7_9 
REMARK    2  A    between atoms: C7_9  and  C8_10 
REMARK    3  A    between atoms: C8_10  and  C9_12 
REMARK    4  A    between atoms: C9_12  and  N3_13 
REMARK    5  A    between atoms: C16_21  and  O1_22 
REMARK    6  A    between atoms: C17_24  and  O2_26 
ROOT
HETATM    1  N3  UNL     1      15.234 -12.842  20.252  1.00  0.00    -0.029 N 
HETATM    2  C10 UNL     1      14.700 -12.077  19.142  1.00  0.00     0.269 C 
HETATM    3  C11 UNL     1      13.935 -10.866  19.618  1.00  0.00     0.265 C 
HETATM    4  N4  UNL     1      13.224 -11.195  20.838  1.00  0.00    -0.065 N 
HETATM    5  C12 UNL     1      12.412 -10.029  21.158  1.00  0.00     0.272 C 
HETATM    6  C13 UNL     1      14.070 -11.479  21.942  1.00  0.00     0.265 C 
HETATM    7  C14 UNL     1      15.404 -12.023  21.433  1.00  0.00     0.269 C 
HETATM    8  C15 UNL     1      12.331 -12.296  20.657  1.00  0.00     0.273 C 
HETATM    9  C16 UNL     1      12.881 -13.644  20.533  1.00  0.00     0.207 C 
HETATM   10  C17 UNL     1      14.314 -13.910  20.626  1.00  0.00     0.252 C 
HETATM   11  C18 UNL     1      14.599 -15.172  19.810  1.00  0.00     0.082 C 
ENDROOT
BRANCH   1  12
HETATM   12  C9  UNL     1      16.488 -13.384  19.840  1.00  0.00     0.259 C 
BRANCH  12  13
HETATM   13  C8  UNL     1      17.665 -13.239  20.719  1.00  0.00     0.110 C 
HETATM   14 BR1  UNL     1      19.078 -12.107  20.014  1.00  0.00    -0.088 Br
BRANCH  13  15
HETATM   15  C7  UNL     1      18.290 -14.617  20.848  1.00  0.00     0.257 C 
BRANCH  15  16
HETATM   16  N2  UNL     1      18.370 -15.130  22.176  1.00  0.00    -0.038 N 
HETATM   17  C2  UNL     1      19.745 -15.552  22.394  1.00  0.00     0.216 C 
HETATM   18  C1  UNL     1      20.075 -16.863  21.736  1.00  0.00     0.042 C 
HETATM   19  C3  UNL     1      19.800 -15.678  23.885  1.00  0.00     0.307 C 
HETATM   20  N1  UNL     1      19.052 -14.493  24.296  1.00  0.00     0.112 N 
HETATM   21  C4  UNL     1      20.022 -13.427  24.476  1.00  0.00     0.312 C 
HETATM   22  C5  UNL     1      18.121 -14.223  23.235  1.00  0.00     0.507 C 
HETATM   23  C6  UNL     1      17.462 -16.265  22.274  1.00  0.00     0.275 C 
ENDBRANCH  15  16
ENDBRANCH  13  15
ENDBRANCH  12  13
ENDBRANCH   1  12
BRANCH  10  24
HETATM   24  O2  UNL     1      14.640 -14.261  21.948  1.00  0.00    -0.363 OA
ATOM     25  H2  UNL     1      13.913 -14.782  22.270  1.00  0.00     0.212 HD
ENDBRANCH  10  24
BRANCH   9  26
HETATM   26  O1  UNL     1      12.340 -14.280  19.379  1.00  0.00    -0.389 OA
ATOM     27  H1  UNL     1      12.724 -13.905  18.596  1.00  0.00     0.210 HD
ENDBRANCH   9  26
TORSDOF 6
ENDMDL
MODEL 4
REMARK VINA RESULT: -6.305287982      3.726      5.345
REMARK  6 active torsions:
REMARK  status: ('A' for Active; 'I' for Inactive)
REMARK    1  A    between atoms: N2_7  and  C7_9 
REMARK    2  A    between atoms: C7_9  and  C8_10 
REMARK    3  A    between atoms: C8_10  and  C9_12 
REMARK    4  A    between atoms: C9_12  and  N3_13 
REMARK    5  A    between atoms: C16_21  and  O1_22 
REMARK    6  A    between atoms: C17_24  and  O2_26 
ROOT
HETATM    1  N3  UNL     1      15.247 -13.135  19.824  1.00  0.00    -0.029 N 
HETATM    2  C10 UNL     1      15.280 -13.133  21.273  1.00  0.00     0.269 C 
HETATM    3  C11 UNL     1      14.175 -12.284  21.854  1.00  0.00     0.265 C 
HETATM    4  N4  UNL     1      13.966 -11.123  21.011  1.00  0.00    -0.065 N 
HETATM    5  C12 UNL     1      12.988 -10.294  21.702  1.00  0.00     0.272 C 
HETATM    6  C13 UNL     1      13.472 -11.429  19.717  1.00  0.00     0.265 C 
HETATM    7  C14 UNL     1      13.924 -12.835  19.319  1.00  0.00     0.269 C 
HETATM    8  C15 UNL     1      15.156 -10.343  20.869  1.00  0.00     0.273 C 
HETATM    9  C16 UNL     1      16.239 -10.847  20.026  1.00  0.00     0.207 C 
HETATM   10  C17 UNL     1      16.130 -12.104  19.291  1.00  0.00     0.252 C 
HETATM   11  C18 UNL     1      17.546 -12.654  19.113  1.00  0.00     0.082 C 
ENDROOT
BRANCH   1  12
HETATM   12  C9  UNL     1      15.662 -14.427  19.384  1.00  0.00     0.259 C 
BRANCH  12  13
HETATM   13  C8  UNL     1      15.427 -15.599  20.249  1.00  0.00     0.110 C 
HETATM   14 BR1  UNL     1      17.025 -16.591  20.735  1.00  0.00    -0.088 Br
BRANCH  13  15
HETATM   15  C7  UNL     1      14.584 -16.575  19.448  1.00  0.00     0.257 C 
BRANCH  15  16
HETATM   16  N2  UNL     1      13.407 -17.046  20.102  1.00  0.00    -0.038 N 
HETATM   17  C2  UNL     1      12.461 -17.428  19.066  1.00  0.00     0.216 C 
HETATM   18  C1  UNL     1      11.780 -16.253  18.420  1.00  0.00     0.042 C 
HETATM   19  C3  UNL     1      11.476 -18.257  19.832  1.00  0.00     0.307 C 
HETATM   20  N1  UNL     1      12.368 -19.030  20.692  1.00  0.00     0.112 N 
HETATM   21  C4  UNL     1      12.665 -20.264  19.986  1.00  0.00     0.312 C 
HETATM   22  C5  UNL     1      13.532 -18.213  20.895  1.00  0.00     0.507 C 
HETATM   23  C6  UNL     1      12.874 -15.956  20.908  1.00  0.00     0.275 C 
ENDBRANCH  15  16
ENDBRANCH  13  15
ENDBRANCH  12  13
ENDBRANCH   1  12
BRANCH  10  24
HETATM   24  O2  UNL     1      15.683 -11.845  17.984  1.00  0.00    -0.363 OA
ATOM     25  H2  UNL     1      16.410 -12.055  17.409  1.00  0.00     0.212 HD
ENDBRANCH  10  24
BRANCH   9  26
HETATM   26  O1  UNL     1      17.468 -10.805  20.745  1.00  0.00    -0.389 OA
ATOM     27  H1  UNL     1      18.117 -11.339  20.302  1.00  0.00     0.210 HD
ENDBRANCH   9  26
TORSDOF 6
ENDMDL
MODEL 5
REMARK VINA RESULT: -6.239544666      1.725      2.757
REMARK  6 active torsions:
REMARK  status: ('A' for Active; 'I' for Inactive)
REMARK    1  A    between atoms: N2_7  and  C7_9 
REMARK    2  A    between atoms: C7_9  and  C8_10 
REMARK    3  A    between atoms: C8_10  and  C9_12 
REMARK    4  A    between atoms: C9_12  and  N3_13 
REMARK    5  A    between atoms: C16_21  and  O1_22 
REMARK    6  A    between atoms: C17_24  and  O2_26 
ROOT
HETATM    1  N3  UNL     1      16.886 -13.387  20.492  1.00  0.00    -0.029 N 
HETATM    2  C10 UNL     1      16.363 -13.453  19.142  1.00  0.00     0.269 C 
HETATM    3  C11 UNL     1      15.542 -12.234  18.801  1.00  0.00     0.265 C 
HETATM    4  N4  UNL     1      14.803 -11.809  19.974  1.00  0.00    -0.065 N 
HETATM    5  C12 UNL     1      13.942 -10.720  19.535  1.00  0.00     0.272 C 
HETATM    6  C13 UNL     1      15.620 -11.344  21.036  1.00  0.00     0.265 C 
HETATM    7  C14 UNL     1      16.989 -12.021  20.958  1.00  0.00     0.269 C 
HETATM    8  C15 UNL     1      13.953 -12.844  20.475  1.00  0.00     0.273 C 
HETATM    9  C16 UNL     1      14.553 -13.976  21.179  1.00  0.00     0.207 C 
HETATM   10  C17 UNL     1      15.991 -14.067  21.421  1.00  0.00     0.252 C 
HETATM   11  C18 UNL     1      16.345 -15.552  21.514  1.00  0.00     0.082 C 
ENDROOT
BRANCH   1  12
HETATM   12  C9  UNL     1      18.171 -14.007  20.490  1.00  0.00     0.259 C 
BRANCH  12  13
HETATM   13  C8  UNL     1      19.289 -13.364  21.206  1.00  0.00     0.110 C 
HETATM   14 BR1  UNL     1      20.550 -12.418  20.071  1.00  0.00    -0.088 Br
BRANCH  13  15
HETATM   15  C7  UNL     1      20.095 -14.475  21.853  1.00  0.00     0.257 C 
BRANCH  15  16
HETATM   16  N2  UNL     1      20.426 -14.272  23.225  1.00  0.00    -0.038 N 
HETATM   17  C2  UNL     1      20.302 -15.556  23.895  1.00  0.00     0.216 C 
HETATM   18  C1  UNL     1      18.877 -15.948  24.170  1.00  0.00     0.042 C 
HETATM   19  C3  UNL     1      21.043 -15.315  25.174  1.00  0.00     0.307 C 
HETATM   20  N1  UNL     1      22.194 -14.556  24.694  1.00  0.00     0.112 N 
HETATM   21  C4  UNL     1      23.244 -15.520  24.416  1.00  0.00     0.312 C 
HETATM   22  C5  UNL     1      21.751 -13.863  23.516  1.00  0.00     0.507 C 
HETATM   23  C6  UNL     1      19.481 -13.311  23.777  1.00  0.00     0.275 C 
ENDBRANCH  15  16
ENDBRANCH  13  15
ENDBRANCH  12  13
ENDBRANCH   1  12
BRANCH  10  24
HETATM   24  O2  UNL     1      16.284 -13.551  22.695  1.00  0.00    -0.363 OA
ATOM     25  H2  UNL     1      15.842 -14.117  23.317  1.00  0.00     0.212 HD
ENDBRANCH  10  24
BRANCH   9  26
HETATM   26  O1  UNL     1      14.072 -15.197  20.623  1.00  0.00    -0.389 OA
ATOM     27  H1  UNL     1      13.559 -15.663  21.272  1.00  0.00     0.210 HD
ENDBRANCH   9  26
TORSDOF 6
ENDMDL
