MODEL 1
REMARK VINA RESULT: -6.263883086      0.000      0.000
REMARK  3 active torsions:
REMARK  status: ('A' for Active; 'I' for Inactive)
REMARK       I    between atoms: C2_2  and  N1_4 
REMARK    1  A    between atoms: N1_4  and  C3_6 
REMARK       I    between atoms: N2_9  and  C6_10 
REMARK       I    between atoms: C6_10  and  N4_14 
REMARK    2  A    between atoms: N4_14  and  C7_16 
REMARK    3  A    between atoms: C12_21  and  O2_22 
ROOT
HETATM    1  C3  UNL     1      17.058  -5.376  27.680  1.00  0.00     0.135 C 
HETATM    2  C4  UNL     1      18.321  -5.094  28.429  1.00  0.00     0.050 C 
HETATM    3  C5  UNL     1      17.776  -4.225  29.571  1.00  0.00     0.146 C 
HETATM    4  N2  UNL     1      16.661  -5.049  29.989  1.00  0.00    -0.190 N 
HETATM    5  C6  UNL     1      16.246  -5.220  31.333  1.00  0.00     0.672 C 
HETATM    6  N3  UNL     1      17.044  -5.050  32.342  1.00  0.00    -0.235 N 
ATOM      7  H31 UNL     1      16.746  -5.173  33.310  1.00  0.00     0.174 HD
ATOM      8  H32 UNL     1      18.001  -4.783  32.109  1.00  0.00     0.174 HD
HETATM    9  N4  UNL     1      14.904  -5.595  31.659  1.00  0.00    -0.222 N 
ATOM     10  H4  UNL     1      14.693  -6.535  31.995  1.00  0.00     0.178 HD
HETATM   11  C12 UNL     1      16.067  -5.647  28.813  1.00  0.00     0.260 C 
ENDROOT
BRANCH  11  12
HETATM   12  O2  UNL     1      15.880  -7.019  28.947  1.00  0.00    -0.374 OA
ATOM     13  H2  UNL     1      15.258  -7.187  29.645  1.00  0.00     0.212 HD
ENDBRANCH  11  12
BRANCH   9  14
HETATM   14  C7  UNL     1      13.852  -4.613  31.503  1.00  0.00     0.099 C 
HETATM   15  C8  UNL     1      12.529  -5.319  31.291  1.00  0.00     0.026 C 
HETATM   16  C9  UNL     1      11.923  -5.481  32.665  1.00  0.00     0.002 C 
HETATM   17  C10 UNL     1      12.636  -4.549  33.590  1.00  0.00     0.002 C 
HETATM   18  C11 UNL     1      13.667  -3.803  32.767  1.00  0.00     0.026 C 
ENDBRANCH   9  14
BRANCH   1  19
HETATM   19  N1  UNL     1      17.142  -6.469  26.766  1.00  0.00    -0.352 N 
HETATM   20  C2  UNL     1      16.659  -6.427  25.431  1.00  0.00     0.214 C 
HETATM   21  C1  UNL     1      16.746  -7.552  24.492  1.00  0.00     0.117 C 
HETATM   22  O1  UNL     1      16.128  -5.356  25.046  1.00  0.00    -0.274 OA
ATOM     23  H1  UNL     1      17.575  -7.333  27.092  1.00  0.00     0.163 HD
ENDBRANCH   1  19
TORSDOF 3
ENDMDL
MODEL 2
REMARK VINA RESULT: -6.182337650      2.929      5.468
REMARK  3 active torsions:
REMARK  status: ('A' for Active; 'I' for Inactive)
REMARK       I    between atoms: C2_2  and  N1_4 
REMARK    1  A    between atoms: N1_4  and  C3_6 
REMARK       I    between atoms: N2_9  and  C6_10 
REMARK       I    between atoms: C6_10  and  N4_14 
REMARK    2  A    between atoms: N4_14  and  C7_16 
REMARK    3  A    between atoms: C12_21  and  O2_22 
ROOT
HETATM    1  C3  UNL     1      17.918  -6.603  30.788  1.00  0.00     0.135 C 
HETATM    2  C4  UNL     1      17.461  -5.587  31.787  1.00  0.00     0.050 C 
HETATM    3  C5  UNL     1      17.287  -4.363  30.876  1.00  0.00     0.146 C 
HETATM    4  N2  UNL     1      16.517  -4.967  29.807  1.00  0.00    -0.190 N 
HETATM    5  C6  UNL     1      15.470  -4.321  29.107  1.00  0.00     0.672 C 
HETATM    6  N3  UNL     1      14.791  -3.336  29.610  1.00  0.00    -0.235 N 
ATOM      7  H31 UNL     1      14.036  -2.870  29.105  1.00  0.00     0.174 HD
ATOM      8  H32 UNL     1      15.057  -3.050  30.552  1.00  0.00     0.174 HD
HETATM    9  N4  UNL     1      15.096  -4.722  27.785  1.00  0.00    -0.222 N 
ATOM     10  H4  UNL     1      14.226  -5.227  27.621  1.00  0.00     0.178 HD
HETATM   11  C12 UNL     1      17.004  -6.313  29.597  1.00  0.00     0.260 C 
ENDROOT
BRANCH  11  12
HETATM   12  O2  UNL     1      15.979  -7.253  29.560  1.00  0.00    -0.374 OA
ATOM     13  H2  UNL     1      15.140  -6.807  29.582  1.00  0.00     0.212 HD
ENDBRANCH  11  12
BRANCH   9  14
HETATM   14  C7  UNL     1      15.978  -4.394  26.685  1.00  0.00     0.099 C 
HETATM   15  C8  UNL     1      16.902  -5.563  26.412  1.00  0.00     0.026 C 
HETATM   16  C9  UNL     1      16.208  -6.402  25.366  1.00  0.00     0.002 C 
HETATM   17  C10 UNL     1      15.142  -5.561  24.742  1.00  0.00     0.002 C 
HETATM   18  C11 UNL     1      15.203  -4.198  25.400  1.00  0.00     0.026 C 
ENDBRANCH   9  14
BRANCH   1  19
HETATM   19  N1  UNL     1      17.815  -7.955  31.229  1.00  0.00    -0.352 N 
HETATM   20  C2  UNL     1      18.885  -8.888  31.188  1.00  0.00     0.214 C 
HETATM   21  C1  UNL     1      18.778 -10.280  31.642  1.00  0.00     0.117 C 
HETATM   22  O1  UNL     1      19.983  -8.483  30.733  1.00  0.00    -0.274 OA
ATOM     23  H1  UNL     1      16.917  -8.273  31.596  1.00  0.00     0.163 HD
ENDBRANCH   1  19
TORSDOF 3
ENDMDL
MODEL 3
REMARK VINA RESULT: -6.065253839      2.873      6.100
REMARK  3 active torsions:
REMARK  status: ('A' for Active; 'I' for Inactive)
REMARK       I    between atoms: C2_2  and  N1_4 
REMARK    1  A    between atoms: N1_4  and  C3_6 
REMARK       I    between atoms: N2_9  and  C6_10 
REMARK       I    between atoms: C6_10  and  N4_14 
REMARK    2  A    between atoms: N4_14  and  C7_16 
REMARK    3  A    between atoms: C12_21  and  O2_22 
ROOT
HETATM    1  C3  UNL     1      18.179  -5.560  31.079  1.00  0.00     0.135 C 
HETATM    2  C4  UNL     1      17.175  -4.677  31.750  1.00  0.00     0.050 C 
HETATM    3  C5  UNL     1      16.709  -3.832  30.556  1.00  0.00     0.146 C 
HETATM    4  N2  UNL     1      16.462  -4.889  29.596  1.00  0.00    -0.190 N 
HETATM    5  C6  UNL     1      15.400  -4.892  28.659  1.00  0.00     0.672 C 
HETATM    6  N3  UNL     1      14.303  -4.221  28.837  1.00  0.00    -0.235 N 
ATOM      7  H31 UNL     1      13.538  -4.224  28.162  1.00  0.00     0.174 HD
ATOM      8  H32 UNL     1      14.248  -3.684  29.703  1.00  0.00     0.174 HD
HETATM    9  N4  UNL     1      15.476  -5.645  27.444  1.00  0.00    -0.222 N 
ATOM     10  H4  UNL     1      14.926  -6.496  27.324  1.00  0.00     0.178 HD
HETATM   11  C12 UNL     1      17.472  -5.910  29.768  1.00  0.00     0.260 C 
ENDROOT
BRANCH  11  12
HETATM   12  O2  UNL     1      16.932  -7.188  29.861  1.00  0.00    -0.374 OA
ATOM     13  H2  UNL     1      16.234  -7.283  29.223  1.00  0.00     0.212 HD
ENDBRANCH  11  12
BRANCH   9  14
HETATM   14  C7  UNL     1      16.350  -5.174  26.390  1.00  0.00     0.099 C 
HETATM   15  C8  UNL     1      17.290  -6.288  25.978  1.00  0.00     0.026 C 
HETATM   16  C9  UNL     1      16.605  -7.006  24.840  1.00  0.00     0.002 C 
HETATM   17  C10 UNL     1      15.525  -6.113  24.322  1.00  0.00     0.002 C 
HETATM   18  C11 UNL     1      15.567  -4.838  25.140  1.00  0.00     0.026 C 
ENDBRANCH   9  14
BRANCH   1  19
HETATM   19  N1  UNL     1      18.538  -6.723  31.823  1.00  0.00    -0.352 N 
HETATM   20  C2  UNL     1      19.622  -6.777  32.739  1.00  0.00     0.214 C 
HETATM   21  C1  UNL     1      19.990  -7.974  33.504  1.00  0.00     0.117 C 
HETATM   22  O1  UNL     1      20.299  -5.729  32.891  1.00  0.00    -0.274 OA
ATOM     23  H1  UNL     1      17.981  -7.567  31.690  1.00  0.00     0.163 HD
ENDBRANCH   1  19
TORSDOF 3
ENDMDL
MODEL 4
REMARK VINA RESULT: -6.013591105      2.725      3.416
REMARK  3 active torsions:
REMARK  status: ('A' for Active; 'I' for Inactive)
REMARK       I    between atoms: C2_2  and  N1_4 
REMARK    1  A    between atoms: N1_4  and  C3_6 
REMARK       I    between atoms: N2_9  and  C6_10 
REMARK       I    between atoms: C6_10  and  N4_14 
REMARK    2  A    between atoms: N4_14  and  C7_16 
REMARK    3  A    between atoms: C12_21  and  O2_22 
ROOT
HETATM    1  C3  UNL     1      16.755  -5.412  26.925  1.00  0.00     0.135 C 
HETATM    2  C4  UNL     1      16.903  -6.440  28.001  1.00  0.00     0.050 C 
HETATM    3  C5  UNL     1      17.356  -5.553  29.170  1.00  0.00     0.146 C 
HETATM    4  N2  UNL     1      16.361  -4.504  29.074  1.00  0.00    -0.190 N 
HETATM    5  C6  UNL     1      15.773  -3.850  30.184  1.00  0.00     0.672 C 
HETATM    6  N3  UNL     1      15.703  -4.390  31.362  1.00  0.00    -0.235 N 
ATOM      7  H31 UNL     1      15.279  -3.919  32.162  1.00  0.00     0.174 HD
ATOM      8  H32 UNL     1      16.099  -5.326  31.445  1.00  0.00     0.174 HD
HETATM    9  N4  UNL     1      15.216  -2.537  30.070  1.00  0.00    -0.222 N 
ATOM     10  H4  UNL     1      14.206  -2.396  30.082  1.00  0.00     0.178 HD
HETATM   11  C12 UNL     1      16.089  -4.257  27.675  1.00  0.00     0.260 C 
ENDROOT
BRANCH  11  12
HETATM   12  O2  UNL     1      14.728  -4.244  27.389  1.00  0.00    -0.374 OA
ATOM     13  H2  UNL     1      14.565  -3.669  26.650  1.00  0.00     0.212 HD
ENDBRANCH  11  12
BRANCH   9  14
HETATM   14  C7  UNL     1      16.117  -1.411  29.935  1.00  0.00     0.099 C 
HETATM   15  C8  UNL     1      15.366  -0.230  29.355  1.00  0.00     0.026 C 
HETATM   16  C9  UNL     1      14.854   0.555  30.539  1.00  0.00     0.002 C 
HETATM   17  C10 UNL     1      15.616   0.109  31.745  1.00  0.00     0.002 C 
HETATM   18  C11 UNL     1      16.609  -0.939  31.286  1.00  0.00     0.026 C 
ENDBRANCH   9  14
BRANCH   1  19
HETATM   19  N1  UNL     1      15.987  -5.837  25.801  1.00  0.00    -0.352 N 
HETATM   20  C2  UNL     1      16.475  -6.704  24.787  1.00  0.00     0.214 C 
HETATM   21  C1  UNL     1      15.684  -7.140  23.631  1.00  0.00     0.117 C 
HETATM   22  O1  UNL     1      17.658  -7.112  24.900  1.00  0.00    -0.274 OA
ATOM     23  H1  UNL     1      15.029  -5.498  25.720  1.00  0.00     0.163 HD
ENDBRANCH   1  19
TORSDOF 3
ENDMDL
MODEL 5
REMARK VINA RESULT: -6.010997450      2.850      3.346
REMARK  3 active torsions:
REMARK  status: ('A' for Active; 'I' for Inactive)
REMARK       I    between atoms: C2_2  and  N1_4 
REMARK    1  A    between atoms: N1_4  and  C3_6 
REMARK       I    between atoms: N2_9  and  C6_10 
REMARK       I    between atoms: C6_10  and  N4_14 
REMARK    2  A    between atoms: N4_14  and  C7_16 
REMARK    3  A    between atoms: C12_21  and  O2_22 
ROOT
HETATM    1  C3  UNL     1      16.212  -5.352  25.835  1.00  0.00     0.135 C 
HETATM    2  C4  UNL     1      16.833  -6.623  26.321  1.00  0.00     0.050 C 
HETATM    3  C5  UNL     1      17.713  -6.084  27.457  1.00  0.00     0.146 C 
HETATM    4  N2  UNL     1      16.742  -5.252  28.139  1.00  0.00    -0.190 N 
HETATM    5  C6  UNL     1      16.662  -5.096  29.544  1.00  0.00     0.672 C 
HETATM    6  N3  UNL     1      17.114  -5.984  30.377  1.00  0.00    -0.235 N 
ATOM      7  H31 UNL     1      17.057  -5.872  31.389  1.00  0.00     0.174 HD
ATOM      8  H32 UNL     1      17.535  -6.812  29.956  1.00  0.00     0.174 HD
HETATM    9  N4  UNL     1      16.072  -3.935  30.136  1.00  0.00    -0.222 N 
ATOM     10  H4  UNL     1      15.159  -3.987  30.588  1.00  0.00     0.178 HD
HETATM   11  C12 UNL     1      15.894  -4.630  27.145  1.00  0.00     0.260 C 
ENDROOT
BRANCH  11  12
HETATM   12  O2  UNL     1      14.541  -4.768  27.434  1.00  0.00    -0.374 OA
ATOM     13  H2  UNL     1      14.318  -4.219  28.177  1.00  0.00     0.212 HD
ENDBRANCH  11  12
BRANCH   9  14
HETATM   14  C7  UNL     1      16.797  -2.683  30.079  1.00  0.00     0.099 C 
HETATM   15  C8  UNL     1      15.932  -1.626  29.426  1.00  0.00     0.026 C 
HETATM   16  C9  UNL     1      15.197  -0.939  30.553  1.00  0.00     0.002 C 
HETATM   17  C10 UNL     1      15.904  -1.274  31.827  1.00  0.00     0.002 C 
HETATM   18  C11 UNL     1      17.084  -2.153  31.467  1.00  0.00     0.026 C 
ENDBRANCH   9  14
BRANCH   1  19
HETATM   19  N1  UNL     1      15.052  -5.530  25.024  1.00  0.00    -0.352 N 
HETATM   20  C2  UNL     1      14.987  -6.412  23.913  1.00  0.00     0.214 C 
HETATM   21  C1  UNL     1      13.793  -6.594  23.079  1.00  0.00     0.117 C 
HETATM   22  O1  UNL     1      16.023  -7.067  23.638  1.00  0.00    -0.274 OA
ATOM     23  H1  UNL     1      14.218  -4.991  25.257  1.00  0.00     0.163 HD
ENDBRANCH   1  19
TORSDOF 3
ENDMDL
