MODEL 1
REMARK VINA RESULT: -5.565925061      0.000      0.000
REMARK  3 active torsions:
REMARK  status: ('A' for Active; 'I' for Inactive)
REMARK       I    between atoms: C1_4  and  N3_6 
REMARK    1  A    between atoms: N3_6  and  N4_8 
REMARK    2  A    between atoms: N5_10  and  C2_12 
REMARK    3  A    between atoms: C4_15  and  S2_16 
ROOT
HETATM    1  N4  UNL     1       3.228  -9.307  74.037  1.00  0.00    -0.239 N 
ATOM      2  H4  UNL     1       3.216 -10.074  73.364  1.00  0.00     0.208 HD
HETATM    3  N5  UNL     1       2.171  -8.963  74.651  1.00  0.00    -0.270 N 
ATOM      4  H5  UNL     1       2.190  -8.195  75.322  1.00  0.00     0.190 HD
ENDROOT
BRANCH   3   5
HETATM    5  C2  UNL     1       0.937  -9.680  74.383  1.00  0.00     0.129 A 
HETATM    6  C3  UNL     1       0.978 -11.040  74.198  1.00  0.00     0.102 A 
HETATM    7  S1  UNL     1      -0.681 -11.395  73.923  1.00  0.00    -0.072 SA
HETATM    8  C4  UNL     1      -1.300  -9.808  74.062  1.00  0.00     0.125 A 
HETATM    9  N6  UNL     1      -0.221  -9.104  74.307  1.00  0.00    -0.329 N 
ATOM     10  H6  UNL     1      -0.293  -8.095  74.438  1.00  0.00     0.168 HD
BRANCH   8  11
HETATM   11  S2  UNL     1      -3.020  -9.256  73.907  1.00  0.00    -0.020 SA
HETATM   12  S3  UNL     1      -3.240  -7.303  74.687  1.00  0.00    -0.006 SA
ENDBRANCH   8  11
ENDBRANCH   3   5
BRANCH   1  13
HETATM   13  N3  UNL     1       4.407  -8.607  74.306  1.00  0.00    -0.259 N 
HETATM   14  C1  UNL     1       5.510  -8.847  73.441  1.00  0.00     0.201 C 
HETATM   15  N1  UNL     1       5.553  -8.269  72.292  1.00  0.00    -0.372 N 
HETATM   16  N2  UNL     1       6.539  -9.714  73.855  1.00  0.00    -0.062 NA
ATOM     17  H12 UNL     1       6.343  -8.442  71.671  1.00  0.00     0.158 HD
ATOM     18  H11 UNL     1       4.807  -7.642  71.991  1.00  0.00     0.158 HD
ATOM     19  H3  UNL     1       4.474  -7.954  75.087  1.00  0.00     0.191 HD
ENDBRANCH   1  13
TORSDOF 3
ENDMDL
MODEL 2
REMARK VINA RESULT: -5.422129387      1.749      3.235
REMARK  3 active torsions:
REMARK  status: ('A' for Active; 'I' for Inactive)
REMARK       I    between atoms: C1_4  and  N3_6 
REMARK    1  A    between atoms: N3_6  and  N4_8 
REMARK    2  A    between atoms: N5_10  and  C2_12 
REMARK    3  A    between atoms: C4_15  and  S2_16 
ROOT
HETATM    1  N4  UNL     1       3.256  -9.334  73.970  1.00  0.00    -0.239 N 
ATOM      2  H4  UNL     1       3.048  -9.557  72.996  1.00  0.00     0.208 HD
HETATM    3  N5  UNL     1       2.481  -9.705  74.904  1.00  0.00    -0.270 N 
ATOM      4  H5  UNL     1       2.694  -9.479  75.875  1.00  0.00     0.190 HD
ENDROOT
BRANCH   3   5
HETATM    5  C2  UNL     1       1.285 -10.458  74.568  1.00  0.00     0.129 A 
HETATM    6  C3  UNL     1       0.086  -9.797  74.453  1.00  0.00     0.102 A 
HETATM    7  S1  UNL     1      -0.976 -11.089  74.057  1.00  0.00    -0.072 SA
HETATM    8  C4  UNL     1       0.165 -12.360  74.065  1.00  0.00     0.125 A 
HETATM    9  N6  UNL     1       1.280 -11.738  74.366  1.00  0.00    -0.329 N 
ATOM     10  H6  UNL     1       2.150 -12.265  74.442  1.00  0.00     0.168 HD
BRANCH   8  11
HETATM   11  S2  UNL     1      -0.113 -14.122  73.737  1.00  0.00    -0.020 SA
HETATM   12  S3  UNL     1       1.180 -14.800  72.207  1.00  0.00    -0.006 SA
ENDBRANCH   8  11
ENDBRANCH   3   5
BRANCH   1  13
HETATM   13  N3  UNL     1       4.402  -8.610  74.311  1.00  0.00    -0.259 N 
HETATM   14  C1  UNL     1       5.545  -8.790  73.484  1.00  0.00     0.201 C 
HETATM   15  N1  UNL     1       5.618  -8.172  72.357  1.00  0.00    -0.372 N 
HETATM   16  N2  UNL     1       6.582  -9.641  73.911  1.00  0.00    -0.062 NA
ATOM     17  H12 UNL     1       6.437  -8.301  71.764  1.00  0.00     0.158 HD
ATOM     18  H11 UNL     1       4.866  -7.555  72.047  1.00  0.00     0.158 HD
ATOM     19  H3  UNL     1       4.419  -7.983  75.114  1.00  0.00     0.191 HD
ENDBRANCH   1  13
TORSDOF 3
ENDMDL
MODEL 3
REMARK VINA RESULT: -5.354896802      1.742      2.913
REMARK  3 active torsions:
REMARK  status: ('A' for Active; 'I' for Inactive)
REMARK       I    between atoms: C1_4  and  N3_6 
REMARK    1  A    between atoms: N3_6  and  N4_8 
REMARK    2  A    between atoms: N5_10  and  C2_12 
REMARK    3  A    between atoms: C4_15  and  S2_16 
ROOT
HETATM    1  N4  UNL     1       3.246  -9.333  73.970  1.00  0.00    -0.239 N 
ATOM      2  H4  UNL     1       3.040  -9.561  72.997  1.00  0.00     0.208 HD
HETATM    3  N5  UNL     1       2.468  -9.698  74.904  1.00  0.00    -0.270 N 
ATOM      4  H5  UNL     1       2.680  -9.467  75.874  1.00  0.00     0.190 HD
ENDROOT
BRANCH   3   5
HETATM    5  C2  UNL     1       1.272 -10.451  74.569  1.00  0.00     0.129 A 
HETATM    6  C3  UNL     1       0.076  -9.788  74.442  1.00  0.00     0.102 A 
HETATM    7  S1  UNL     1      -0.988 -11.081  74.053  1.00  0.00    -0.072 SA
HETATM    8  C4  UNL     1       0.150 -12.356  74.080  1.00  0.00     0.125 A 
HETATM    9  N6  UNL     1       1.264 -11.733  74.381  1.00  0.00    -0.329 N 
ATOM     10  H6  UNL     1       2.133 -12.262  74.467  1.00  0.00     0.168 HD
BRANCH   8  11
HETATM   11  S2  UNL     1      -0.131 -14.119  73.769  1.00  0.00    -0.020 SA
HETATM   12  S3  UNL     1      -2.013 -14.712  74.530  1.00  0.00    -0.006 SA
ENDBRANCH   8  11
ENDBRANCH   3   5
BRANCH   1  13
HETATM   13  N3  UNL     1       4.392  -8.609  74.309  1.00  0.00    -0.259 N 
HETATM   14  C1  UNL     1       5.535  -8.789  73.482  1.00  0.00     0.201 C 
HETATM   15  N1  UNL     1       5.607  -8.172  72.355  1.00  0.00    -0.372 N 
HETATM   16  N2  UNL     1       6.572  -9.640  73.910  1.00  0.00    -0.062 NA
ATOM     17  H12 UNL     1       6.426  -8.302  71.762  1.00  0.00     0.158 HD
ATOM     18  H11 UNL     1       4.855  -7.556  72.045  1.00  0.00     0.158 HD
ATOM     19  H3  UNL     1       4.409  -7.981  75.113  1.00  0.00     0.191 HD
ENDBRANCH   1  13
TORSDOF 3
ENDMDL
MODEL 4
REMARK VINA RESULT: -5.211898604      0.951      1.222
REMARK  3 active torsions:
REMARK  status: ('A' for Active; 'I' for Inactive)
REMARK       I    between atoms: C1_4  and  N3_6 
REMARK    1  A    between atoms: N3_6  and  N4_8 
REMARK    2  A    between atoms: N5_10  and  C2_12 
REMARK    3  A    between atoms: C4_15  and  S2_16 
ROOT
HETATM    1  N4  UNL     1       3.244  -9.275  73.991  1.00  0.00    -0.239 N 
ATOM      2  H4  UNL     1       3.012  -9.474  73.018  1.00  0.00     0.208 HD
HETATM    3  N5  UNL     1       2.471  -9.632  74.932  1.00  0.00    -0.270 N 
ATOM      4  H5  UNL     1       2.709  -9.429  75.903  1.00  0.00     0.190 HD
ENDROOT
BRANCH   3   5
HETATM    5  C2  UNL     1       1.242 -10.334  74.605  1.00  0.00     0.129 A 
HETATM    6  C3  UNL     1       1.307 -11.646  74.203  1.00  0.00     0.102 A 
HETATM    7  S1  UNL     1      -0.355 -12.002  73.945  1.00  0.00    -0.072 SA
HETATM    8  C4  UNL     1      -1.003 -10.478  74.362  1.00  0.00     0.125 A 
HETATM    9  N6  UNL     1       0.069  -9.789  74.671  1.00  0.00    -0.329 N 
ATOM     10  H6  UNL     1      -0.021  -8.817  74.966  1.00  0.00     0.168 HD
BRANCH   8  11
HETATM   11  S2  UNL     1      -2.741  -9.960  74.371  1.00  0.00    -0.020 SA
HETATM   12  S3  UNL     1      -3.800 -10.957  75.906  1.00  0.00    -0.006 SA
ENDBRANCH   8  11
ENDBRANCH   3   5
BRANCH   1  13
HETATM   13  N3  UNL     1       4.422  -8.600  74.323  1.00  0.00    -0.259 N 
HETATM   14  C1  UNL     1       5.543  -8.807  73.473  1.00  0.00     0.201 C 
HETATM   15  N1  UNL     1       5.619  -8.173  72.356  1.00  0.00    -0.372 N 
HETATM   16  N2  UNL     1       6.555  -9.704  73.867  1.00  0.00    -0.062 NA
ATOM     17  H12 UNL     1       6.423  -8.322  71.746  1.00  0.00     0.158 HD
ATOM     18  H11 UNL     1       4.886  -7.524  72.070  1.00  0.00     0.158 HD
ATOM     19  H3  UNL     1       4.476  -7.988  75.137  1.00  0.00     0.191 HD
ENDBRANCH   1  13
TORSDOF 3
ENDMDL
MODEL 5
REMARK VINA RESULT: -5.090415517      2.569      4.155
REMARK  3 active torsions:
REMARK  status: ('A' for Active; 'I' for Inactive)
REMARK       I    between atoms: C1_4  and  N3_6 
REMARK    1  A    between atoms: N3_6  and  N4_8 
REMARK    2  A    between atoms: N5_10  and  C2_12 
REMARK    3  A    between atoms: C4_15  and  S2_16 
ROOT
HETATM    1  N4  UNL     1       3.146  -9.397  73.944  1.00  0.00    -0.239 N 
ATOM      2  H4  UNL     1       2.218  -8.981  74.016  1.00  0.00     0.208 HD
HETATM    3  N5  UNL     1       3.296 -10.589  73.533  1.00  0.00    -0.270 N 
ATOM      4  H5  UNL     1       4.227 -10.999  73.463  1.00  0.00     0.190 HD
ENDROOT
BRANCH   3   5
HETATM    5  C2  UNL     1       2.121 -11.360  73.165  1.00  0.00     0.129 A 
HETATM    6  C3  UNL     1       0.882 -10.773  73.247  1.00  0.00     0.102 A 
HETATM    7  S1  UNL     1      -0.135 -12.055  72.723  1.00  0.00    -0.072 SA
HETATM    8  C4  UNL     1       1.073 -13.230  72.440  1.00  0.00     0.125 A 
HETATM    9  N6  UNL     1       2.171 -12.588  72.758  1.00  0.00    -0.329 N 
ATOM     10  H6  UNL     1       3.073 -13.060  72.684  1.00  0.00     0.168 HD
BRANCH   8  11
HETATM   11  S2  UNL     1       0.868 -14.932  71.850  1.00  0.00    -0.020 SA
HETATM   12  S3  UNL     1       2.733 -15.738  71.262  1.00  0.00    -0.006 SA
ENDBRANCH   8  11
ENDBRANCH   3   5
BRANCH   1  13
HETATM   13  N3  UNL     1       4.287  -8.670  74.293  1.00  0.00    -0.259 N 
HETATM   14  C1  UNL     1       5.436  -8.842  73.472  1.00  0.00     0.201 C 
HETATM   15  N1  UNL     1       5.512  -8.221  72.348  1.00  0.00    -0.372 N 
HETATM   16  N2  UNL     1       6.474  -9.691  73.903  1.00  0.00    -0.062 NA
ATOM     17  H12 UNL     1       6.336  -8.345  71.759  1.00  0.00     0.158 HD
ATOM     18  H11 UNL     1       4.760  -7.607  72.036  1.00  0.00     0.158 HD
ATOM     19  H3  UNL     1       4.297  -8.045  75.099  1.00  0.00     0.191 HD
ENDBRANCH   1  13
TORSDOF 3
ENDMDL
