MODEL 1
REMARK VINA RESULT: -5.764612649      0.000      0.000
REMARK  3 active torsions:
REMARK  status: ('A' for Active; 'I' for Inactive)
REMARK    1  A    between atoms: C1_2  and  C2_3 
REMARK    2  A    between atoms: C3_4  and  C4_5 
REMARK    3  A    between atoms: N2_9  and  O2_11 
ROOT
HETATM    1  C4  UNL     1      24.980  39.329  45.785  1.00  0.00     0.016 C 
HETATM    2  C5  UNL     1      23.980  39.983  45.584  1.00  0.00     0.066 C 
HETATM    3  O1  UNL     1      22.848  40.725  45.341  1.00  0.00    -0.313 OA
ATOM      4  H1  UNL     1      22.064  41.238  45.183  1.00  0.00     0.230 HD
ENDROOT
BRANCH   1   5
HETATM    5  C3  UNL     1      26.164  38.569  46.007  1.00  0.00    -0.005 C 
HETATM    6  C2  UNL     1      27.177  37.938  46.209  1.00  0.00    -0.018 C 
BRANCH   6   7
HETATM    7  C1  UNL     1      28.396  37.207  46.443  1.00  0.00     0.191 C 
HETATM    8  N1  UNL     1      29.199  37.515  47.556  1.00  0.00    -0.071 NA
HETATM    9  N2  UNL     1      28.784  36.264  45.651  1.00  0.00    -0.248 N 
ATOM     10  H2  UNL     1      29.653  35.768  45.847  1.00  0.00     0.196 HD
BRANCH   9  11
HETATM   11  O2  UNL     1      28.038  35.918  44.545  1.00  0.00    -0.288 OA
ATOM     12  H2  UNL     1      27.839  36.558  43.872  1.00  0.00     0.244 HD
ENDBRANCH   9  11
ENDBRANCH   6   7
ENDBRANCH   1   5
TORSDOF 3
ENDMDL
MODEL 2
REMARK VINA RESULT: -4.869252586      1.465      1.790
REMARK  3 active torsions:
REMARK  status: ('A' for Active; 'I' for Inactive)
REMARK    1  A    between atoms: C1_2  and  C2_3 
REMARK    2  A    between atoms: C3_4  and  C4_5 
REMARK    3  A    between atoms: N2_9  and  O2_11 
ROOT
HETATM    1  C4  UNL     1      24.969  39.405  45.727  1.00  0.00     0.016 C 
HETATM    2  C5  UNL     1      23.971  40.092  45.715  1.00  0.00     0.066 C 
HETATM    3  O1  UNL     1      22.840  40.875  45.688  1.00  0.00    -0.313 OA
ATOM      4  H1  UNL     1      22.058  41.413  45.678  1.00  0.00     0.230 HD
ENDROOT
BRANCH   1   5
HETATM    5  C3  UNL     1      26.150  38.609  45.728  1.00  0.00    -0.005 C 
HETATM    6  C2  UNL     1      27.160  37.943  45.711  1.00  0.00    -0.018 C 
BRANCH   6   7
HETATM    7  C1  UNL     1      28.356  37.141  45.668  1.00  0.00     0.191 C 
HETATM    8  N1  UNL     1      28.338  35.884  45.037  1.00  0.00    -0.071 NA
HETATM    9  N2  UNL     1      29.462  37.542  46.199  1.00  0.00    -0.248 N 
ATOM     10  H2  UNL     1      30.289  36.948  46.150  1.00  0.00     0.196 HD
BRANCH   9  11
HETATM   11  O2  UNL     1      29.540  38.765  46.831  1.00  0.00    -0.288 OA
ATOM     12  H2  UNL     1      30.212  38.936  47.480  1.00  0.00     0.244 HD
ENDBRANCH   9  11
ENDBRANCH   6   7
ENDBRANCH   1   5
TORSDOF 3
ENDMDL
MODEL 3
REMARK VINA RESULT: -4.619191372      1.111      1.112
REMARK  3 active torsions:
REMARK  status: ('A' for Active; 'I' for Inactive)
REMARK    1  A    between atoms: C1_2  and  C2_3 
REMARK    2  A    between atoms: C3_4  and  C4_5 
REMARK    3  A    between atoms: N2_9  and  O2_11 
ROOT
HETATM    1  C4  UNL     1      25.486  39.074  45.682  1.00  0.00     0.016 C 
HETATM    2  C5  UNL     1      24.384  39.438  45.331  1.00  0.00     0.066 C 
HETATM    3  O1  UNL     1      23.140  39.862  44.927  1.00  0.00    -0.313 OA
ATOM      4  H1  UNL     1      22.277  40.148  44.652  1.00  0.00     0.230 HD
ENDROOT
BRANCH   1   5
HETATM    5  C3  UNL     1      26.786  38.665  46.095  1.00  0.00    -0.005 C 
HETATM    6  C2  UNL     1      27.898  38.337  46.440  1.00  0.00    -0.018 C 
BRANCH   6   7
HETATM    7  C1  UNL     1      29.230  37.951  46.828  1.00  0.00     0.191 C 
HETATM    8  N1  UNL     1      30.028  38.833  47.579  1.00  0.00    -0.071 NA
HETATM    9  N2  UNL     1      29.727  36.804  46.503  1.00  0.00    -0.248 N 
ATOM     10  H2  UNL     1      30.675  36.565  46.795  1.00  0.00     0.196 HD
BRANCH   9  11
HETATM   11  O2  UNL     1      28.993  35.899  45.768  1.00  0.00    -0.288 OA
ATOM     12  H2  UNL     1      29.108  35.827  44.828  1.00  0.00     0.244 HD
ENDBRANCH   9  11
ENDBRANCH   6   7
ENDBRANCH   1   5
TORSDOF 3
ENDMDL
MODEL 4
REMARK VINA RESULT: -4.475595220      1.799      2.017
REMARK  3 active torsions:
REMARK  status: ('A' for Active; 'I' for Inactive)
REMARK    1  A    between atoms: C1_2  and  C2_3 
REMARK    2  A    between atoms: C3_4  and  C4_5 
REMARK    3  A    between atoms: N2_9  and  O2_11 
ROOT
HETATM    1  C4  UNL     1      25.211  39.029  45.662  1.00  0.00     0.016 C 
HETATM    2  C5  UNL     1      24.148  39.482  45.298  1.00  0.00     0.066 C 
HETATM    3  O1  UNL     1      22.946  39.998  44.873  1.00  0.00    -0.313 OA
ATOM      4  H1  UNL     1      22.112  40.353  44.587  1.00  0.00     0.230 HD
ENDROOT
BRANCH   1   5
HETATM    5  C3  UNL     1      26.471  38.509  46.077  1.00  0.00    -0.005 C 
HETATM    6  C2  UNL     1      27.549  38.087  46.429  1.00  0.00    -0.018 C 
BRANCH   6   7
HETATM    7  C1  UNL     1      28.842  37.594  46.826  1.00  0.00     0.191 C 
HETATM    8  N1  UNL     1      29.102  36.212  46.815  1.00  0.00    -0.071 NA
HETATM    9  N2  UNL     1      29.787  38.391  47.199  1.00  0.00    -0.248 N 
ATOM     10  H2  UNL     1      30.691  38.006  47.474  1.00  0.00     0.196 HD
BRANCH   9  11
HETATM   11  O2  UNL     1      29.591  39.754  47.230  1.00  0.00    -0.288 OA
ATOM     12  H2  UNL     1      29.877  40.271  47.973  1.00  0.00     0.244 HD
ENDBRANCH   9  11
ENDBRANCH   6   7
ENDBRANCH   1   5
TORSDOF 3
ENDMDL
MODEL 5
REMARK VINA RESULT: -4.095371691      3.425      5.449
REMARK  3 active torsions:
REMARK  status: ('A' for Active; 'I' for Inactive)
REMARK    1  A    between atoms: C1_2  and  C2_3 
REMARK    2  A    between atoms: C3_4  and  C4_5 
REMARK    3  A    between atoms: N2_9  and  O2_11 
ROOT
HETATM    1  C4  UNL     1      26.836  37.817  45.691  1.00  0.00     0.016 C 
HETATM    2  C5  UNL     1      27.787  37.074  45.583  1.00  0.00     0.066 C 
HETATM    3  O1  UNL     1      28.860  36.223  45.468  1.00  0.00    -0.313 OA
ATOM      4  H1  UNL     1      29.606  35.640  45.383  1.00  0.00     0.230 HD
ENDROOT
BRANCH   1   5
HETATM    5  C3  UNL     1      25.715  38.684  45.837  1.00  0.00    -0.005 C 
HETATM    6  C2  UNL     1      24.775  39.435  45.969  1.00  0.00    -0.018 C 
BRANCH   6   7
HETATM    7  C1  UNL     1      23.662  40.330  46.152  1.00  0.00     0.191 C 
HETATM    8  N1  UNL     1      23.493  41.003  47.375  1.00  0.00    -0.071 NA
HETATM    9  N2  UNL     1      22.798  40.538  45.216  1.00  0.00    -0.248 N 
ATOM     10  H2  UNL     1      22.021  41.179  45.380  1.00  0.00     0.196 HD
BRANCH   9  11
HETATM   11  O2  UNL     1      22.911  39.907  43.996  1.00  0.00    -0.288 OA
ATOM     12  H2  UNL     1      22.175  39.867  43.398  1.00  0.00     0.244 HD
ENDBRANCH   9  11
ENDBRANCH   6   7
ENDBRANCH   1   5
TORSDOF 3
ENDMDL
