MODEL 1
REMARK VINA RESULT: -7.434580392      0.000      0.000
REMARK  3 active torsions:
REMARK  status: ('A' for Active; 'I' for Inactive)
REMARK    1  A    between atoms: C2_2  and  C3_5 
REMARK    2  A    between atoms: C3_5  and  N1_6 
REMARK    3  A    between atoms: C8_13  and  N2_14 
ROOT
HETATM    1  N1  UNL     1      10.385  40.449 -19.118  1.00  0.00    -0.390 N 
ATOM      2  H1  UNL     1       9.846  41.069 -19.722  1.00  0.00     0.159 HD
HETATM    3  C4  UNL     1      11.652  40.490 -19.217  1.00  0.00    -0.003 C 
HETATM    4  C5  UNL     1      12.868  39.858 -18.632  1.00  0.00     0.037 C 
HETATM    5  C6  UNL     1      13.401  38.746 -19.478  1.00  0.00     0.058 C 
HETATM    6  C7  UNL     1      13.307  39.171 -20.924  1.00  0.00     0.010 A 
HETATM    7  S1  UNL     1      13.600  38.466 -22.452  1.00  0.00    -0.057 SA
HETATM    8  C8  UNL     1      13.181  39.800 -23.428  1.00  0.00     0.142 A 
HETATM    9  N3  UNL     1      12.834  40.730 -22.534  1.00  0.00    -0.339 N 
ATOM     10  H3  UNL     1      12.531  41.656 -22.835  1.00  0.00     0.168 HD
HETATM   11  C9  UNL     1      12.893  40.427 -21.270  1.00  0.00     0.034 A 
HETATM   12  C10 UNL     1      12.556  41.297 -20.075  1.00  0.00     0.083 C 
HETATM   13  C11 UNL     1      13.632  41.126 -19.039  1.00  0.00     0.027 C 
ENDROOT
BRANCH   1  14
HETATM   14  C3  UNL     1       9.665  39.610 -18.236  1.00  0.00     0.197 C 
BRANCH  14  15
HETATM   15  C2  UNL     1       8.325  40.258 -17.875  1.00  0.00     0.255 C 
HETATM   16  C1  UNL     1       7.407  40.229 -19.081  1.00  0.00     0.091 C 
HETATM   17  F1  UNL     1       8.505  41.529 -17.408  1.00  0.00    -0.205 F 
HETATM   18  F2  UNL     1       7.730  39.513 -16.869  1.00  0.00    -0.205 F 
ENDBRANCH  14  15
ENDBRANCH   1  14
BRANCH   8  19
HETATM   19  N2  UNL     1      13.187  39.914 -24.742  1.00  0.00    -0.380 N 
ATOM     20  H22 UNL     1      12.759  39.285 -25.421  1.00  0.00     0.158 HD
ATOM     21  H21 UNL     1      13.609  40.633 -25.328  1.00  0.00     0.158 HD
ENDBRANCH   8  19
TORSDOF 3
ENDMDL
MODEL 2
REMARK VINA RESULT: -7.382723216      0.722      1.122
REMARK  3 active torsions:
REMARK  status: ('A' for Active; 'I' for Inactive)
REMARK    1  A    between atoms: C2_2  and  C3_5 
REMARK    2  A    between atoms: C3_5  and  N1_6 
REMARK    3  A    between atoms: C8_13  and  N2_14 
ROOT
HETATM    1  N1  UNL     1      10.366  40.489 -19.361  1.00  0.00    -0.390 N 
ATOM      2  H1  UNL     1       9.872  41.123 -19.987  1.00  0.00     0.159 HD
HETATM    3  C4  UNL     1      11.638  40.498 -19.401  1.00  0.00    -0.003 C 
HETATM    4  C5  UNL     1      12.809  39.835 -18.763  1.00  0.00     0.037 C 
HETATM    5  C6  UNL     1      13.352  38.711 -19.586  1.00  0.00     0.058 C 
HETATM    6  C7  UNL     1      13.335  39.140 -21.034  1.00  0.00     0.010 A 
HETATM    7  S1  UNL     1      13.679  38.430 -22.549  1.00  0.00    -0.057 SA
HETATM    8  C8  UNL     1      13.339  39.775 -23.540  1.00  0.00     0.142 A 
HETATM    9  N3  UNL     1      12.976  40.712 -22.660  1.00  0.00    -0.339 N 
ATOM     10  H3  UNL     1      12.710  41.646 -22.973  1.00  0.00     0.168 HD
HETATM   11  C9  UNL     1      12.969  40.407 -21.396  1.00  0.00     0.034 A 
HETATM   12  C10 UNL     1      12.599  41.283 -20.216  1.00  0.00     0.083 C 
HETATM   13  C11 UNL     1      13.623  41.084 -19.131  1.00  0.00     0.027 C 
ENDROOT
BRANCH   1  14
HETATM   14  C3  UNL     1       9.586  39.668 -18.514  1.00  0.00     0.197 C 
BRANCH  14  15
HETATM   15  C2  UNL     1       8.204  40.295 -18.306  1.00  0.00     0.255 C 
HETATM   16  C1  UNL     1       7.804  40.169 -16.849  1.00  0.00     0.091 C 
HETATM   17  F1  UNL     1       7.278  39.727 -19.134  1.00  0.00    -0.205 F 
HETATM   18  F2  UNL     1       8.281  41.645 -18.611  1.00  0.00    -0.205 F 
ENDBRANCH  14  15
ENDBRANCH   1  14
BRANCH   8  19
HETATM   19  N2  UNL     1      13.409  39.890 -24.851  1.00  0.00    -0.380 N 
ATOM     20  H22 UNL     1      13.042  39.244 -25.551  1.00  0.00     0.158 HD
ATOM     21  H21 UNL     1      13.830  40.626 -25.417  1.00  0.00     0.158 HD
ENDBRANCH   8  19
TORSDOF 3
ENDMDL
MODEL 3
REMARK VINA RESULT: -7.240799666      3.870      6.188
REMARK  3 active torsions:
REMARK  status: ('A' for Active; 'I' for Inactive)
REMARK    1  A    between atoms: C2_2  and  C3_5 
REMARK    2  A    between atoms: C3_5  and  N1_6 
REMARK    3  A    between atoms: C8_13  and  N2_14 
ROOT
HETATM    1  N1  UNL     1       5.432  40.737 -15.764  1.00  0.00    -0.390 N 
ATOM      2  H1  UNL     1       5.701  41.710 -15.899  1.00  0.00     0.159 HD
HETATM    3  C4  UNL     1       6.352  39.907 -15.479  1.00  0.00    -0.003 C 
HETATM    4  C5  UNL     1       6.540  38.457 -15.192  1.00  0.00     0.037 C 
HETATM    5  C6  UNL     1       6.993  37.687 -16.391  1.00  0.00     0.058 C 
HETATM    6  C7  UNL     1       8.016  38.523 -17.124  1.00  0.00     0.010 A 
HETATM    7  S1  UNL     1       8.903  38.413 -18.580  1.00  0.00    -0.057 SA
HETATM    8  C8  UNL     1       9.770  39.876 -18.457  1.00  0.00     0.142 A 
HETATM    9  N3  UNL     1       9.339  40.384 -17.299  1.00  0.00    -0.339 N 
ATOM     10  H3  UNL     1       9.693  41.277 -16.957  1.00  0.00     0.168 HD
HETATM   11  C9  UNL     1       8.456  39.714 -16.618  1.00  0.00     0.034 A 
HETATM   12  C10 UNL     1       7.816  40.074 -15.292  1.00  0.00     0.083 C 
HETATM   13  C11 UNL     1       7.806  38.851 -14.417  1.00  0.00     0.027 C 
ENDROOT
BRANCH   1  14
HETATM   14  C3  UNL     1       4.062  40.413 -15.909  1.00  0.00     0.197 C 
BRANCH  14  15
HETATM   15  C2  UNL     1       3.805  39.841 -17.307  1.00  0.00     0.255 C 
HETATM   16  C1  UNL     1       2.619  40.548 -17.933  1.00  0.00     0.091 C 
HETATM   17  F1  UNL     1       3.618  38.490 -17.257  1.00  0.00    -0.205 F 
HETATM   18  F2  UNL     1       4.916  40.092 -18.098  1.00  0.00    -0.205 F 
ENDBRANCH  14  15
ENDBRANCH   1  14
BRANCH   8  19
HETATM   19  N2  UNL     1      10.653  40.400 -19.284  1.00  0.00    -0.380 N 
ATOM     20  H22 UNL     1      10.801  40.164 -20.265  1.00  0.00     0.158 HD
ATOM     21  H21 UNL     1      11.347  41.127 -19.115  1.00  0.00     0.158 HD
ENDBRANCH   8  19
TORSDOF 3
ENDMDL
MODEL 4
REMARK VINA RESULT: -6.808541531      1.892      2.172
REMARK  3 active torsions:
REMARK  status: ('A' for Active; 'I' for Inactive)
REMARK    1  A    between atoms: C2_2  and  C3_5 
REMARK    2  A    between atoms: C3_5  and  N1_6 
REMARK    3  A    between atoms: C8_13  and  N2_14 
ROOT
HETATM    1  N1  UNL     1       9.960  39.976 -19.194  1.00  0.00    -0.390 N 
ATOM      2  H1  UNL     1       9.357  39.595 -19.922  1.00  0.00     0.159 HD
HETATM    3  C4  UNL     1      11.167  40.230 -19.505  1.00  0.00    -0.003 C 
HETATM    4  C5  UNL     1      12.420  40.760 -18.897  1.00  0.00     0.037 C 
HETATM    5  C6  UNL     1      13.352  39.674 -18.462  1.00  0.00     0.058 C 
HETATM    6  C7  UNL     1      13.339  38.595 -19.519  1.00  0.00     0.010 A 
HETATM    7  S1  UNL     1      14.022  37.043 -19.723  1.00  0.00    -0.057 SA
HETATM    8  C8  UNL     1      13.383  36.689 -21.264  1.00  0.00     0.142 A 
HETATM    9  N3  UNL     1      12.673  37.782 -21.554  1.00  0.00    -0.339 N 
ATOM     10  H3  UNL     1      12.168  37.857 -22.437  1.00  0.00     0.168 HD
HETATM   11  C9  UNL     1      12.642  38.750 -20.685  1.00  0.00     0.034 A 
HETATM   12  C10 UNL     1      11.917  40.077 -20.777  1.00  0.00     0.083 C 
HETATM   13  C11 UNL     1      12.848  41.165 -20.315  1.00  0.00     0.027 C 
ENDROOT
BRANCH   1  14
HETATM   14  C3  UNL     1       9.390  40.181 -17.915  1.00  0.00     0.197 C 
BRANCH  14  15
HETATM   15  C2  UNL     1       8.016  40.844 -18.055  1.00  0.00     0.255 C 
HETATM   16  C1  UNL     1       7.041  39.862 -18.674  1.00  0.00     0.091 C 
HETATM   17  F1  UNL     1       8.101  41.997 -18.782  1.00  0.00    -0.205 F 
HETATM   18  F2  UNL     1       7.550  41.167 -16.791  1.00  0.00    -0.205 F 
ENDBRANCH  14  15
ENDBRANCH   1  14
BRANCH   8  19
HETATM   19  N2  UNL     1      13.536  35.611 -22.009  1.00  0.00    -0.380 N 
ATOM     20  H22 UNL     1      14.190  34.843 -21.860  1.00  0.00     0.158 HD
ATOM     21  H21 UNL     1      13.046  35.335 -22.859  1.00  0.00     0.158 HD
ENDBRANCH   8  19
TORSDOF 3
ENDMDL
MODEL 5
REMARK VINA RESULT: -6.784844375      4.775      7.504
REMARK  3 active torsions:
REMARK  status: ('A' for Active; 'I' for Inactive)
REMARK    1  A    between atoms: C2_2  and  C3_5 
REMARK    2  A    between atoms: C3_5  and  N1_6 
REMARK    3  A    between atoms: C8_13  and  N2_14 
ROOT
HETATM    1  N1  UNL     1       8.240  38.650 -18.937  1.00  0.00    -0.390 N 
ATOM      2  H1  UNL     1       7.852  38.919 -19.841  1.00  0.00     0.159 HD
HETATM    3  C4  UNL     1       7.482  38.013 -18.139  1.00  0.00    -0.003 C 
HETATM    4  C5  UNL     1       7.502  37.404 -16.779  1.00  0.00     0.037 C 
HETATM    5  C6  UNL     1       6.903  38.298 -15.740  1.00  0.00     0.058 C 
HETATM    6  C7  UNL     1       5.677  38.950 -16.335  1.00  0.00     0.010 A 
HETATM    7  S1  UNL     1       4.537  40.129 -15.858  1.00  0.00    -0.057 SA
HETATM    8  C8  UNL     1       3.568  40.123 -17.260  1.00  0.00     0.142 A 
HETATM    9  N3  UNL     1       4.164  39.213 -18.034  1.00  0.00    -0.339 N 
ATOM     10  H3  UNL     1       3.794  38.991 -18.959  1.00  0.00     0.168 HD
HETATM   11  C9  UNL     1       5.226  38.614 -17.581  1.00  0.00     0.034 A 
HETATM   12  C10 UNL     1       6.074  37.556 -18.259  1.00  0.00     0.083 C 
HETATM   13  C11 UNL     1       6.379  36.473 -17.260  1.00  0.00     0.027 C 
ENDROOT
BRANCH   1  14
HETATM   14  C3  UNL     1       9.580  39.015 -18.668  1.00  0.00     0.197 C 
BRANCH  14  15
HETATM   15  C2  UNL     1       9.614  40.294 -17.826  1.00  0.00     0.255 C 
HETATM   16  C1  UNL     1       8.381  41.126 -18.118  1.00  0.00     0.091 C 
HETATM   17  F1  UNL     1      10.762  40.998 -18.052  1.00  0.00    -0.205 F 
HETATM   18  F2  UNL     1       9.583  39.942 -16.486  1.00  0.00    -0.205 F 
ENDBRANCH  14  15
ENDBRANCH   1  14
BRANCH   8  19
HETATM   19  N2  UNL     1       2.491  40.832 -17.539  1.00  0.00    -0.380 N 
ATOM     20  H22 UNL     1       2.248  41.757 -17.185  1.00  0.00     0.158 HD
ATOM     21  H21 UNL     1       1.705  40.605 -18.148  1.00  0.00     0.158 HD
ENDBRANCH   8  19
TORSDOF 3
ENDMDL
