MODEL 1
REMARK VINA RESULT: -6.799561020      0.000      0.000
REMARK  4 active torsions:
REMARK  status: ('A' for Active; 'I' for Inactive)
REMARK    1  A    between atoms: C2_2  and  C5_5 
REMARK    2  A    between atoms: C5_5  and  C6_7 
REMARK    3  A    between atoms: C7_9  and  N1_10 
REMARK    4  A    between atoms: C8_15  and  C9_16 
ROOT
HETATM    1  C6  UNL     1       7.776  38.984 -17.617  1.00  0.00     0.083 A 
HETATM    2  S1  UNL     1       9.144  39.750 -18.362  1.00  0.00    -0.049 SA
HETATM    3  C7  UNL     1       9.805  38.394 -19.126  1.00  0.00     0.143 A 
HETATM    4  N2  UNL     1       8.965  37.417 -18.790  1.00  0.00    -0.334 N 
ATOM      5  H2  UNL     1       9.117  36.463 -19.118  1.00  0.00     0.168 HD
HETATM    6  C8  UNL     1       7.926  37.712 -18.020  1.00  0.00     0.104 A 
ENDROOT
BRANCH   1   7
HETATM    7  C5  UNL     1       6.782  39.673 -16.762  1.00  0.00     0.176 C 
HETATM    8  O1  UNL     1       5.661  40.026 -17.142  1.00  0.00    -0.291 OA
BRANCH   7   9
HETATM    9  C2  UNL     1       7.119  39.970 -15.365  1.00  0.00     0.015 C 
HETATM   10  C1  UNL     1       8.042  38.981 -14.721  1.00  0.00     0.023 C 
HETATM   11  C3  UNL     1       5.822  40.016 -14.568  1.00  0.00     0.023 C 
HETATM   12  C4  UNL     1       7.786  41.322 -15.288  1.00  0.00     0.023 C 
ENDBRANCH   7   9
ENDBRANCH   1   7
BRANCH   6  13
HETATM   13  C9  UNL     1       6.931  36.612 -17.665  1.00  0.00     0.283 C 
HETATM   14  C10 UNL     1       7.286  35.289 -18.229  1.00  0.00     0.097 C 
HETATM   15  F1  UNL     1       5.650  37.036 -18.069  1.00  0.00    -0.200 F 
HETATM   16  F2  UNL     1       6.787  36.461 -16.305  1.00  0.00    -0.200 F 
ENDBRANCH   6  13
BRANCH   3  17
HETATM   17  N1  UNL     1      10.886  38.310 -19.875  1.00  0.00    -0.380 N 
ATOM     18  H12 UNL     1      11.248  39.000 -20.532  1.00  0.00     0.158 HD
ATOM     19  H11 UNL     1      11.561  37.548 -19.944  1.00  0.00     0.158 HD
ENDBRANCH   3  17
TORSDOF 4
ENDMDL
MODEL 2
REMARK VINA RESULT: -6.571124781      0.969      1.253
REMARK  4 active torsions:
REMARK  status: ('A' for Active; 'I' for Inactive)
REMARK    1  A    between atoms: C2_2  and  C5_5 
REMARK    2  A    between atoms: C5_5  and  C6_7 
REMARK    3  A    between atoms: C7_9  and  N1_10 
REMARK    4  A    between atoms: C8_15  and  C9_16 
ROOT
HETATM    1  C6  UNL     1       6.901  39.274 -17.564  1.00  0.00     0.083 A 
HETATM    2  S1  UNL     1       7.983  40.418 -18.294  1.00  0.00    -0.049 SA
HETATM    3  C7  UNL     1       9.064  39.326 -19.001  1.00  0.00     0.143 A 
HETATM    4  N2  UNL     1       8.564  38.140 -18.659  1.00  0.00    -0.334 N 
ATOM      5  H2  UNL     1       9.021  37.277 -18.955  1.00  0.00     0.168 HD
HETATM    6  C8  UNL     1       7.460  38.107 -17.925  1.00  0.00     0.104 A 
ENDROOT
BRANCH   1   7
HETATM    7  C5  UNL     1       5.712  39.629 -16.757  1.00  0.00     0.176 C 
HETATM    8  O1  UNL     1       4.572  39.757 -17.214  1.00  0.00    -0.291 OA
BRANCH   7   9
HETATM    9  C2  UNL     1       5.863  39.850 -15.314  1.00  0.00     0.015 C 
HETATM   10  C1  UNL     1       7.230  40.293 -14.890  1.00  0.00     0.023 C 
HETATM   11  C3  UNL     1       5.530  38.546 -14.601  1.00  0.00     0.023 C 
HETATM   12  C4  UNL     1       4.888  40.912 -14.866  1.00  0.00     0.023 C 
ENDBRANCH   7   9
ENDBRANCH   1   7
BRANCH   6  13
HETATM   13  C9  UNL     1       6.850  36.756 -17.565  1.00  0.00     0.283 C 
HETATM   14  C10 UNL     1       7.474  35.617 -18.280  1.00  0.00     0.097 C 
HETATM   15  F1  UNL     1       5.462  36.829 -17.791  1.00  0.00    -0.200 F 
HETATM   16  F2  UNL     1       6.926  36.495 -16.217  1.00  0.00    -0.200 F 
ENDBRANCH   6  13
BRANCH   3  17
HETATM   17  N1  UNL     1      10.142  39.574 -19.718  1.00  0.00    -0.380 N 
ATOM     18  H12 UNL     1      10.306  39.351 -20.699  1.00  0.00     0.158 HD
ATOM     19  H11 UNL     1      11.010  40.030 -19.435  1.00  0.00     0.158 HD
ENDBRANCH   3  17
TORSDOF 4
ENDMDL
MODEL 3
REMARK VINA RESULT: -6.490733248      2.818      3.444
REMARK  4 active torsions:
REMARK  status: ('A' for Active; 'I' for Inactive)
REMARK    1  A    between atoms: C2_2  and  C5_5 
REMARK    2  A    between atoms: C5_5  and  C6_7 
REMARK    3  A    between atoms: C7_9  and  N1_10 
REMARK    4  A    between atoms: C8_15  and  C9_16 
ROOT
HETATM    1  C6  UNL     1       6.668  37.880 -16.349  1.00  0.00     0.083 A 
HETATM    2  S1  UNL     1       7.403  36.431 -16.958  1.00  0.00    -0.049 SA
HETATM    3  C7  UNL     1       6.373  36.160 -18.272  1.00  0.00     0.143 A 
HETATM    4  N2  UNL     1       5.515  37.176 -18.199  1.00  0.00    -0.334 N 
ATOM      5  H2  UNL     1       4.764  37.273 -18.882  1.00  0.00     0.168 HD
HETATM    6  C8  UNL     1       5.661  38.058 -17.220  1.00  0.00     0.104 A 
ENDROOT
BRANCH   1   7
HETATM    7  C5  UNL     1       7.124  38.623 -15.151  1.00  0.00     0.176 C 
HETATM    8  O1  UNL     1       6.750  38.384 -13.999  1.00  0.00    -0.291 OA
BRANCH   7   9
HETATM    9  C2  UNL     1       8.082  39.722 -15.309  1.00  0.00     0.015 C 
HETATM   10  C1  UNL     1       8.730  39.797 -16.658  1.00  0.00     0.023 C 
HETATM   11  C3  UNL     1       9.168  39.555 -14.255  1.00  0.00     0.023 C 
HETATM   12  C4  UNL     1       7.377  41.037 -15.077  1.00  0.00     0.023 C 
ENDBRANCH   7   9
ENDBRANCH   1   7
BRANCH   6  13
HETATM   13  C9  UNL     1       4.714  39.252 -17.152  1.00  0.00     0.283 C 
HETATM   14  C10 UNL     1       3.483  39.077 -17.959  1.00  0.00     0.097 C 
HETATM   15  F1  UNL     1       5.435  40.403 -17.524  1.00  0.00    -0.200 F 
HETATM   16  F2  UNL     1       4.330  39.538 -15.862  1.00  0.00    -0.200 F 
ENDBRANCH   6  13
BRANCH   3  17
HETATM   17  N1  UNL     1       6.401  35.186 -19.159  1.00  0.00    -0.380 N 
ATOM     18  H12 UNL     1       6.179  34.201 -19.015  1.00  0.00     0.158 HD
ATOM     19  H11 UNL     1       6.647  35.226 -20.148  1.00  0.00     0.158 HD
ENDBRANCH   3  17
TORSDOF 4
ENDMDL
MODEL 4
REMARK VINA RESULT: -6.404359707      2.625      4.070
REMARK  4 active torsions:
REMARK  status: ('A' for Active; 'I' for Inactive)
REMARK    1  A    between atoms: C2_2  and  C5_5 
REMARK    2  A    between atoms: C5_5  and  C6_7 
REMARK    3  A    between atoms: C7_9  and  N1_10 
REMARK    4  A    between atoms: C8_15  and  C9_16 
ROOT
HETATM    1  C6  UNL     1       7.293  38.321 -17.492  1.00  0.00     0.083 A 
HETATM    2  S1  UNL     1       8.583  39.342 -18.044  1.00  0.00    -0.049 SA
HETATM    3  C7  UNL     1       7.656  40.661 -18.558  1.00  0.00     0.143 A 
HETATM    4  N2  UNL     1       6.409  40.278 -18.290  1.00  0.00    -0.334 N 
ATOM      5  H2  UNL     1       5.620  40.889 -18.500  1.00  0.00     0.168 HD
HETATM    6  C8  UNL     1       6.217  39.084 -17.745  1.00  0.00     0.104 A 
ENDROOT
BRANCH   1   7
HETATM    7  C5  UNL     1       7.470  36.965 -16.923  1.00  0.00     0.176 C 
HETATM    8  O1  UNL     1       7.369  36.694 -15.723  1.00  0.00    -0.291 OA
BRANCH   7   9
HETATM    9  C2  UNL     1       7.789  35.847 -17.818  1.00  0.00     0.015 C 
HETATM   10  C1  UNL     1       6.658  35.408 -18.697  1.00  0.00     0.023 C 
HETATM   11  C3  UNL     1       8.224  34.666 -16.959  1.00  0.00     0.023 C 
HETATM   12  C4  UNL     1       8.934  36.239 -18.721  1.00  0.00     0.023 C 
ENDBRANCH   7   9
ENDBRANCH   1   7
BRANCH   6  13
HETATM   13  C9  UNL     1       4.798  38.651 -17.391  1.00  0.00     0.283 C 
HETATM   14  C10 UNL     1       3.765  39.641 -17.777  1.00  0.00     0.097 C 
HETATM   15  F1  UNL     1       4.763  38.355 -16.014  1.00  0.00    -0.200 F 
HETATM   16  F2  UNL     1       4.462  37.449 -17.969  1.00  0.00    -0.200 F 
ENDBRANCH   6  13
BRANCH   3  17
HETATM   17  N1  UNL     1       8.057  41.796 -19.094  1.00  0.00    -0.380 N 
ATOM     18  H12 UNL     1       8.901  41.968 -19.639  1.00  0.00     0.158 HD
ATOM     19  H11 UNL     1       7.607  42.711 -19.068  1.00  0.00     0.158 HD
ENDBRANCH   3  17
TORSDOF 4
ENDMDL
MODEL 5
REMARK VINA RESULT: -6.391022642      2.861      3.573
REMARK  4 active torsions:
REMARK  status: ('A' for Active; 'I' for Inactive)
REMARK    1  A    between atoms: C2_2  and  C5_5 
REMARK    2  A    between atoms: C5_5  and  C6_7 
REMARK    3  A    between atoms: C7_9  and  N1_10 
REMARK    4  A    between atoms: C8_15  and  C9_16 
ROOT
HETATM    1  C6  UNL     1       6.581  37.870 -16.390  1.00  0.00     0.083 A 
HETATM    2  S1  UNL     1       7.248  36.414 -17.059  1.00  0.00    -0.049 SA
HETATM    3  C7  UNL     1       6.191  36.231 -18.367  1.00  0.00     0.143 A 
HETATM    4  N2  UNL     1       5.377  37.279 -18.247  1.00  0.00    -0.334 N 
ATOM      5  H2  UNL     1       4.622  37.431 -18.916  1.00  0.00     0.168 HD
HETATM    6  C8  UNL     1       5.571  38.120 -17.240  1.00  0.00     0.104 A 
ENDROOT
BRANCH   1   7
HETATM    7  C5  UNL     1       7.082  38.551 -15.174  1.00  0.00     0.176 C 
HETATM    8  O1  UNL     1       6.772  38.236 -14.021  1.00  0.00    -0.291 OA
BRANCH   7   9
HETATM    9  C2  UNL     1       8.008  39.680 -15.313  1.00  0.00     0.015 C 
HETATM   10  C1  UNL     1       7.387  41.028 -15.104  1.00  0.00     0.023 C 
HETATM   11  C3  UNL     1       8.603  39.631 -16.715  1.00  0.00     0.023 C 
HETATM   12  C4  UNL     1       9.124  39.539 -14.306  1.00  0.00     0.023 C 
ENDBRANCH   7   9
ENDBRANCH   1   7
BRANCH   6  13
HETATM   13  C9  UNL     1       4.676  39.349 -17.119  1.00  0.00     0.283 C 
HETATM   14  C10 UNL     1       3.425  39.249 -17.907  1.00  0.00     0.097 C 
HETATM   15  F1  UNL     1       5.438  40.480 -17.469  1.00  0.00    -0.200 F 
HETATM   16  F2  UNL     1       4.327  39.610 -15.814  1.00  0.00    -0.200 F 
ENDBRANCH   6  13
BRANCH   3  17
HETATM   17  N1  UNL     1       6.167  35.288 -19.287  1.00  0.00    -0.380 N 
ATOM     18  H12 UNL     1       5.567  34.465 -19.324  1.00  0.00     0.158 HD
ATOM     19  H11 UNL     1       6.735  35.200 -20.129  1.00  0.00     0.158 HD
ENDBRANCH   3  17
TORSDOF 4
ENDMDL
