MODEL 1
REMARK VINA RESULT: -5.220209396      0.000      0.000
REMARK  4 active torsions:
REMARK  status: ('A' for Active; 'I' for Inactive)
REMARK    1  A    between atoms: C2_2  and  N1_3 
REMARK    2  A    between atoms: N1_3  and  C4_5 
REMARK    3  A    between atoms: C4_5  and  C5_6 
REMARK    4  A    between atoms: N4_10  and  N5_11 
ROOT
HETATM    1  C5  UNL     1      29.495  72.353  12.561  1.00  0.00     0.290 C 
HETATM    2  O1  UNL     1      29.589  71.964  11.256  1.00  0.00    -0.243 OA
HETATM    3  N2  UNL     1      28.271  71.951  10.874  1.00  0.00     0.033 NA
HETATM    4  N3  UNL     1      27.560  72.754  11.758  1.00  0.00    -0.005 NA
HETATM    5  N4  UNL     1      28.585  73.462  12.463  1.00  0.00    -0.098 NA
ENDROOT
BRANCH   1   6
HETATM    6  C4  UNL     1      30.646  72.450  13.414  1.00  0.00     0.324 C 
BRANCH   6   7
HETATM    7  N1  UNL     1      30.626  72.954  14.723  1.00  0.00     0.087 N 
HETATM    8  C3  UNL     1      31.458  72.056  15.551  1.00  0.00     0.310 C 
BRANCH   7   9
HETATM    9  C2  UNL     1      31.260  74.265  14.832  1.00  0.00     0.267 C 
HETATM   10  C1  UNL     1      30.282  75.349  15.150  1.00  0.00     0.037 C 
ENDBRANCH   7   9
ENDBRANCH   6   7
ENDBRANCH   1   6
BRANCH   5  11
HETATM   11  N5  UNL     1      28.966  74.453  11.592  1.00  0.00    -0.345 NA
ATOM     12  H52 UNL     1      29.436  75.137  12.185  1.00  0.00     0.172 HD
ATOM     13  H51 UNL     1      28.215  75.074  11.287  1.00  0.00     0.172 HD
ENDBRANCH   5  11
TORSDOF 4
ENDMDL
MODEL 2
REMARK VINA RESULT: -5.079278683      1.755      2.346
REMARK  4 active torsions:
REMARK  status: ('A' for Active; 'I' for Inactive)
REMARK    1  A    between atoms: C2_2  and  N1_3 
REMARK    2  A    between atoms: N1_3  and  C4_5 
REMARK    3  A    between atoms: C4_5  and  C5_6 
REMARK    4  A    between atoms: N4_10  and  N5_11 
ROOT
HETATM    1  C5  UNL     1      29.400  72.011  12.296  1.00  0.00     0.290 C 
HETATM    2  O1  UNL     1      29.427  71.821  10.944  1.00  0.00    -0.243 OA
HETATM    3  N2  UNL     1      28.094  71.899  10.626  1.00  0.00     0.033 NA
HETATM    4  N3  UNL     1      27.447  72.578  11.652  1.00  0.00    -0.005 NA
HETATM    5  N4  UNL     1      28.523  73.146  12.406  1.00  0.00    -0.098 NA
ENDROOT
BRANCH   1   6
HETATM    6  C4  UNL     1      30.589  71.950  13.099  1.00  0.00     0.324 C 
BRANCH   6   7
HETATM    7  N1  UNL     1      30.964  70.847  13.882  1.00  0.00     0.087 N 
HETATM    8  C3  UNL     1      31.088  69.688  12.974  1.00  0.00     0.310 C 
BRANCH   7   9
HETATM    9  C2  UNL     1      32.289  71.005  14.477  1.00  0.00     0.267 C 
HETATM   10  C1  UNL     1      33.364  71.144  13.450  1.00  0.00     0.037 C 
ENDBRANCH   7   9
ENDBRANCH   6   7
ENDBRANCH   1   6
BRANCH   5  11
HETATM   11  N5  UNL     1      28.898  74.247  11.677  1.00  0.00    -0.345 NA
ATOM     12  H52 UNL     1      29.531  74.752  12.297  1.00  0.00     0.172 HD
ATOM     13  H51 UNL     1      28.197  74.985  11.615  1.00  0.00     0.172 HD
ENDBRANCH   5  11
TORSDOF 4
ENDMDL
MODEL 3
REMARK VINA RESULT: -5.078067645      0.707      1.081
REMARK  4 active torsions:
REMARK  status: ('A' for Active; 'I' for Inactive)
REMARK    1  A    between atoms: C2_2  and  N1_3 
REMARK    2  A    between atoms: N1_3  and  C4_5 
REMARK    3  A    between atoms: C4_5  and  C5_6 
REMARK    4  A    between atoms: N4_10  and  N5_11 
ROOT
HETATM    1  C5  UNL     1      29.431  72.086  12.402  1.00  0.00     0.290 C 
HETATM    2  O1  UNL     1      29.500  71.827  11.062  1.00  0.00    -0.243 OA
HETATM    3  N2  UNL     1      28.176  71.870  10.702  1.00  0.00     0.033 NA
HETATM    4  N3  UNL     1      27.491  72.592  11.673  1.00  0.00    -0.005 NA
HETATM    5  N4  UNL     1      28.537  73.212  12.428  1.00  0.00    -0.098 NA
ENDROOT
BRANCH   1   6
HETATM    6  C4  UNL     1      30.596  72.082  13.241  1.00  0.00     0.324 C 
BRANCH   6   7
HETATM    7  N1  UNL     1      30.677  72.713  14.492  1.00  0.00     0.087 N 
HETATM    8  C3  UNL     1      31.290  71.749  15.430  1.00  0.00     0.310 C 
BRANCH   7   9
HETATM    9  C2  UNL     1      31.580  73.861  14.486  1.00  0.00     0.267 C 
HETATM   10  C1  UNL     1      32.867  73.572  13.785  1.00  0.00     0.037 C 
ENDBRANCH   7   9
ENDBRANCH   6   7
ENDBRANCH   1   6
BRANCH   5  11
HETATM   11  N5  UNL     1      28.920  74.279  11.653  1.00  0.00    -0.345 NA
ATOM     12  H52 UNL     1      29.534  74.820  12.262  1.00  0.00     0.172 HD
ATOM     13  H51 UNL     1      28.215  75.007  11.539  1.00  0.00     0.172 HD
ENDBRANCH   5  11
TORSDOF 4
ENDMDL
MODEL 4
REMARK VINA RESULT: -5.038631489      1.098      1.874
REMARK  4 active torsions:
REMARK  status: ('A' for Active; 'I' for Inactive)
REMARK    1  A    between atoms: C2_2  and  N1_3 
REMARK    2  A    between atoms: N1_3  and  C4_5 
REMARK    3  A    between atoms: C4_5  and  C5_6 
REMARK    4  A    between atoms: N4_10  and  N5_11 
ROOT
HETATM    1  C5  UNL     1      29.606  72.732  13.010  1.00  0.00     0.290 C 
HETATM    2  O1  UNL     1      29.880  72.093  11.834  1.00  0.00    -0.243 OA
HETATM    3  N2  UNL     1      28.620  71.896  11.326  1.00  0.00     0.033 NA
HETATM    4  N3  UNL     1      27.763  72.802  11.939  1.00  0.00    -0.005 NA
HETATM    5  N4  UNL     1      28.653  73.720  12.582  1.00  0.00    -0.098 NA
ENDROOT
BRANCH   1   6
HETATM    6  C4  UNL     1      30.638  73.095  13.940  1.00  0.00     0.324 C 
BRANCH   6   7
HETATM    7  N1  UNL     1      30.486  73.101  15.335  1.00  0.00     0.087 N 
HETATM    8  C3  UNL     1      30.237  74.499  15.743  1.00  0.00     0.310 C 
BRANCH   7   9
HETATM    9  C2  UNL     1      29.305  72.362  15.776  1.00  0.00     0.267 C 
HETATM   10  C1  UNL     1      29.653  71.059  16.419  1.00  0.00     0.037 C 
ENDBRANCH   7   9
ENDBRANCH   6   7
ENDBRANCH   1   6
BRANCH   5  11
HETATM   11  N5  UNL     1      29.078  74.540  11.567  1.00  0.00    -0.345 NA
ATOM     12  H52 UNL     1      28.255  75.094  11.333  1.00  0.00     0.172 HD
ATOM     13  H51 UNL     1      29.168  74.091  10.655  1.00  0.00     0.172 HD
ENDBRANCH   5  11
TORSDOF 4
ENDMDL
MODEL 5
REMARK VINA RESULT: -5.022858417      1.131      1.882
REMARK  4 active torsions:
REMARK  status: ('A' for Active; 'I' for Inactive)
REMARK    1  A    between atoms: C2_2  and  N1_3 
REMARK    2  A    between atoms: N1_3  and  C4_5 
REMARK    3  A    between atoms: C4_5  and  C5_6 
REMARK    4  A    between atoms: N4_10  and  N5_11 
ROOT
HETATM    1  C5  UNL     1      29.446  72.267  12.599  1.00  0.00     0.290 C 
HETATM    2  O1  UNL     1      29.630  71.888  11.300  1.00  0.00    -0.243 OA
HETATM    3  N2  UNL     1      28.344  71.905  10.820  1.00  0.00     0.033 NA
HETATM    4  N3  UNL     1      27.584  72.714  11.657  1.00  0.00    -0.005 NA
HETATM    5  N4  UNL     1      28.567  73.395  12.444  1.00  0.00    -0.098 NA
ENDROOT
BRANCH   1   6
HETATM    6  C4  UNL     1      30.531  72.334  13.536  1.00  0.00     0.324 C 
BRANCH   6   7
HETATM    7  N1  UNL     1      31.492  73.356  13.569  1.00  0.00     0.087 N 
HETATM    8  C3  UNL     1      31.189  74.205  14.740  1.00  0.00     0.310 C 
BRANCH   7   9
HETATM    9  C2  UNL     1      32.842  72.853  13.806  1.00  0.00     0.267 C 
HETATM   10  C1  UNL     1      32.986  71.411  13.443  1.00  0.00     0.037 C 
ENDBRANCH   7   9
ENDBRANCH   6   7
ENDBRANCH   1   6
BRANCH   5  11
HETATM   11  N5  UNL     1      29.031  74.386  11.615  1.00  0.00    -0.345 NA
ATOM     12  H52 UNL     1      28.184  74.841  11.273  1.00  0.00     0.172 HD
ATOM     13  H51 UNL     1      29.358  74.070  10.701  1.00  0.00     0.172 HD
ENDBRANCH   5  11
TORSDOF 4
ENDMDL
