MODEL 1
REMARK VINA RESULT: -7.436996631      0.000      0.000
REMARK  11 active torsions:
REMARK  status: ('A' for Active; 'I' for Inactive)
REMARK    1  A    between atoms: N1_1  and  C1_4 
REMARK    2  A    between atoms: C3_6  and  C4_7 
REMARK    3  A    between atoms: C4_7  and  N2_8 
REMARK    4  A    between atoms: N2_8  and  O1_9 
REMARK    5  A    between atoms: N2_8  and  C5_14 
REMARK    6  A    between atoms: O1_9  and  N3_10 
REMARK    7  A    between atoms: N3_10  and  N4_11 
REMARK    8  A    between atoms: C7_16  and  O2_17 
REMARK    9  A    between atoms: C8_19  and  C9_20 
REMARK   10  A    between atoms: C9_20  and  O3_21 
REMARK   11  A    between atoms: C10_26  and  N6_27 
ROOT
HETATM    1  N2  UNL     1      25.129  28.336  39.986  1.00  0.00    -0.215 N 
ENDROOT
BRANCH   1   2
HETATM    2  C4  UNL     1      23.931  28.078  40.631  1.00  0.00     0.152 C 
BRANCH   2   3
HETATM    3  C3  UNL     1      22.774  28.941  40.488  1.00  0.00     0.070 A 
HETATM    4  C2  UNL     1      21.992  29.331  41.552  1.00  0.00     0.080 A 
HETATM    5  C1  UNL     1      20.895  30.131  41.340  1.00  0.00     0.116 A 
HETATM    6  N7  UNL     1      20.538  30.564  40.108  1.00  0.00    -0.177 N 
HETATM    7  C10 UNL     1      21.323  30.168  39.073  1.00  0.00     0.677 A 
ATOM      8  H7  UNL     1      19.721  31.159  39.965  1.00  0.00     0.185 HD
HETATM    9  N5  UNL     1      22.379  29.397  39.273  1.00  0.00    -0.191 N 
ATOM     10  H5  UNL     1      22.933  29.128  38.460  1.00  0.00     0.184 HD
BRANCH   5  11
HETATM   11  N1  UNL     1      20.127  30.528  42.319  1.00  0.00    -0.385 N 
ATOM     12  H12 UNL     1      19.601  29.791  42.790  1.00  0.00     0.157 HD
ATOM     13  H11 UNL     1      20.059  31.508  42.590  1.00  0.00     0.157 HD
ENDBRANCH   5  11
BRANCH   7  14
HETATM   14  N6  UNL     1      20.961  30.596  37.902  1.00  0.00    -0.234 N 
ATOM     15  H62 UNL     1      21.684  31.078  37.369  1.00  0.00     0.174 HD
ATOM     16  H61 UNL     1      20.023  30.469  37.522  1.00  0.00     0.174 HD
ENDBRANCH   7  14
ENDBRANCH   2   3
ENDBRANCH   1   2
BRANCH   1  17
HETATM   17  O1  UNL     1      24.965  28.337  38.650  1.00  0.00    -0.139 OA
BRANCH  17  18
HETATM   18  N3  UNL     1      24.773  27.095  38.137  1.00  0.00     0.040 NA
BRANCH  18  19
HETATM   19  N4  UNL     1      25.998  26.386  38.259  1.00  0.00    -0.321 N 
ATOM     20  H42 UNL     1      26.903  26.705  37.913  1.00  0.00     0.174 HD
ATOM     21  H41 UNL     1      25.801  25.513  38.749  1.00  0.00     0.174 HD
ENDBRANCH  18  19
ENDBRANCH  17  18
ENDBRANCH   1  17
BRANCH   1  22
HETATM   22  C5  UNL     1      26.023  29.352  40.375  1.00  0.00     0.254 C 
HETATM   23  C6  UNL     1      27.227  29.597  39.529  1.00  0.00     0.090 C 
HETATM   24  C7  UNL     1      27.271  31.133  39.407  1.00  0.00     0.153 C 
HETATM   25  C8  UNL     1      26.334  31.551  40.498  1.00  0.00     0.176 C 
HETATM   26  O4  UNL     1      25.335  30.585  40.441  1.00  0.00    -0.354 OA
BRANCH  24  27
HETATM   27  O2  UNL     1      28.584  31.569  39.611  1.00  0.00    -0.393 OA
ATOM     28  H2  UNL     1      28.939  31.877  38.786  1.00  0.00     0.210 HD
ENDBRANCH  24  27
BRANCH  25  29
HETATM   29  C9  UNL     1      25.722  32.902  40.156  1.00  0.00     0.198 C 
BRANCH  29  30
HETATM   30  O3  UNL     1      26.453  33.584  39.216  1.00  0.00    -0.398 OA
ATOM     31  H3  UNL     1      26.044  33.568  38.359  1.00  0.00     0.209 HD
ENDBRANCH  29  30
ENDBRANCH  25  29
ENDBRANCH   1  22
TORSDOF 11
ENDMDL
MODEL 2
REMARK VINA RESULT: -7.327097939      1.222      1.356
REMARK  11 active torsions:
REMARK  status: ('A' for Active; 'I' for Inactive)
REMARK    1  A    between atoms: N1_1  and  C1_4 
REMARK    2  A    between atoms: C3_6  and  C4_7 
REMARK    3  A    between atoms: C4_7  and  N2_8 
REMARK    4  A    between atoms: N2_8  and  O1_9 
REMARK    5  A    between atoms: N2_8  and  C5_14 
REMARK    6  A    between atoms: O1_9  and  N3_10 
REMARK    7  A    between atoms: N3_10  and  N4_11 
REMARK    8  A    between atoms: C7_16  and  O2_17 
REMARK    9  A    between atoms: C8_19  and  C9_20 
REMARK   10  A    between atoms: C9_20  and  O3_21 
REMARK   11  A    between atoms: C10_26  and  N6_27 
ROOT
HETATM    1  N2  UNL     1      25.234  28.119  39.983  1.00  0.00    -0.215 N 
ENDROOT
BRANCH   1   2
HETATM    2  C4  UNL     1      24.065  27.787  40.646  1.00  0.00     0.152 C 
BRANCH   2   3
HETATM    3  C3  UNL     1      22.755  28.129  40.124  1.00  0.00     0.070 A 
HETATM    4  C2  UNL     1      21.637  27.353  40.334  1.00  0.00     0.080 A 
HETATM    5  C1  UNL     1      20.432  27.726  39.789  1.00  0.00     0.116 A 
HETATM    6  N7  UNL     1      20.287  28.844  39.039  1.00  0.00    -0.177 N 
HETATM    7  C10 UNL     1      21.402  29.594  38.845  1.00  0.00     0.677 A 
ATOM      8  H7  UNL     1      19.386  29.109  38.641  1.00  0.00     0.185 HD
HETATM    9  N5  UNL     1      22.565  29.239  39.367  1.00  0.00    -0.191 N 
ATOM     10  H5  UNL     1      23.370  29.838  39.190  1.00  0.00     0.184 HD
BRANCH   5  11
HETATM   11  N1  UNL     1      19.345  27.023  39.964  1.00  0.00    -0.385 N 
ATOM     12  H12 UNL     1      19.134  26.351  39.225  1.00  0.00     0.157 HD
ATOM     13  H11 UNL     1      18.749  27.142  40.783  1.00  0.00     0.157 HD
ENDBRANCH   5  11
BRANCH   7  14
HETATM   14  N6  UNL     1      21.239  30.661  38.124  1.00  0.00    -0.234 N 
ATOM     15  H62 UNL     1      22.027  30.914  37.530  1.00  0.00     0.174 HD
ATOM     16  H61 UNL     1      20.388  31.223  38.136  1.00  0.00     0.174 HD
ENDBRANCH   7  14
ENDBRANCH   2   3
ENDBRANCH   1   2
BRANCH   1  17
HETATM   17  O1  UNL     1      25.046  28.125  38.650  1.00  0.00    -0.139 OA
BRANCH  17  18
HETATM   18  N3  UNL     1      25.056  26.881  38.106  1.00  0.00     0.040 NA
BRANCH  18  19
HETATM   19  N4  UNL     1      26.380  26.377  38.212  1.00  0.00    -0.321 N 
ATOM     20  H42 UNL     1      27.231  26.937  38.168  1.00  0.00     0.174 HD
ATOM     21  H41 UNL     1      26.317  25.367  38.336  1.00  0.00     0.174 HD
ENDBRANCH  18  19
ENDBRANCH  17  18
ENDBRANCH   1  17
BRANCH   1  22
HETATM   22  C5  UNL     1      26.076  29.180  40.367  1.00  0.00     0.254 C 
HETATM   23  C6  UNL     1      27.272  29.475  39.526  1.00  0.00     0.090 C 
HETATM   24  C7  UNL     1      27.243  31.010  39.391  1.00  0.00     0.153 C 
HETATM   25  C8  UNL     1      26.281  31.392  40.472  1.00  0.00     0.176 C 
HETATM   26  O4  UNL     1      25.329  30.379  40.419  1.00  0.00    -0.354 OA
BRANCH  24  27
HETATM   27  O2  UNL     1      28.533  31.510  39.597  1.00  0.00    -0.393 OA
ATOM     28  H2  UNL     1      29.159  30.936  39.172  1.00  0.00     0.210 HD
ENDBRANCH  24  27
BRANCH  25  29
HETATM   29  C9  UNL     1      25.607  32.709  40.115  1.00  0.00     0.198 C 
BRANCH  29  30
HETATM   30  O3  UNL     1      26.412  33.519  39.354  1.00  0.00    -0.398 OA
ATOM     31  H3  UNL     1      27.273  33.638  39.739  1.00  0.00     0.209 HD
ENDBRANCH  29  30
ENDBRANCH  25  29
ENDBRANCH   1  22
TORSDOF 11
ENDMDL
MODEL 3
REMARK VINA RESULT: -6.748720740      1.420      2.139
REMARK  11 active torsions:
REMARK  status: ('A' for Active; 'I' for Inactive)
REMARK    1  A    between atoms: N1_1  and  C1_4 
REMARK    2  A    between atoms: C3_6  and  C4_7 
REMARK    3  A    between atoms: C4_7  and  N2_8 
REMARK    4  A    between atoms: N2_8  and  O1_9 
REMARK    5  A    between atoms: N2_8  and  C5_14 
REMARK    6  A    between atoms: O1_9  and  N3_10 
REMARK    7  A    between atoms: N3_10  and  N4_11 
REMARK    8  A    between atoms: C7_16  and  O2_17 
REMARK    9  A    between atoms: C8_19  and  C9_20 
REMARK   10  A    between atoms: C9_20  and  O3_21 
REMARK   11  A    between atoms: C10_26  and  N6_27 
ROOT
HETATM    1  N2  UNL     1      24.763  28.586  39.505  1.00  0.00    -0.215 N 
ENDROOT
BRANCH   1   2
HETATM    2  C4  UNL     1      23.398  28.819  39.500  1.00  0.00     0.152 C 
BRANCH   2   3
HETATM    3  C3  UNL     1      22.608  28.811  40.717  1.00  0.00     0.070 A 
HETATM    4  C2  UNL     1      21.612  29.728  40.971  1.00  0.00     0.080 A 
HETATM    5  C1  UNL     1      20.919  29.675  42.157  1.00  0.00     0.116 A 
HETATM    6  N7  UNL     1      21.172  28.745  43.107  1.00  0.00    -0.177 N 
HETATM    7  C10 UNL     1      22.158  27.851  42.836  1.00  0.00     0.677 A 
ATOM      8  H7  UNL     1      20.649  28.717  43.983  1.00  0.00     0.185 HD
HETATM    9  N5  UNL     1      22.828  27.899  41.696  1.00  0.00    -0.191 N 
ATOM     10  H5  UNL     1      23.559  27.203  41.543  1.00  0.00     0.184 HD
BRANCH   5  11
HETATM   11  N1  UNL     1      19.966  30.522  42.440  1.00  0.00    -0.385 N 
ATOM     12  H12 UNL     1      19.017  30.151  42.375  1.00  0.00     0.157 HD
ATOM     13  H11 UNL     1      20.160  31.487  42.705  1.00  0.00     0.157 HD
ENDBRANCH   5  11
BRANCH   7  14
HETATM   14  N6  UNL     1      22.382  26.969  43.761  1.00  0.00    -0.234 N 
ATOM     15  H62 UNL     1      22.478  27.340  44.706  1.00  0.00     0.174 HD
ATOM     16  H61 UNL     1      22.460  25.969  43.578  1.00  0.00     0.174 HD
ENDBRANCH   7  14
ENDBRANCH   2   3
ENDBRANCH   1   2
BRANCH   1  17
HETATM   17  O1  UNL     1      25.179  28.136  38.306  1.00  0.00    -0.139 OA
BRANCH  17  18
HETATM   18  N3  UNL     1      25.069  26.789  38.178  1.00  0.00     0.040 NA
BRANCH  18  19
HETATM   19  N4  UNL     1      26.380  26.244  38.243  1.00  0.00    -0.321 N 
ATOM     20  H42 UNL     1      26.800  25.811  39.065  1.00  0.00     0.174 HD
ATOM     21  H41 UNL     1      26.811  26.368  37.327  1.00  0.00     0.174 HD
ENDBRANCH  18  19
ENDBRANCH  17  18
ENDBRANCH   1  17
BRANCH   1  22
HETATM   22  C5  UNL     1      25.707  29.477  40.052  1.00  0.00     0.254 C 
HETATM   23  C6  UNL     1      27.001  29.665  39.335  1.00  0.00     0.090 C 
HETATM   24  C7  UNL     1      27.196  31.193  39.345  1.00  0.00     0.153 C 
HETATM   25  C8  UNL     1      26.205  31.620  40.383  1.00  0.00     0.176 C 
HETATM   26  O4  UNL     1      25.131  30.763  40.161  1.00  0.00    -0.354 OA
BRANCH  24  27
HETATM   27  O2  UNL     1      28.519  31.482  39.695  1.00  0.00    -0.393 OA
ATOM     28  H2  UNL     1      28.653  31.263  40.610  1.00  0.00     0.210 HD
ENDBRANCH  24  27
BRANCH  25  29
HETATM   29  C9  UNL     1      25.753  33.046  40.104  1.00  0.00     0.198 C 
BRANCH  29  30
HETATM   30  O3  UNL     1      26.487  33.642  39.110  1.00  0.00    -0.398 OA
ATOM     31  H3  UNL     1      27.038  34.343  39.438  1.00  0.00     0.209 HD
ENDBRANCH  29  30
ENDBRANCH  25  29
ENDBRANCH   1  22
TORSDOF 11
ENDMDL
MODEL 4
REMARK VINA RESULT: -6.700836104      1.736      2.796
REMARK  11 active torsions:
REMARK  status: ('A' for Active; 'I' for Inactive)
REMARK    1  A    between atoms: N1_1  and  C1_4 
REMARK    2  A    between atoms: C3_6  and  C4_7 
REMARK    3  A    between atoms: C4_7  and  N2_8 
REMARK    4  A    between atoms: N2_8  and  O1_9 
REMARK    5  A    between atoms: N2_8  and  C5_14 
REMARK    6  A    between atoms: O1_9  and  N3_10 
REMARK    7  A    between atoms: N3_10  and  N4_11 
REMARK    8  A    between atoms: C7_16  and  O2_17 
REMARK    9  A    between atoms: C8_19  and  C9_20 
REMARK   10  A    between atoms: C9_20  and  O3_21 
REMARK   11  A    between atoms: C10_26  and  N6_27 
ROOT
HETATM    1  N2  UNL     1      23.646  28.537  39.452  1.00  0.00    -0.215 N 
ENDROOT
BRANCH   1   2
HETATM    2  C4  UNL     1      22.853  27.683  40.200  1.00  0.00     0.152 C 
BRANCH   2   3
HETATM    3  C3  UNL     1      22.186  28.113  41.416  1.00  0.00     0.070 A 
HETATM    4  C2  UNL     1      22.410  27.526  42.641  1.00  0.00     0.080 A 
HETATM    5  C1  UNL     1      21.725  27.969  43.747  1.00  0.00     0.116 A 
HETATM    6  N7  UNL     1      20.821  28.976  43.689  1.00  0.00    -0.177 N 
HETATM    7  C10 UNL     1      20.617  29.539  42.470  1.00  0.00     0.677 A 
ATOM      8  H7  UNL     1      20.320  29.295  44.519  1.00  0.00     0.185 HD
HETATM    9  N5  UNL     1      21.274  29.116  41.403  1.00  0.00    -0.191 N 
ATOM     10  H5  UNL     1      21.081  29.574  40.512  1.00  0.00     0.184 HD
BRANCH   5  11
HETATM   11  N1  UNL     1      21.906  27.445  44.930  1.00  0.00    -0.385 N 
ATOM     12  H12 UNL     1      22.448  26.580  44.948  1.00  0.00     0.157 HD
ATOM     13  H11 UNL     1      21.528  27.872  45.775  1.00  0.00     0.157 HD
ENDBRANCH   5  11
BRANCH   7  14
HETATM   14  N6  UNL     1      19.747  30.502  42.440  1.00  0.00    -0.234 N 
ATOM     15  H62 UNL     1      18.839  30.260  42.046  1.00  0.00     0.174 HD
ATOM     16  H61 UNL     1      19.938  31.444  42.782  1.00  0.00     0.174 HD
ENDBRANCH   7  14
ENDBRANCH   2   3
ENDBRANCH   1   2
BRANCH   1  17
HETATM   17  O1  UNL     1      22.905  29.502  38.877  1.00  0.00    -0.139 OA
BRANCH  17  18
HETATM   18  N3  UNL     1      21.756  29.032  38.327  1.00  0.00     0.040 NA
BRANCH  18  19
HETATM   19  N4  UNL     1      20.957  30.154  37.978  1.00  0.00    -0.321 N 
ATOM     20  H42 UNL     1      21.312  31.060  37.670  1.00  0.00     0.174 HD
ATOM     21  H41 UNL     1      19.980  29.885  38.094  1.00  0.00     0.174 HD
ENDBRANCH  18  19
ENDBRANCH  17  18
ENDBRANCH   1  17
BRANCH   1  22
HETATM   22  C5  UNL     1      24.874  29.059  39.903  1.00  0.00     0.254 C 
HETATM   23  C6  UNL     1      26.060  28.954  39.006  1.00  0.00     0.090 C 
HETATM   24  C7  UNL     1      26.697  30.355  39.091  1.00  0.00     0.153 C 
HETATM   25  C8  UNL     1      26.020  30.924  40.299  1.00  0.00     0.176 C 
HETATM   26  O4  UNL     1      24.722  30.435  40.191  1.00  0.00    -0.354 OA
BRANCH  24  27
HETATM   27  O2  UNL     1      28.080  30.218  39.246  1.00  0.00    -0.393 OA
ATOM     28  H2  UNL     1      28.477  31.081  39.263  1.00  0.00     0.210 HD
ENDBRANCH  24  27
BRANCH  25  29
HETATM   29  C9  UNL     1      25.976  32.441  40.195  1.00  0.00     0.198 C 
BRANCH  29  30
HETATM   30  O3  UNL     1      27.014  32.944  39.449  1.00  0.00    -0.398 OA
ATOM     31  H3  UNL     1      26.737  33.215  38.581  1.00  0.00     0.209 HD
ENDBRANCH  29  30
ENDBRANCH  25  29
ENDBRANCH   1  22
TORSDOF 11
ENDMDL
MODEL 5
REMARK VINA RESULT: -6.696089319      1.937      2.413
REMARK  11 active torsions:
REMARK  status: ('A' for Active; 'I' for Inactive)
REMARK    1  A    between atoms: N1_1  and  C1_4 
REMARK    2  A    between atoms: C3_6  and  C4_7 
REMARK    3  A    between atoms: C4_7  and  N2_8 
REMARK    4  A    between atoms: N2_8  and  O1_9 
REMARK    5  A    between atoms: N2_8  and  C5_14 
REMARK    6  A    between atoms: O1_9  and  N3_10 
REMARK    7  A    between atoms: N3_10  and  N4_11 
REMARK    8  A    between atoms: C7_16  and  O2_17 
REMARK    9  A    between atoms: C8_19  and  C9_20 
REMARK   10  A    between atoms: C9_20  and  O3_21 
REMARK   11  A    between atoms: C10_26  and  N6_27 
ROOT
HETATM    1  N2  UNL     1      24.175  27.660  40.822  1.00  0.00    -0.215 N 
ENDROOT
BRANCH   1   2
HETATM    2  C4  UNL     1      23.073  28.350  41.298  1.00  0.00     0.152 C 
BRANCH   2   3
HETATM    3  C3  UNL     1      21.890  28.572  40.487  1.00  0.00     0.070 A 
HETATM    4  C2  UNL     1      21.818  29.544  39.515  1.00  0.00     0.080 A 
HETATM    5  C1  UNL     1      20.656  29.714  38.801  1.00  0.00     0.116 A 
HETATM    6  N7  UNL     1      19.555  28.955  39.011  1.00  0.00    -0.177 N 
HETATM    7  C10 UNL     1      19.648  28.002  39.975  1.00  0.00     0.677 A 
ATOM      8  H7  UNL     1      18.699  29.092  38.473  1.00  0.00     0.185 HD
HETATM    9  N5  UNL     1      20.764  27.836  40.665  1.00  0.00    -0.191 N 
ATOM     10  H5  UNL     1      20.780  27.106  41.378  1.00  0.00     0.184 HD
BRANCH   5  11
HETATM   11  N1  UNL     1      20.543  30.621  37.868  1.00  0.00    -0.385 N 
ATOM     12  H12 UNL     1      20.919  30.361  36.956  1.00  0.00     0.157 HD
ATOM     13  H11 UNL     1      20.110  31.527  38.043  1.00  0.00     0.157 HD
ENDBRANCH   5  11
BRANCH   7  14
HETATM   14  N6  UNL     1      18.580  27.288  40.158  1.00  0.00    -0.234 N 
ATOM     15  H62 UNL     1      17.698  27.795  40.100  1.00  0.00     0.174 HD
ATOM     16  H61 UNL     1      18.600  26.286  40.348  1.00  0.00     0.174 HD
ENDBRANCH   7  14
ENDBRANCH   2   3
ENDBRANCH   1   2
BRANCH   1  17
HETATM   17  O1  UNL     1      23.830  26.838  39.814  1.00  0.00    -0.139 OA
BRANCH  17  18
HETATM   18  N3  UNL     1      23.360  25.639  40.243  1.00  0.00     0.040 NA
BRANCH  18  19
HETATM   19  N4  UNL     1      24.446  24.723  40.233  1.00  0.00    -0.321 N 
ATOM     20  H42 UNL     1      24.374  23.722  40.050  1.00  0.00     0.174 HD
ATOM     21  H41 UNL     1      25.295  25.250  40.440  1.00  0.00     0.174 HD
ENDBRANCH  18  19
ENDBRANCH  17  18
ENDBRANCH   1  17
BRANCH   1  22
HETATM   22  C5  UNL     1      25.422  28.262  40.564  1.00  0.00     0.254 C 
HETATM   23  C6  UNL     1      26.000  28.133  39.195  1.00  0.00     0.090 C 
HETATM   24  C7  UNL     1      26.491  29.559  38.879  1.00  0.00     0.153 C 
HETATM   25  C8  UNL     1      26.475  30.193  40.235  1.00  0.00     0.176 C 
HETATM   26  O4  UNL     1      25.338  29.649  40.823  1.00  0.00    -0.354 OA
BRANCH  24  27
HETATM   27  O2  UNL     1      27.770  29.487  38.318  1.00  0.00    -0.393 OA
ATOM     28  H2  UNL     1      28.111  28.608  38.436  1.00  0.00     0.210 HD
ENDBRANCH  24  27
BRANCH  25  29
HETATM   29  C9  UNL     1      26.276  31.696  40.095  1.00  0.00     0.198 C 
BRANCH  29  30
HETATM   30  O3  UNL     1      27.433  32.345  39.743  1.00  0.00    -0.398 OA
ATOM     31  H3  UNL     1      27.351  33.290  39.808  1.00  0.00     0.209 HD
ENDBRANCH  29  30
ENDBRANCH  25  29
ENDBRANCH   1  22
TORSDOF 11
ENDMDL
