MODEL 1
REMARK VINA RESULT: -6.497331442      0.000      0.000
REMARK  6 active torsions:
REMARK  status: ('A' for Active; 'I' for Inactive)
REMARK    1  A    between atoms: C3_9  and  N4_10 
REMARK    2  A    between atoms: N4_10  and  O1_12 
REMARK    3  A    between atoms: C4_14  and  C5_15 
REMARK    4  A    between atoms: C5_15  and  N5_16 
REMARK    5  A    between atoms: C5_15  and  C6_20 
REMARK       I    between atoms: C6_20  and  N6_22 
REMARK    6  A    between atoms: N6_22  and  N7_24 
ROOT
HETATM    1  C1  UNL     1       2.926  -8.506  39.772  1.00  0.00     0.177 C 
HETATM    2  N1  UNL     1       3.818  -9.160  38.843  1.00  0.00    -0.294 N 
HETATM    3  N2  UNL     1       3.734 -10.463  38.581  1.00  0.00    -0.282 N 
ATOM      4  H2  UNL     1       3.053 -11.096  39.001  1.00  0.00     0.189 HD
HETATM    5  C2  UNL     1       4.671 -10.827  37.688  1.00  0.00     0.145 A 
HETATM    6  N3  UNL     1       4.919 -11.989  37.178  1.00  0.00    -0.382 N 
ATOM      7  H31 UNL     1       5.629 -12.265  36.499  1.00  0.00     0.157 HD
ATOM      8  H32 UNL     1       4.414 -12.849  37.388  1.00  0.00     0.157 HD
HETATM    9  C3  UNL     1       5.359  -9.656  37.400  1.00  0.00     0.125 A 
HETATM   10  C4  UNL     1       4.818  -8.619  38.128  1.00  0.00     0.100 A 
ENDROOT
BRANCH  10  11
HETATM   11  C5  UNL     1       5.248  -7.199  38.125  1.00  0.00     0.329 C 
BRANCH  11  12
HETATM   12  N5  UNL     1       5.005  -6.578  36.840  1.00  0.00    -0.061 N 
ATOM     13  H53 UNL     1       5.876  -6.293  36.391  1.00  0.00     0.275 HD
ATOM     14  H52 UNL     1       4.688  -7.258  36.149  1.00  0.00     0.275 HD
ATOM     15  H51 UNL     1       4.354  -5.797  36.922  1.00  0.00     0.275 HD
ENDBRANCH  11  12
BRANCH  11  16
HETATM   16  C6  UNL     1       6.650  -7.039  38.486  1.00  0.00     0.272 C 
HETATM   17  O2  UNL     1       7.518  -6.933  37.593  1.00  0.00    -0.269 OA
HETATM   18  N6  UNL     1       7.038  -7.003  39.847  1.00  0.00    -0.275 N 
ATOM     19  H6  UNL     1       6.319  -7.091  40.566  1.00  0.00     0.189 HD
BRANCH  18  20
HETATM   20  N7  UNL     1       8.379  -6.851  40.244  1.00  0.00    -0.343 N 
ATOM     21  H72 UNL     1       8.912  -7.695  40.455  1.00  0.00     0.176 HD
ATOM     22  H71 UNL     1       8.825  -5.937  40.326  1.00  0.00     0.176 HD
ENDBRANCH  18  20
ENDBRANCH  11  16
ENDBRANCH  10  11
BRANCH   9  23
HETATM   23  N4  UNL     1       6.450  -9.528  36.501  1.00  0.00    -0.264 N 
ATOM     24  H4  UNL     1       6.444  -8.855  35.736  1.00  0.00     0.194 HD
BRANCH  23  25
HETATM   25  O1  UNL     1       7.429 -10.299  36.707  1.00  0.00    -0.289 OA
ATOM     26  H1  UNL     1       8.010 -10.440  35.968  1.00  0.00     0.244 HD
ENDBRANCH  23  25
ENDBRANCH   9  23
TORSDOF 6
ENDMDL
MODEL 2
REMARK VINA RESULT: -6.296238917      2.454      3.474
REMARK  6 active torsions:
REMARK  status: ('A' for Active; 'I' for Inactive)
REMARK    1  A    between atoms: C3_9  and  N4_10 
REMARK    2  A    between atoms: N4_10  and  O1_12 
REMARK    3  A    between atoms: C4_14  and  C5_15 
REMARK    4  A    between atoms: C5_15  and  N5_16 
REMARK    5  A    between atoms: C5_15  and  C6_20 
REMARK       I    between atoms: C6_20  and  N6_22 
REMARK    6  A    between atoms: N6_22  and  N7_24 
ROOT
HETATM    1  C1  UNL     1       6.915  -9.199  41.085  1.00  0.00     0.177 C 
HETATM    2  N1  UNL     1       7.003  -9.949  39.853  1.00  0.00    -0.294 N 
HETATM    3  N2  UNL     1       8.109 -10.598  39.498  1.00  0.00    -0.282 N 
ATOM      4  H2  UNL     1       8.969 -10.623  40.047  1.00  0.00     0.189 HD
HETATM    5  C2  UNL     1       7.937 -11.215  38.315  1.00  0.00     0.145 A 
HETATM    6  N3  UNL     1       8.761 -11.941  37.634  1.00  0.00    -0.382 N 
ATOM      7  H31 UNL     1       8.630 -12.409  36.737  1.00  0.00     0.157 HD
ATOM      8  H32 UNL     1       9.718 -12.166  37.907  1.00  0.00     0.157 HD
HETATM    9  C3  UNL     1       6.635 -10.909  37.943  1.00  0.00     0.125 A 
HETATM   10  C4  UNL     1       6.058 -10.116  38.912  1.00  0.00     0.100 A 
ENDROOT
BRANCH  10  11
HETATM   11  C5  UNL     1       4.682  -9.561  38.917  1.00  0.00     0.329 C 
BRANCH  11  12
HETATM   12  N5  UNL     1       3.692 -10.608  38.776  1.00  0.00    -0.061 N 
ATOM     13  H53 UNL     1       2.858 -10.272  38.294  1.00  0.00     0.275 HD
ATOM     14  H52 UNL     1       3.988 -11.316  38.104  1.00  0.00     0.275 HD
ATOM     15  H51 UNL     1       3.460 -11.023  39.679  1.00  0.00     0.275 HD
ENDBRANCH  11  12
BRANCH  11  16
HETATM   16  C6  UNL     1       4.480  -8.558  37.881  1.00  0.00     0.272 C 
HETATM   17  O2  UNL     1       4.045  -8.895  36.759  1.00  0.00    -0.269 OA
HETATM   18  N6  UNL     1       4.776  -7.197  38.137  1.00  0.00    -0.275 N 
ATOM     19  H6  UNL     1       5.131  -6.935  39.058  1.00  0.00     0.189 HD
BRANCH  18  20
HETATM   20  N7  UNL     1       4.598  -6.192  37.168  1.00  0.00    -0.343 N 
ATOM     21  H72 UNL     1       5.290  -5.444  37.126  1.00  0.00     0.176 HD
ATOM     22  H71 UNL     1       3.811  -6.193  36.519  1.00  0.00     0.176 HD
ENDBRANCH  18  20
ENDBRANCH  11  16
ENDBRANCH  10  11
BRANCH   9  23
HETATM   23  N4  UNL     1       5.983 -11.336  36.757  1.00  0.00    -0.264 N 
ATOM     24  H4  UNL     1       6.081 -10.833  35.876  1.00  0.00     0.194 HD
BRANCH  23  25
HETATM   25  O1  UNL     1       5.275 -12.377  36.858  1.00  0.00    -0.289 OA
ATOM     26  H1  UNL     1       4.911 -12.713  36.048  1.00  0.00     0.244 HD
ENDBRANCH  23  25
ENDBRANCH   9  23
TORSDOF 6
ENDMDL
MODEL 3
REMARK VINA RESULT: -6.098415914      2.185      3.170
REMARK  6 active torsions:
REMARK  status: ('A' for Active; 'I' for Inactive)
REMARK    1  A    between atoms: C3_9  and  N4_10 
REMARK    2  A    between atoms: N4_10  and  O1_12 
REMARK    3  A    between atoms: C4_14  and  C5_15 
REMARK    4  A    between atoms: C5_15  and  N5_16 
REMARK    5  A    between atoms: C5_15  and  C6_20 
REMARK       I    between atoms: C6_20  and  N6_22 
REMARK    6  A    between atoms: N6_22  and  N7_24 
ROOT
HETATM    1  C1  UNL     1       5.944  -7.140  37.661  1.00  0.00     0.177 C 
HETATM    2  N1  UNL     1       5.277  -8.417  37.748  1.00  0.00    -0.294 N 
HETATM    3  N2  UNL     1       3.955  -8.533  37.641  1.00  0.00    -0.282 N 
ATOM      4  H2  UNL     1       3.314  -7.753  37.493  1.00  0.00     0.189 HD
HETATM    5  C2  UNL     1       3.581  -9.820  37.755  1.00  0.00     0.145 A 
HETATM    6  N3  UNL     1       2.402 -10.346  37.708  1.00  0.00    -0.382 N 
ATOM      7  H31 UNL     1       2.119 -11.322  37.794  1.00  0.00     0.157 HD
ATOM      8  H32 UNL     1       1.530  -9.834  37.569  1.00  0.00     0.157 HD
HETATM    9  C3  UNL     1       4.768 -10.517  37.943  1.00  0.00     0.125 A 
HETATM   10  C4  UNL     1       5.823  -9.630  37.938  1.00  0.00     0.100 A 
ENDROOT
BRANCH  10  11
HETATM   11  C5  UNL     1       7.263  -9.946  38.105  1.00  0.00     0.329 C 
BRANCH  11  12
HETATM   12  N5  UNL     1       7.633 -11.129  37.355  1.00  0.00    -0.061 N 
ATOM     13  H53 UNL     1       8.367 -11.656  37.828  1.00  0.00     0.275 HD
ATOM     14  H52 UNL     1       6.895 -11.833  37.377  1.00  0.00     0.275 HD
ATOM     15  H51 UNL     1       7.898 -10.893  36.399  1.00  0.00     0.275 HD
ENDBRANCH  11  12
BRANCH  11  16
HETATM   16  C6  UNL     1       7.638 -10.118  39.502  1.00  0.00     0.272 C 
HETATM   17  O2  UNL     1       8.452 -11.009  39.827  1.00  0.00    -0.269 OA
HETATM   18  N6  UNL     1       7.084  -9.280  40.499  1.00  0.00    -0.275 N 
ATOM     19  H6  UNL     1       6.420  -8.556  40.221  1.00  0.00     0.189 HD
BRANCH  18  20
HETATM   20  N7  UNL     1       7.415  -9.409  41.861  1.00  0.00    -0.343 N 
ATOM     21  H72 UNL     1       7.436 -10.348  42.259  1.00  0.00     0.176 HD
ATOM     22  H71 UNL     1       7.632  -8.603  42.449  1.00  0.00     0.176 HD
ENDBRANCH  18  20
ENDBRANCH  11  16
ENDBRANCH  10  11
BRANCH   9  23
HETATM   23  N4  UNL     1       4.893 -11.920  38.117  1.00  0.00    -0.264 N 
ATOM     24  H4  UNL     1       4.975 -12.345  39.040  1.00  0.00     0.194 HD
BRANCH  23  25
HETATM   25  O1  UNL     1       4.897 -12.610  37.059  1.00  0.00    -0.289 OA
ATOM     26  H1  UNL     1       4.951 -13.551  37.177  1.00  0.00     0.244 HD
ENDBRANCH  23  25
ENDBRANCH   9  23
TORSDOF 6
ENDMDL
MODEL 4
REMARK VINA RESULT: -5.990717957      2.380      4.062
REMARK  6 active torsions:
REMARK  status: ('A' for Active; 'I' for Inactive)
REMARK    1  A    between atoms: C3_9  and  N4_10 
REMARK    2  A    between atoms: N4_10  and  O1_12 
REMARK    3  A    between atoms: C4_14  and  C5_15 
REMARK    4  A    between atoms: C5_15  and  N5_16 
REMARK    5  A    between atoms: C5_15  and  C6_20 
REMARK       I    between atoms: C6_20  and  N6_22 
REMARK    6  A    between atoms: N6_22  and  N7_24 
ROOT
HETATM    1  C1  UNL     1       3.453  -9.092  40.744  1.00  0.00     0.177 C 
HETATM    2  N1  UNL     1       4.872  -9.360  40.720  1.00  0.00    -0.294 N 
HETATM    3  N2  UNL     1       5.688  -8.934  41.681  1.00  0.00    -0.282 N 
ATOM      4  H2  UNL     1       5.394  -8.396  42.496  1.00  0.00     0.189 HD
HETATM    5  C2  UNL     1       6.954  -9.311  41.428  1.00  0.00     0.145 A 
HETATM    6  N3  UNL     1       8.032  -9.098  42.109  1.00  0.00    -0.382 N 
ATOM      7  H31 UNL     1       8.992  -9.385  41.917  1.00  0.00     0.157 HD
ATOM      8  H32 UNL     1       8.085  -8.585  42.989  1.00  0.00     0.157 HD
HETATM    9  C3  UNL     1       6.882 -10.010  40.230  1.00  0.00     0.125 A 
HETATM   10  C4  UNL     1       5.575 -10.035  39.795  1.00  0.00     0.100 A 
ENDROOT
BRANCH  10  11
HETATM   11  C5  UNL     1       5.050 -10.674  38.563  1.00  0.00     0.329 C 
BRANCH  11  12
HETATM   12  N5  UNL     1       4.888 -12.102  38.738  1.00  0.00    -0.061 N 
ATOM     13  H53 UNL     1       3.934 -12.398  38.531  1.00  0.00     0.275 HD
ATOM     14  H52 UNL     1       5.376 -12.626  38.012  1.00  0.00     0.275 HD
ATOM     15  H51 UNL     1       5.177 -12.396  39.671  1.00  0.00     0.275 HD
ENDBRANCH  11  12
BRANCH  11  16
HETATM   16  C6  UNL     1       5.889 -10.418  37.401  1.00  0.00     0.272 C 
HETATM   17  O2  UNL     1       6.554 -11.347  36.891  1.00  0.00    -0.269 OA
HETATM   18  N6  UNL     1       5.959  -9.120  36.841  1.00  0.00    -0.275 N 
ATOM     19  H6  UNL     1       5.411  -8.371  37.266  1.00  0.00     0.189 HD
BRANCH  18  20
HETATM   20  N7  UNL     1       6.756  -8.824  35.719  1.00  0.00    -0.343 N 
ATOM     21  H72 UNL     1       7.756  -9.017  35.782  1.00  0.00     0.176 HD
ATOM     22  H71 UNL     1       6.367  -8.431  34.861  1.00  0.00     0.176 HD
ENDBRANCH  18  20
ENDBRANCH  11  16
ENDBRANCH  10  11
BRANCH   9  23
HETATM   23  N4  UNL     1       7.972 -10.610  39.547  1.00  0.00    -0.264 N 
ATOM     24  H4  UNL     1       7.887 -11.514  39.083  1.00  0.00     0.194 HD
BRANCH  23  25
HETATM   25  O1  UNL     1       9.053  -9.958  39.549  1.00  0.00    -0.289 OA
ATOM     26  H1  UNL     1       9.683 -10.195  38.879  1.00  0.00     0.244 HD
ENDBRANCH  23  25
ENDBRANCH   9  23
TORSDOF 6
ENDMDL
MODEL 5
REMARK VINA RESULT: -5.987330972      1.181      2.156
REMARK  6 active torsions:
REMARK  status: ('A' for Active; 'I' for Inactive)
REMARK    1  A    between atoms: C3_9  and  N4_10 
REMARK    2  A    between atoms: N4_10  and  O1_12 
REMARK    3  A    between atoms: C4_14  and  C5_15 
REMARK    4  A    between atoms: C5_15  and  N5_16 
REMARK    5  A    between atoms: C5_15  and  C6_20 
REMARK       I    between atoms: C6_20  and  N6_22 
REMARK    6  A    between atoms: N6_22  and  N7_24 
ROOT
HETATM    1  C1  UNL     1       3.269  -8.664  39.299  1.00  0.00     0.177 C 
HETATM    2  N1  UNL     1       4.176  -9.518  38.567  1.00  0.00    -0.294 N 
HETATM    3  N2  UNL     1       3.878 -10.782  38.277  1.00  0.00    -0.282 N 
ATOM      4  H2  UNL     1       3.009 -11.248  38.537  1.00  0.00     0.189 HD
HETATM    5  C2  UNL     1       4.882 -11.360  37.592  1.00  0.00     0.145 A 
HETATM    6  N3  UNL     1       4.982 -12.563  37.130  1.00  0.00    -0.382 N 
ATOM      7  H31 UNL     1       5.743 -13.000  36.611  1.00  0.00     0.157 HD
ATOM      8  H32 UNL     1       4.276 -13.292  37.220  1.00  0.00     0.157 HD
HETATM    9  C3  UNL     1       5.844 -10.366  37.469  1.00  0.00     0.125 A 
HETATM   10  C4  UNL     1       5.393  -9.217  38.083  1.00  0.00     0.100 A 
ENDROOT
BRANCH  10  11
HETATM   11  C5  UNL     1       6.101  -7.917  38.188  1.00  0.00     0.329 C 
BRANCH  11  12
HETATM   12  N5  UNL     1       5.886  -7.303  39.481  1.00  0.00    -0.061 N 
ATOM     13  H53 UNL     1       5.427  -7.944  40.128  1.00  0.00     0.275 HD
ATOM     14  H52 UNL     1       6.763  -7.173  39.985  1.00  0.00     0.275 HD
ATOM     15  H51 UNL     1       5.370  -6.427  39.394  1.00  0.00     0.275 HD
ENDBRANCH  11  12
BRANCH  11  16
HETATM   16  C6  UNL     1       5.717  -6.986  37.136  1.00  0.00     0.272 C 
HETATM   17  O2  UNL     1       6.341  -6.973  36.053  1.00  0.00    -0.269 OA
HETATM   18  N6  UNL     1       4.639  -6.090  37.333  1.00  0.00    -0.275 N 
ATOM     19  H6  UNL     1       4.138  -6.111  38.222  1.00  0.00     0.189 HD
BRANCH  18  20
HETATM   20  N7  UNL     1       4.232  -5.172  36.347  1.00  0.00    -0.343 N 
ATOM     21  H72 UNL     1       4.833  -4.366  36.170  1.00  0.00     0.176 HD
ATOM     22  H71 UNL     1       3.370  -5.289  35.814  1.00  0.00     0.176 HD
ENDBRANCH  18  20
ENDBRANCH  11  16
ENDBRANCH  10  11
BRANCH   9  23
HETATM   23  N4  UNL     1       7.098 -10.494  36.819  1.00  0.00    -0.264 N 
ATOM     24  H4  UNL     1       7.857 -11.048  37.214  1.00  0.00     0.194 HD
BRANCH  23  25
HETATM   25  O1  UNL     1       7.218  -9.882  35.721  1.00  0.00    -0.289 OA
ATOM     26  H1  UNL     1       7.510 -10.403  34.983  1.00  0.00     0.244 HD
ENDBRANCH  23  25
ENDBRANCH   9  23
TORSDOF 6
ENDMDL
