MODEL 1
REMARK VINA RESULT: -6.434099607      0.000      0.000
REMARK  5 active torsions:
REMARK  status: ('A' for Active; 'I' for Inactive)
REMARK    1  A    between atoms: N1_1  and  C1_4 
REMARK    2  A    between atoms: C2_7  and  N3_8 
REMARK    3  A    between atoms: N3_8  and  N4_9 
REMARK    4  A    between atoms: N3_8  and  N5_12 
REMARK    5  A    between atoms: C3_14  and  C4_15 
ROOT
HETATM    1  N3  UNL     1       3.323  -9.948  38.197  1.00  0.00    -0.025 N 
ENDROOT
BRANCH   1   2
HETATM    2  C2  UNL     1       4.657 -10.005  37.713  1.00  0.00     0.748 A 
HETATM    3  N2  UNL     1       5.625 -10.881  38.094  1.00  0.00    -0.017 N 
HETATM    4  C1  UNL     1       6.745 -10.609  37.405  1.00  0.00     0.705 A 
ATOM      5  H2  UNL     1       5.518 -11.622  38.787  1.00  0.00     0.203 HD
HETATM    6  N11 UNL     1       6.458  -9.566  36.604  1.00  0.00    -0.117 N 
HETATM    7  N10 UNL     1       5.211  -9.206  36.788  1.00  0.00    -0.114 N 
ATOM      8  H11 UNL     1       7.110  -9.125  35.956  1.00  0.00     0.206 HD
ATOM      9  H10 UNL     1       4.739  -8.442  36.305  1.00  0.00     0.206 HD
BRANCH   4  10
HETATM   10  N1  UNL     1       7.894 -11.216  37.478  1.00  0.00    -0.233 N 
ATOM     11  H12 UNL     1       8.030 -12.213  37.646  1.00  0.00     0.174 HD
ATOM     12  H11 UNL     1       8.825 -10.809  37.381  1.00  0.00     0.174 HD
ENDBRANCH   4  10
ENDBRANCH   1   2
BRANCH   1  13
HETATM   13  N4  UNL     1       2.287 -10.327  37.367  1.00  0.00    -0.309 N 
ATOM     14  H42 UNL     1       2.418 -10.392  36.357  1.00  0.00     0.179 HD
ATOM     15  H41 UNL     1       1.376 -10.543  37.773  1.00  0.00     0.179 HD
ENDBRANCH   1  13
BRANCH   1  16
HETATM   16  N5  UNL     1       3.082  -9.520  39.483  1.00  0.00    -0.273 N 
HETATM   17  C3  UNL     1       3.449  -8.372  39.941  1.00  0.00     0.160 C 
ATOM     18  H5  UNL     1       2.584 -10.150  40.113  1.00  0.00     0.188 HD
BRANCH  17  19
HETATM   19  C4  UNL     1       3.169  -7.972  41.307  1.00  0.00     0.148 A 
HETATM   20  N6  UNL     1       2.360  -8.654  42.129  1.00  0.00    -0.269 N 
HETATM   21  N7  UNL     1       2.335  -8.003  43.296  1.00  0.00    -0.007 NA
ATOM     22  H6  UNL     1       1.857  -9.512  41.905  1.00  0.00     0.185 HD
HETATM   23  N8  UNL     1       3.105  -6.931  43.227  1.00  0.00    -0.007 NA
HETATM   24  N9  UNL     1       3.614  -6.919  42.006  1.00  0.00    -0.269 N 
ATOM     25  H9  UNL     1       4.253  -6.209  41.647  1.00  0.00     0.185 HD
ENDBRANCH  17  19
ENDBRANCH   1  16
TORSDOF 5
ENDMDL
MODEL 2
REMARK VINA RESULT: -6.425196332      3.596      6.891
REMARK  5 active torsions:
REMARK  status: ('A' for Active; 'I' for Inactive)
REMARK    1  A    between atoms: N1_1  and  C1_4 
REMARK    2  A    between atoms: C2_7  and  N3_8 
REMARK    3  A    between atoms: N3_8  and  N4_9 
REMARK    4  A    between atoms: N3_8  and  N5_12 
REMARK    5  A    between atoms: C3_14  and  C4_15 
ROOT
HETATM    1  N3  UNL     1       6.061  -9.323  42.274  1.00  0.00    -0.025 N 
ENDROOT
BRANCH   1   2
HETATM    2  C2  UNL     1       6.789  -8.673  43.305  1.00  0.00     0.748 A 
HETATM    3  N2  UNL     1       6.690  -8.904  44.642  1.00  0.00    -0.017 N 
HETATM    4  C1  UNL     1       7.543  -8.089  45.282  1.00  0.00     0.705 A 
ATOM      5  H2  UNL     1       6.072  -9.584  45.084  1.00  0.00     0.203 HD
HETATM    6  N11 UNL     1       8.162  -7.361  44.335  1.00  0.00    -0.117 N 
HETATM    7  N10 UNL     1       7.712  -7.710  43.154  1.00  0.00    -0.114 N 
ATOM      8  H11 UNL     1       8.871  -6.649  44.508  1.00  0.00     0.206 HD
ATOM      9  H10 UNL     1       8.014  -7.314  42.264  1.00  0.00     0.206 HD
BRANCH   4  10
HETATM   10  N1  UNL     1       7.751  -7.999  46.564  1.00  0.00    -0.233 N 
ATOM     11  H12 UNL     1       7.084  -7.646  47.251  1.00  0.00     0.174 HD
ATOM     12  H11 UNL     1       8.591  -8.258  47.082  1.00  0.00     0.174 HD
ENDBRANCH   4  10
ENDBRANCH   1   2
BRANCH   1  13
HETATM   13  N4  UNL     1       4.721  -9.595  42.462  1.00  0.00    -0.309 N 
ATOM     14  H42 UNL     1       4.416 -10.468  42.895  1.00  0.00     0.179 HD
ATOM     15  H41 UNL     1       4.026  -8.912  42.160  1.00  0.00     0.179 HD
ENDBRANCH   1  13
BRANCH   1  16
HETATM   16  N5  UNL     1       6.699  -9.671  41.104  1.00  0.00    -0.273 N 
HETATM   17  C3  UNL     1       6.088 -10.063  40.039  1.00  0.00     0.160 C 
ATOM     18  H5  UNL     1       7.718  -9.616  41.080  1.00  0.00     0.188 HD
BRANCH  17  19
HETATM   19  C4  UNL     1       6.812 -10.418  38.833  1.00  0.00     0.148 A 
HETATM   20  N6  UNL     1       7.850 -11.265  38.813  1.00  0.00    -0.269 N 
HETATM   21  N7  UNL     1       8.267 -11.356  37.546  1.00  0.00    -0.007 NA
ATOM     22  H6  UNL     1       8.248 -11.752  39.616  1.00  0.00     0.185 HD
HETATM   23  N8  UNL     1       7.520 -10.587  36.773  1.00  0.00    -0.007 NA
HETATM   24  N9  UNL     1       6.630 -10.016  37.567  1.00  0.00    -0.269 N 
ATOM     25  H9  UNL     1       5.908  -9.363  37.261  1.00  0.00     0.185 HD
ENDBRANCH  17  19
ENDBRANCH   1  16
TORSDOF 5
ENDMDL
MODEL 3
REMARK VINA RESULT: -6.373639342      3.590      5.951
REMARK  5 active torsions:
REMARK  status: ('A' for Active; 'I' for Inactive)
REMARK    1  A    between atoms: N1_1  and  C1_4 
REMARK    2  A    between atoms: C2_7  and  N3_8 
REMARK    3  A    between atoms: N3_8  and  N4_9 
REMARK    4  A    between atoms: N3_8  and  N5_12 
REMARK    5  A    between atoms: C3_14  and  C4_15 
ROOT
HETATM    1  N3  UNL     1       5.434  -9.139  41.465  1.00  0.00    -0.025 N 
ENDROOT
BRANCH   1   2
HETATM    2  C2  UNL     1       6.412  -9.009  42.487  1.00  0.00     0.748 A 
HETATM    3  N2  UNL     1       6.182  -8.817  43.814  1.00  0.00    -0.017 N 
HETATM    4  C1  UNL     1       7.363  -8.746  44.448  1.00  0.00     0.705 A 
ATOM      5  H2  UNL     1       5.265  -8.740  44.254  1.00  0.00     0.203 HD
HETATM    6  N11 UNL     1       8.313  -8.895  43.507  1.00  0.00    -0.117 N 
HETATM    7  N10 UNL     1       7.744  -9.052  42.336  1.00  0.00    -0.114 N 
ATOM      8  H11 UNL     1       9.318  -8.887  43.678  1.00  0.00     0.206 HD
ATOM      9  H10 UNL     1       8.236  -9.186  41.453  1.00  0.00     0.206 HD
BRANCH   4  10
HETATM   10  N1  UNL     1       7.577  -8.569  45.721  1.00  0.00    -0.233 N 
ATOM     11  H12 UNL     1       6.890  -8.238  46.398  1.00  0.00     0.174 HD
ATOM     12  H11 UNL     1       8.442  -8.727  46.238  1.00  0.00     0.174 HD
ENDBRANCH   4  10
ENDBRANCH   1   2
BRANCH   1  13
HETATM   13  N4  UNL     1       4.197  -9.663  41.778  1.00  0.00    -0.309 N 
ATOM     14  H42 UNL     1       3.448  -9.070  42.137  1.00  0.00     0.179 HD
ATOM     15  H41 UNL     1       4.030 -10.662  41.647  1.00  0.00     0.179 HD
ENDBRANCH   1  13
BRANCH   1  16
HETATM   16  N5  UNL     1       5.733  -8.740  40.182  1.00  0.00    -0.273 N 
HETATM   17  C3  UNL     1       5.233  -7.695  39.617  1.00  0.00     0.160 C 
ATOM     18  H5  UNL     1       6.391  -9.307  39.645  1.00  0.00     0.188 HD
BRANCH  17  19
HETATM   19  C4  UNL     1       5.584  -7.322  38.259  1.00  0.00     0.148 A 
HETATM   20  N6  UNL     1       4.860  -6.478  37.512  1.00  0.00    -0.269 N 
HETATM   21  N7  UNL     1       5.472  -6.366  36.329  1.00  0.00    -0.007 NA
ATOM     22  H6  UNL     1       4.001  -6.007  37.794  1.00  0.00     0.185 HD
HETATM   23  N8  UNL     1       6.559  -7.118  36.315  1.00  0.00    -0.007 NA
HETATM   24  N9  UNL     1       6.622  -7.701  37.501  1.00  0.00    -0.269 N 
ATOM     25  H9  UNL     1       7.355  -8.345  37.797  1.00  0.00     0.185 HD
ENDBRANCH  17  19
ENDBRANCH   1  16
TORSDOF 5
ENDMDL
MODEL 4
REMARK VINA RESULT: -6.359591297      1.665      1.748
REMARK  5 active torsions:
REMARK  status: ('A' for Active; 'I' for Inactive)
REMARK    1  A    between atoms: N1_1  and  C1_4 
REMARK    2  A    between atoms: C2_7  and  N3_8 
REMARK    3  A    between atoms: N3_8  and  N4_9 
REMARK    4  A    between atoms: N3_8  and  N5_12 
REMARK    5  A    between atoms: C3_14  and  C4_15 
ROOT
HETATM    1  N3  UNL     1       5.065  -7.498  38.091  1.00  0.00    -0.025 N 
ENDROOT
BRANCH   1   2
HETATM    2  C2  UNL     1       5.857  -8.564  37.586  1.00  0.00     0.748 A 
HETATM    3  N2  UNL     1       6.516  -9.504  38.315  1.00  0.00    -0.017 N 
HETATM    4  C1  UNL     1       7.147 -10.337  37.472  1.00  0.00     0.705 A 
ATOM      5  H2  UNL     1       6.529  -9.567  39.333  1.00  0.00     0.203 HD
HETATM    6  N11 UNL     1       6.871  -9.904  36.228  1.00  0.00    -0.117 N 
HETATM    7  N10 UNL     1       6.101  -8.845  36.297  1.00  0.00    -0.114 N 
ATOM      8  H11 UNL     1       7.209 -10.332  35.367  1.00  0.00     0.206 HD
ATOM      9  H10 UNL     1       5.744  -8.320  35.499  1.00  0.00     0.206 HD
BRANCH   4  10
HETATM   10  N1  UNL     1       7.886 -11.367  37.770  1.00  0.00    -0.233 N 
ATOM     11  H12 UNL     1       7.659 -12.081  38.463  1.00  0.00     0.174 HD
ATOM     12  H11 UNL     1       8.789 -11.625  37.372  1.00  0.00     0.174 HD
ENDBRANCH   4  10
ENDBRANCH   1   2
BRANCH   1  13
HETATM   13  N4  UNL     1       4.676  -6.485  37.238  1.00  0.00    -0.309 N 
ATOM     14  H42 UNL     1       5.063  -6.410  36.297  1.00  0.00     0.179 HD
ATOM     15  H41 UNL     1       3.990  -5.801  37.557  1.00  0.00     0.179 HD
ENDBRANCH   1  13
BRANCH   1  16
HETATM   16  N5  UNL     1       4.698  -7.491  39.418  1.00  0.00    -0.273 N 
HETATM   17  C3  UNL     1       3.477  -7.540  39.828  1.00  0.00     0.160 C 
ATOM     18  H5  UNL     1       5.438  -7.443  40.119  1.00  0.00     0.188 HD
BRANCH  17  19
HETATM   19  C4  UNL     1       3.147  -7.529  41.240  1.00  0.00     0.148 A 
HETATM   20  N6  UNL     1       2.534  -8.542  41.867  1.00  0.00    -0.269 N 
HETATM   21  N7  UNL     1       2.389  -8.191  43.148  1.00  0.00    -0.007 NA
ATOM     22  H6  UNL     1       2.233  -9.420  41.444  1.00  0.00     0.185 HD
HETATM   23  N8  UNL     1       2.895  -6.985  43.341  1.00  0.00    -0.007 NA
HETATM   24  N9  UNL     1       3.358  -6.585  42.168  1.00  0.00    -0.269 N 
ATOM     25  H9  UNL     1       3.811  -5.688  41.995  1.00  0.00     0.185 HD
ENDBRANCH  17  19
ENDBRANCH   1  16
TORSDOF 5
ENDMDL
MODEL 5
REMARK VINA RESULT: -6.332701781      1.429      2.183
REMARK  5 active torsions:
REMARK  status: ('A' for Active; 'I' for Inactive)
REMARK    1  A    between atoms: N1_1  and  C1_4 
REMARK    2  A    between atoms: C2_7  and  N3_8 
REMARK    3  A    between atoms: N3_8  and  N4_9 
REMARK    4  A    between atoms: N3_8  and  N5_12 
REMARK    5  A    between atoms: C3_14  and  C4_15 
ROOT
HETATM    1  N3  UNL     1       4.921 -10.808  38.671  1.00  0.00    -0.025 N 
ENDROOT
BRANCH   1   2
HETATM    2  C2  UNL     1       5.691 -10.171  37.662  1.00  0.00     0.748 A 
HETATM    3  N2  UNL     1       5.795  -8.833  37.440  1.00  0.00    -0.017 N 
HETATM    4  C1  UNL     1       6.616  -8.634  36.398  1.00  0.00     0.705 A 
ATOM      5  H2  UNL     1       5.326  -8.103  37.976  1.00  0.00     0.203 HD
HETATM    6  N11 UNL     1       7.014  -9.851  35.985  1.00  0.00    -0.117 N 
HETATM    7  N10 UNL     1       6.461 -10.769  36.740  1.00  0.00    -0.114 N 
ATOM      8  H11 UNL     1       7.646 -10.032  35.205  1.00  0.00     0.206 HD
ATOM      9  H10 UNL     1       6.595 -11.775  36.643  1.00  0.00     0.206 HD
BRANCH   4  10
HETATM   10  N1  UNL     1       6.975  -7.499  35.869  1.00  0.00    -0.233 N 
ATOM     11  H12 UNL     1       7.783  -6.942  36.150  1.00  0.00     0.174 HD
ATOM     12  H11 UNL     1       6.523  -6.992  35.108  1.00  0.00     0.174 HD
ENDBRANCH   4  10
ENDBRANCH   1   2
BRANCH   1  13
HETATM   13  N4  UNL     1       4.817 -12.184  38.673  1.00  0.00    -0.309 N 
ATOM     14  H42 UNL     1       4.830 -12.715  37.801  1.00  0.00     0.179 HD
ATOM     15  H41 UNL     1       4.724 -12.677  39.562  1.00  0.00     0.179 HD
ENDBRANCH   1  13
BRANCH   1  16
HETATM   16  N5  UNL     1       4.293 -10.047  39.632  1.00  0.00    -0.273 N 
HETATM   17  C3  UNL     1       4.778  -9.824  40.805  1.00  0.00     0.160 C 
ATOM     18  H5  UNL     1       3.389  -9.635  39.401  1.00  0.00     0.188 HD
BRANCH  17  19
HETATM   19  C4  UNL     1       4.072  -9.014  41.779  1.00  0.00     0.148 A 
HETATM   20  N6  UNL     1       4.605  -7.940  42.377  1.00  0.00    -0.269 N 
HETATM   21  N7  UNL     1       3.682  -7.444  43.206  1.00  0.00    -0.007 NA
ATOM     22  H6  UNL     1       5.543  -7.568  42.226  1.00  0.00     0.185 HD
HETATM   23  N8  UNL     1       2.585  -8.179  43.146  1.00  0.00    -0.007 NA
HETATM   24  N9  UNL     1       2.831  -9.139  42.269  1.00  0.00    -0.269 N 
ATOM     25  H9  UNL     1       2.170  -9.870  42.003  1.00  0.00     0.185 HD
ENDBRANCH  17  19
ENDBRANCH   1  16
TORSDOF 5
ENDMDL
