MODEL 1
REMARK VINA RESULT: -4.448489816      0.000      0.000
REMARK  3 active torsions:
REMARK  status: ('A' for Active; 'I' for Inactive)
REMARK    1  A    between atoms: N1_1  and  N2_4 
REMARK       I    between atoms: N2_4  and  C1_6 
REMARK    2  A    between atoms: C1_6  and  C2_8 
REMARK    3  A    between atoms: N4_11  and  N5_12 
ROOT
HETATM    1  C2  UNL     1      41.813  57.578  21.799  1.00  0.00     0.147 A 
HETATM    2  C3  UNL     1      40.634  56.820  21.875  1.00  0.00     0.177 A 
HETATM    3  N3  UNL     1      39.618  56.907  22.872  1.00  0.00    -0.078 NA
HETATM    4  N4  UNL     1      40.589  55.967  20.844  1.00  0.00    -0.185 N 
HETATM    5  N6  UNL     1      41.674  56.139  20.113  1.00  0.00    -0.243 N 
ATOM      6  H6  UNL     1      41.900  55.620  19.265  1.00  0.00     0.192 HD
HETATM    7  C4  UNL     1      42.449  57.119  20.667  1.00  0.00     0.280 A 
HETATM    8  O2  UNL     1      43.537  57.504  20.202  1.00  0.00    -0.266 OA
ENDROOT
BRANCH   1   9
HETATM    9  C1  UNL     1      42.182  58.589  22.747  1.00  0.00     0.278 C 
HETATM   10  N2  UNL     1      41.287  59.063  23.715  1.00  0.00    -0.272 N 
ATOM     11  H2  UNL     1      40.341  58.683  23.752  1.00  0.00     0.189 HD
HETATM   12  O1  UNL     1      43.351  59.069  22.712  1.00  0.00    -0.266 OA
BRANCH  10  13
HETATM   13  N1  UNL     1      41.669  60.052  24.633  1.00  0.00    -0.342 N 
ATOM     14  H12 UNL     1      42.082  60.913  24.276  1.00  0.00     0.176 HD
ATOM     15  H11 UNL     1      41.539  59.918  25.636  1.00  0.00     0.176 HD
ENDBRANCH  10  13
ENDBRANCH   1   9
BRANCH   4  16
HETATM   16  N5  UNL     1      39.575  55.029  20.551  1.00  0.00    -0.323 N 
ATOM     17  H52 UNL     1      38.591  55.268  20.430  1.00  0.00     0.179 HD
ATOM     18  H51 UNL     1      39.681  54.023  20.422  1.00  0.00     0.179 HD
ENDBRANCH   4  16
TORSDOF 3
ENDMDL
MODEL 2
REMARK VINA RESULT: -4.440222932      5.638      6.811
REMARK  3 active torsions:
REMARK  status: ('A' for Active; 'I' for Inactive)
REMARK    1  A    between atoms: N1_1  and  N2_4 
REMARK       I    between atoms: N2_4  and  C1_6 
REMARK    2  A    between atoms: C1_6  and  C2_8 
REMARK    3  A    between atoms: N4_11  and  N5_12 
ROOT
HETATM    1  C2  UNL     1      36.304  57.194  25.138  1.00  0.00     0.147 A 
HETATM    2  C3  UNL     1      36.882  56.252  24.273  1.00  0.00     0.177 A 
HETATM    3  N3  UNL     1      36.816  54.832  24.379  1.00  0.00    -0.078 NA
HETATM    4  N4  UNL     1      37.533  56.893  23.293  1.00  0.00    -0.185 N 
HETATM    5  N6  UNL     1      37.403  58.192  23.486  1.00  0.00    -0.243 N 
ATOM      6  H6  UNL     1      37.800  58.917  22.889  1.00  0.00     0.192 HD
HETATM    7  C4  UNL     1      36.655  58.416  24.608  1.00  0.00     0.280 A 
HETATM    8  O2  UNL     1      36.362  59.543  25.045  1.00  0.00    -0.266 OA
ENDROOT
BRANCH   1   9
HETATM    9  C1  UNL     1      35.532  56.854  26.299  1.00  0.00     0.278 C 
HETATM   10  N2  UNL     1      34.449  55.967  26.237  1.00  0.00    -0.272 N 
ATOM     11  H2  UNL     1      34.195  55.548  25.343  1.00  0.00     0.189 HD
HETATM   12  O1  UNL     1      35.837  57.367  27.413  1.00  0.00    -0.266 OA
BRANCH  10  13
HETATM   13  N1  UNL     1      33.708  55.648  27.384  1.00  0.00    -0.342 N 
ATOM     14  H12 UNL     1      32.780  56.056  27.492  1.00  0.00     0.176 HD
ATOM     15  H11 UNL     1      34.084  55.022  28.097  1.00  0.00     0.176 HD
ENDBRANCH  10  13
ENDBRANCH   1   9
BRANCH   4  16
HETATM   16  N5  UNL     1      38.249  56.317  22.221  1.00  0.00    -0.323 N 
ATOM     17  H52 UNL     1      37.937  55.500  21.696  1.00  0.00     0.179 HD
ATOM     18  H51 UNL     1      39.142  56.626  21.836  1.00  0.00     0.179 HD
ENDBRANCH   4  16
TORSDOF 3
ENDMDL
MODEL 3
REMARK VINA RESULT: -4.313236319      5.729      6.573
REMARK  3 active torsions:
REMARK  status: ('A' for Active; 'I' for Inactive)
REMARK    1  A    between atoms: N1_1  and  N2_4 
REMARK       I    between atoms: N2_4  and  C1_6 
REMARK    2  A    between atoms: C1_6  and  C2_8 
REMARK    3  A    between atoms: N4_11  and  N5_12 
ROOT
HETATM    1  C2  UNL     1      36.364  57.086  25.008  1.00  0.00     0.147 A 
HETATM    2  C3  UNL     1      37.021  58.067  24.249  1.00  0.00     0.177 A 
HETATM    3  N3  UNL     1      37.157  59.451  24.565  1.00  0.00    -0.078 NA
HETATM    4  N4  UNL     1      37.522  57.508  23.141  1.00  0.00    -0.185 N 
HETATM    5  N6  UNL     1      37.222  56.222  23.150  1.00  0.00    -0.243 N 
ATOM      6  H6  UNL     1      37.480  55.553  22.425  1.00  0.00     0.192 HD
HETATM    7  C4  UNL     1      36.513  55.926  24.280  1.00  0.00     0.280 A 
HETATM    8  O2  UNL     1      36.089  54.793  24.568  1.00  0.00    -0.266 OA
ENDROOT
BRANCH   1   9
HETATM    9  C1  UNL     1      35.711  57.339  26.260  1.00  0.00     0.278 C 
HETATM   10  N2  UNL     1      36.293  56.991  27.486  1.00  0.00    -0.272 N 
ATOM     11  H2  UNL     1      37.209  56.543  27.496  1.00  0.00     0.189 HD
HETATM   12  O1  UNL     1      34.576  57.895  26.260  1.00  0.00    -0.266 OA
BRANCH  10  13
HETATM   13  N1  UNL     1      35.637  57.249  28.698  1.00  0.00    -0.342 N 
ATOM     14  H12 UNL     1      34.648  57.496  28.673  1.00  0.00     0.176 HD
ATOM     15  H11 UNL     1      36.133  57.192  29.588  1.00  0.00     0.176 HD
ENDBRANCH  10  13
ENDBRANCH   1   9
BRANCH   4  16
HETATM   16  N5  UNL     1      38.251  58.144  22.113  1.00  0.00    -0.323 N 
ATOM     17  H52 UNL     1      39.150  58.607  22.250  1.00  0.00     0.179 HD
ATOM     18  H51 UNL     1      37.993  58.227  21.130  1.00  0.00     0.179 HD
ENDBRANCH   4  16
TORSDOF 3
ENDMDL
MODEL 4
REMARK VINA RESULT: -4.304346982      3.748      5.257
REMARK  3 active torsions:
REMARK  status: ('A' for Active; 'I' for Inactive)
REMARK    1  A    between atoms: N1_1  and  N2_4 
REMARK       I    between atoms: N2_4  and  C1_6 
REMARK    2  A    between atoms: C1_6  and  C2_8 
REMARK    3  A    between atoms: N4_11  and  N5_12 
ROOT
HETATM    1  C2  UNL     1      37.984  57.007  22.404  1.00  0.00     0.147 A 
HETATM    2  C3  UNL     1      37.255  58.020  21.761  1.00  0.00     0.177 A 
HETATM    3  N3  UNL     1      37.674  58.805  20.646  1.00  0.00    -0.078 NA
HETATM    4  N4  UNL     1      36.066  58.159  22.360  1.00  0.00    -0.185 N 
HETATM    5  N6  UNL     1      35.994  57.289  23.350  1.00  0.00    -0.243 N 
ATOM      6  H6  UNL     1      35.197  57.176  23.976  1.00  0.00     0.192 HD
HETATM    7  C4  UNL     1      37.151  56.565  23.409  1.00  0.00     0.280 A 
HETATM    8  O2  UNL     1      37.379  55.668  24.240  1.00  0.00    -0.266 OA
ENDROOT
BRANCH   1   9
HETATM    9  C1  UNL     1      39.303  56.596  22.020  1.00  0.00     0.278 C 
HETATM   10  N2  UNL     1      39.553  55.935  20.810  1.00  0.00    -0.272 N 
ATOM     11  H2  UNL     1      38.777  55.735  20.178  1.00  0.00     0.189 HD
HETATM   12  O1  UNL     1      40.273  56.837  22.794  1.00  0.00    -0.266 OA
BRANCH  10  13
HETATM   13  N1  UNL     1      40.851  55.542  20.453  1.00  0.00    -0.342 N 
ATOM     14  H12 UNL     1      41.117  54.566  20.585  1.00  0.00     0.176 HD
ATOM     15  H11 UNL     1      41.518  56.212  20.071  1.00  0.00     0.176 HD
ENDBRANCH  10  13
ENDBRANCH   1   9
BRANCH   4  16
HETATM   16  N5  UNL     1      35.037  59.065  22.024  1.00  0.00    -0.323 N 
ATOM     17  H52 UNL     1      35.163  59.876  21.418  1.00  0.00     0.179 HD
ATOM     18  H51 UNL     1      34.064  59.037  22.326  1.00  0.00     0.179 HD
ENDBRANCH   4  16
TORSDOF 3
ENDMDL
MODEL 5
REMARK VINA RESULT: -4.241194179      1.470      3.662
REMARK  3 active torsions:
REMARK  status: ('A' for Active; 'I' for Inactive)
REMARK    1  A    between atoms: N1_1  and  N2_4 
REMARK       I    between atoms: N2_4  and  C1_6 
REMARK    2  A    between atoms: C1_6  and  C2_8 
REMARK    3  A    between atoms: N4_11  and  N5_12 
ROOT
HETATM    1  C2  UNL     1      41.923  57.218  20.869  1.00  0.00     0.147 A 
HETATM    2  C3  UNL     1      40.716  56.503  20.823  1.00  0.00     0.177 A 
HETATM    3  N3  UNL     1      40.232  55.702  19.748  1.00  0.00    -0.078 NA
HETATM    4  N4  UNL     1      40.051  56.681  21.972  1.00  0.00    -0.185 N 
HETATM    5  N6  UNL     1      40.767  57.472  22.749  1.00  0.00    -0.243 N 
ATOM      6  H6  UNL     1      40.498  57.775  23.686  1.00  0.00     0.192 HD
HETATM    7  C4  UNL     1      41.921  57.822  22.108  1.00  0.00     0.280 A 
HETATM    8  O2  UNL     1      42.799  58.561  22.589  1.00  0.00    -0.266 OA
ENDROOT
BRANCH   1   9
HETATM    9  C1  UNL     1      42.882  57.249  19.803  1.00  0.00     0.278 C 
HETATM   10  N2  UNL     1      43.356  56.079  19.196  1.00  0.00    -0.272 N 
ATOM     11  H2  UNL     1      43.014  55.174  19.518  1.00  0.00     0.189 HD
HETATM   12  O1  UNL     1      43.314  58.365  19.396  1.00  0.00    -0.266 OA
BRANCH  10  13
HETATM   13  N1  UNL     1      44.293  56.132  18.154  1.00  0.00    -0.342 N 
ATOM     14  H12 UNL     1      44.028  56.594  17.285  1.00  0.00     0.176 HD
ATOM     15  H11 UNL     1      45.221  55.720  18.259  1.00  0.00     0.176 HD
ENDBRANCH  10  13
ENDBRANCH   1   9
BRANCH   4  16
HETATM   16  N5  UNL     1      38.799  56.138  22.331  1.00  0.00    -0.323 N 
ATOM     17  H52 UNL     1      38.532  55.164  22.182  1.00  0.00     0.179 HD
ATOM     18  H51 UNL     1      38.017  56.622  22.772  1.00  0.00     0.179 HD
ENDBRANCH   4  16
TORSDOF 3
ENDMDL
