MODEL 1
REMARK VINA RESULT: -10.991162209      0.000      0.000
REMARK  9 active torsions:
REMARK  status: ('A' for Active; 'I' for Inactive)
REMARK    1  A    between atoms: O1_2  and  C2_3 
REMARK    2  A    between atoms: C2_3  and  C3_5 
REMARK    3  A    between atoms: C8_12  and  N2_13 
REMARK       I    between atoms: N2_13  and  C9_15 
REMARK    4  A    between atoms: C9_15  and  C10_17 
REMARK    5  A    between atoms: C10_17  and  O4_19 
REMARK    6  A    between atoms: O4_19  and  C12_20 
REMARK    7  A    between atoms: C12_20  and  C13_22 
REMARK    8  A    between atoms: C14_23  and  C15_24 
REMARK    9  A    between atoms: C14_23  and  C21_31 
ROOT
HETATM    1  O4  UNL     1      20.729  14.802  31.803  1.00  0.00    -0.303 OA
ENDROOT
BRANCH   1   2
HETATM    2  C10 UNL     1      20.637  15.491  30.585  1.00  0.00     0.220 C 
HETATM    3  C11 UNL     1      19.212  15.849  30.226  1.00  0.00     0.050 C 
BRANCH   2   4
HETATM    4  C9  UNL     1      21.547  16.661  30.519  1.00  0.00     0.251 C 
HETATM    5  N2  UNL     1      22.830  16.484  29.936  1.00  0.00    -0.322 N 
ATOM      6  H2  UNL     1      23.084  15.563  29.581  1.00  0.00     0.169 HD
HETATM    7  O3  UNL     1      21.249  17.798  30.948  1.00  0.00    -0.270 OA
BRANCH   5   8
HETATM    8  C8  UNL     1      23.775  17.543  29.828  1.00  0.00     0.075 A 
HETATM    9  C3  UNL     1      23.944  18.389  28.757  1.00  0.00     0.090 A 
HETATM   10  C4  UNL     1      24.965  19.256  29.086  1.00  0.00     0.024 A 
HETATM   11  C5  UNL     1      25.474  20.346  28.195  1.00  0.00     0.069 C 
HETATM   12  N1  UNL     1      25.401  18.944  30.319  1.00  0.00    -0.361 N 
HETATM   13  C6  UNL     1      24.698  17.904  30.801  1.00  0.00     0.033 A 
ATOM     14  H1  UNL     1      26.153  19.424  30.814  1.00  0.00     0.165 HD
HETATM   15  C7  UNL     1      24.882  17.259  32.145  1.00  0.00     0.070 C 
BRANCH   9  16
HETATM   16  C2  UNL     1      23.211  18.410  27.489  1.00  0.00     0.297 C 
HETATM   17  O2  UNL     1      22.118  19.027  27.427  1.00  0.00    -0.259 OA
BRANCH  16  18
HETATM   18  O1  UNL     1      23.657  17.784  26.354  1.00  0.00    -0.322 OA
HETATM   19  C1  UNL     1      24.201  18.442  25.225  1.00  0.00     0.213 C 
ENDBRANCH  16  18
ENDBRANCH   9  16
ENDBRANCH   5   8
ENDBRANCH   2   4
ENDBRANCH   1   2
BRANCH   1  20
HETATM   20  C12 UNL     1      21.845  14.014  32.165  1.00  0.00     0.284 C 
HETATM   21  O5  UNL     1      22.802  14.694  32.562  1.00  0.00    -0.260 OA
BRANCH  20  22
HETATM   22  C13 UNL     1      21.724  12.576  32.028  1.00  0.00     0.095 C 
HETATM   23  C14 UNL     1      21.127  11.690  32.761  1.00  0.00    -0.010 C 
BRANCH  23  24
HETATM   24  C15 UNL     1      21.219  10.266  32.336  1.00  0.00    -0.025 A 
HETATM   25  C16 UNL     1      20.087   9.485  32.161  1.00  0.00     0.015 A 
HETATM   26  C17 UNL     1      20.259   8.138  31.846  1.00  0.00     0.043 A 
HETATM   27  C18 UNL     1      21.517   7.577  31.707  1.00  0.00     0.116 A 
HETATM   28  F1  UNL     1      21.663   6.267  31.400  1.00  0.00    -0.206 F 
HETATM   29  C19 UNL     1      22.628   8.350  31.879  1.00  0.00     0.043 A 
HETATM   30  C20 UNL     1      22.461   9.688  32.194  1.00  0.00     0.015 A 
ENDBRANCH  23  24
BRANCH  23  31
HETATM   31  C21 UNL     1      20.266  11.989  33.881  1.00  0.00    -0.025 A 
HETATM   32  C22 UNL     1      20.440  11.351  35.124  1.00  0.00     0.015 A 
HETATM   33  C23 UNL     1      19.600  11.504  36.189  1.00  0.00     0.043 A 
HETATM   34  C24 UNL     1      18.494  12.322  36.107  1.00  0.00     0.116 A 
HETATM   35  F2  UNL     1      17.667  12.468  37.172  1.00  0.00    -0.206 F 
HETATM   36  C25 UNL     1      18.289  12.961  34.911  1.00  0.00     0.043 A 
HETATM   37  C26 UNL     1      19.146  12.798  33.834  1.00  0.00     0.015 A 
ENDBRANCH  23  31
ENDBRANCH  20  22
ENDBRANCH   1  20
TORSDOF 9
ENDMDL
MODEL 2
REMARK VINA RESULT: -10.269577419      0.670      3.890
REMARK  9 active torsions:
REMARK  status: ('A' for Active; 'I' for Inactive)
REMARK    1  A    between atoms: O1_2  and  C2_3 
REMARK    2  A    between atoms: C2_3  and  C3_5 
REMARK    3  A    between atoms: C8_12  and  N2_13 
REMARK       I    between atoms: N2_13  and  C9_15 
REMARK    4  A    between atoms: C9_15  and  C10_17 
REMARK    5  A    between atoms: C10_17  and  O4_19 
REMARK    6  A    between atoms: O4_19  and  C12_20 
REMARK    7  A    between atoms: C12_20  and  C13_22 
REMARK    8  A    between atoms: C14_23  and  C15_24 
REMARK    9  A    between atoms: C14_23  and  C21_31 
ROOT
HETATM    1  O4  UNL     1      21.199  14.198  30.317  1.00  0.00    -0.303 OA
ENDROOT
BRANCH   1   2
HETATM    2  C10 UNL     1      20.532  15.428  30.228  1.00  0.00     0.220 C 
HETATM    3  C11 UNL     1      19.396  15.546  31.219  1.00  0.00     0.050 C 
BRANCH   2   4
HETATM    4  C9  UNL     1      21.457  16.586  30.289  1.00  0.00     0.251 C 
HETATM    5  N2  UNL     1      22.748  16.449  29.712  1.00  0.00    -0.322 N 
ATOM      6  H2  UNL     1      22.997  15.562  29.274  1.00  0.00     0.169 HD
HETATM    7  O3  UNL     1      21.167  17.681  30.822  1.00  0.00    -0.270 OA
BRANCH   5   8
HETATM    8  C8  UNL     1      23.708  17.500  29.721  1.00  0.00     0.075 A 
HETATM    9  C3  UNL     1      23.922  18.426  28.729  1.00  0.00     0.090 A 
HETATM   10  C4  UNL     1      24.941  19.250  29.160  1.00  0.00     0.024 A 
HETATM   11  C5  UNL     1      25.492  20.401  28.377  1.00  0.00     0.069 C 
HETATM   12  N1  UNL     1      25.331  18.834  30.377  1.00  0.00    -0.361 N 
HETATM   13  C6  UNL     1      24.601  17.769  30.751  1.00  0.00     0.033 A 
ATOM     14  H1  UNL     1      26.071  19.262  30.934  1.00  0.00     0.165 HD
HETATM   15  C7  UNL     1      24.731  17.015  32.044  1.00  0.00     0.070 C 
BRANCH   9  16
HETATM   16  C2  UNL     1      23.233  18.559  27.443  1.00  0.00     0.297 C 
HETATM   17  O2  UNL     1      22.190  19.256  27.380  1.00  0.00    -0.259 OA
BRANCH  16  18
HETATM   18  O1  UNL     1      23.670  17.956  26.292  1.00  0.00    -0.322 OA
HETATM   19  C1  UNL     1      24.367  18.609  25.248  1.00  0.00     0.213 C 
ENDBRANCH  16  18
ENDBRANCH   9  16
ENDBRANCH   5   8
ENDBRANCH   2   4
ENDBRANCH   1   2
BRANCH   1  20
HETATM   20  C12 UNL     1      21.890  13.772  31.474  1.00  0.00     0.284 C 
HETATM   21  O5  UNL     1      23.120  13.776  31.325  1.00  0.00    -0.260 OA
BRANCH  20  22
HETATM   22  C13 UNL     1      21.097  13.401  32.629  1.00  0.00     0.095 C 
HETATM   23  C14 UNL     1      20.711  12.246  33.071  1.00  0.00    -0.010 C 
BRANCH  23  24
HETATM   24  C15 UNL     1      19.871  12.222  34.301  1.00  0.00    -0.025 A 
HETATM   25  C16 UNL     1      20.143  11.359  35.351  1.00  0.00     0.015 A 
HETATM   26  C17 UNL     1      19.261  11.336  36.430  1.00  0.00     0.043 A 
HETATM   27  C18 UNL     1      18.138  12.145  36.470  1.00  0.00     0.116 A 
HETATM   28  F1  UNL     1      17.293  12.108  37.527  1.00  0.00    -0.206 F 
HETATM   29  C19 UNL     1      17.875  12.993  35.434  1.00  0.00     0.043 A 
HETATM   30  C20 UNL     1      18.749  13.017  34.360  1.00  0.00     0.015 A 
ENDBRANCH  23  24
BRANCH  23  31
HETATM   31  C21 UNL     1      21.144  10.972  32.546  1.00  0.00    -0.025 A 
HETATM   32  C22 UNL     1      20.223   9.941  32.286  1.00  0.00     0.015 A 
HETATM   33  C23 UNL     1      20.573   8.681  31.892  1.00  0.00     0.043 A 
HETATM   34  C24 UNL     1      21.896   8.335  31.718  1.00  0.00     0.116 A 
HETATM   35  F2  UNL     1      22.231   7.081  31.325  1.00  0.00    -0.206 F 
HETATM   36  C25 UNL     1      22.825   9.313  31.963  1.00  0.00     0.043 A 
HETATM   37  C26 UNL     1      22.460  10.589  32.365  1.00  0.00     0.015 A 
ENDBRANCH  23  31
ENDBRANCH  20  22
ENDBRANCH   1  20
TORSDOF 9
ENDMDL
MODEL 3
REMARK VINA RESULT: -10.113073816      1.009      1.291
REMARK  9 active torsions:
REMARK  status: ('A' for Active; 'I' for Inactive)
REMARK    1  A    between atoms: O1_2  and  C2_3 
REMARK    2  A    between atoms: C2_3  and  C3_5 
REMARK    3  A    between atoms: C8_12  and  N2_13 
REMARK       I    between atoms: N2_13  and  C9_15 
REMARK    4  A    between atoms: C9_15  and  C10_17 
REMARK    5  A    between atoms: C10_17  and  O4_19 
REMARK    6  A    between atoms: O4_19  and  C12_20 
REMARK    7  A    between atoms: C12_20  and  C13_22 
REMARK    8  A    between atoms: C14_23  and  C15_24 
REMARK    9  A    between atoms: C14_23  and  C21_31 
ROOT
HETATM    1  O4  UNL     1      20.535  14.554  31.705  1.00  0.00    -0.303 OA
ENDROOT
BRANCH   1   2
HETATM    2  C10 UNL     1      20.586  15.380  30.573  1.00  0.00     0.220 C 
HETATM    3  C11 UNL     1      19.383  16.291  30.464  1.00  0.00     0.050 C 
BRANCH   2   4
HETATM    4  C9  UNL     1      21.867  16.119  30.461  1.00  0.00     0.251 C 
HETATM    5  N2  UNL     1      22.858  15.618  29.576  1.00  0.00    -0.322 N 
ATOM      6  H2  UNL     1      22.659  14.770  29.047  1.00  0.00     0.169 HD
HETATM    7  O3  UNL     1      22.126  17.162  31.103  1.00  0.00    -0.270 OA
BRANCH   5   8
HETATM    8  C8  UNL     1      24.120  16.253  29.400  1.00  0.00     0.075 A 
HETATM    9  C3  UNL     1      24.393  17.327  28.587  1.00  0.00     0.090 A 
HETATM   10  C4  UNL     1      25.736  17.608  28.728  1.00  0.00     0.024 A 
HETATM   11  C5  UNL     1      26.454  18.711  28.014  1.00  0.00     0.069 C 
HETATM   12  N1  UNL     1      26.260  16.728  29.600  1.00  0.00    -0.361 N 
HETATM   13  C6  UNL     1      25.303  15.888  30.030  1.00  0.00     0.033 A 
ATOM     14  H1  UNL     1      27.238  16.703  29.891  1.00  0.00     0.165 HD
HETATM   15  C7  UNL     1      25.487  14.765  31.010  1.00  0.00     0.070 C 
BRANCH   9  16
HETATM   16  C2  UNL     1      23.476  18.069  27.719  1.00  0.00     0.297 C 
HETATM   17  O2  UNL     1      22.571  18.766  28.242  1.00  0.00    -0.259 OA
BRANCH  16  18
HETATM   18  O1  UNL     1      23.552  18.042  26.350  1.00  0.00    -0.322 OA
HETATM   19  C1  UNL     1      23.609  19.185  25.518  1.00  0.00     0.213 C 
ENDBRANCH  16  18
ENDBRANCH   9  16
ENDBRANCH   5   8
ENDBRANCH   2   4
ENDBRANCH   1   2
BRANCH   1  20
HETATM   20  C12 UNL     1      21.650  13.832  32.189  1.00  0.00     0.284 C 
HETATM   21  O5  UNL     1      22.547  14.571  32.620  1.00  0.00    -0.260 OA
BRANCH  20  22
HETATM   22  C13 UNL     1      21.595  12.386  32.118  1.00  0.00     0.095 C 
HETATM   23  C14 UNL     1      21.050  11.507  32.899  1.00  0.00    -0.010 C 
BRANCH  23  24
HETATM   24  C15 UNL     1      21.203  10.071  32.536  1.00  0.00    -0.025 A 
HETATM   25  C16 UNL     1      22.451   9.488  32.384  1.00  0.00     0.015 A 
HETATM   26  C17 UNL     1      22.511   8.161  31.958  1.00  0.00     0.043 A 
HETATM   27  C18 UNL     1      21.365   7.430  31.690  1.00  0.00     0.116 A 
HETATM   28  F1  UNL     1      21.445   6.143  31.279  1.00  0.00    -0.206 F 
HETATM   29  C19 UNL     1      20.139   8.009  31.842  1.00  0.00     0.043 A 
HETATM   30  C20 UNL     1      20.077   9.326  32.263  1.00  0.00     0.015 A 
ENDBRANCH  23  24
BRANCH  23  31
HETATM   31  C21 UNL     1      20.191  11.815  34.018  1.00  0.00    -0.025 A 
HETATM   32  C22 UNL     1      20.377  11.200  35.270  1.00  0.00     0.015 A 
HETATM   33  C23 UNL     1      19.541  11.362  36.337  1.00  0.00     0.043 A 
HETATM   34  C24 UNL     1      18.426  12.168  36.246  1.00  0.00     0.116 A 
HETATM   35  F2  UNL     1      17.603  12.323  37.313  1.00  0.00    -0.206 F 
HETATM   36  C25 UNL     1      18.209  12.785  35.041  1.00  0.00     0.043 A 
HETATM   37  C26 UNL     1      19.063  12.612  33.963  1.00  0.00     0.015 A 
ENDBRANCH  23  31
ENDBRANCH  20  22
ENDBRANCH   1  20
TORSDOF 9
ENDMDL
MODEL 4
REMARK VINA RESULT: -10.089963957      1.681      2.408
REMARK  9 active torsions:
REMARK  status: ('A' for Active; 'I' for Inactive)
REMARK    1  A    between atoms: O1_2  and  C2_3 
REMARK    2  A    between atoms: C2_3  and  C3_5 
REMARK    3  A    between atoms: C8_12  and  N2_13 
REMARK       I    between atoms: N2_13  and  C9_15 
REMARK    4  A    between atoms: C9_15  and  C10_17 
REMARK    5  A    between atoms: C10_17  and  O4_19 
REMARK    6  A    between atoms: O4_19  and  C12_20 
REMARK    7  A    between atoms: C12_20  and  C13_22 
REMARK    8  A    between atoms: C14_23  and  C15_24 
REMARK    9  A    between atoms: C14_23  and  C21_31 
ROOT
HETATM    1  O4  UNL     1      23.266  14.307  31.564  1.00  0.00    -0.303 OA
ENDROOT
BRANCH   1   2
HETATM    2  C10 UNL     1      23.556  15.678  31.624  1.00  0.00     0.220 C 
HETATM    3  C11 UNL     1      24.275  16.065  32.897  1.00  0.00     0.050 C 
BRANCH   2   4
HETATM    4  C9  UNL     1      24.252  16.169  30.409  1.00  0.00     0.251 C 
HETATM    5  N2  UNL     1      23.599  16.031  29.156  1.00  0.00    -0.322 N 
ATOM      6  H2  UNL     1      22.674  15.602  29.130  1.00  0.00     0.169 HD
HETATM    7  O3  UNL     1      25.386  16.699  30.424  1.00  0.00    -0.270 OA
BRANCH   5   8
HETATM    8  C8  UNL     1      24.184  16.468  27.934  1.00  0.00     0.075 A 
HETATM    9  C3  UNL     1      23.954  17.662  27.293  1.00  0.00     0.090 A 
HETATM   10  C4  UNL     1      24.729  17.662  26.152  1.00  0.00     0.024 A 
HETATM   11  C5  UNL     1      24.779  18.782  25.159  1.00  0.00     0.069 C 
HETATM   12  N1  UNL     1      25.407  16.503  26.104  1.00  0.00    -0.361 N 
HETATM   13  C6  UNL     1      25.099  15.750  27.175  1.00  0.00     0.033 A 
ATOM     14  H1  UNL     1      26.058  16.234  25.366  1.00  0.00     0.165 HD
HETATM   15  C7  UNL     1      25.648  14.387  27.486  1.00  0.00     0.070 C 
BRANCH   9  16
HETATM   16  C2  UNL     1      23.069  18.757  27.697  1.00  0.00     0.297 C 
HETATM   17  O2  UNL     1      23.175  19.230  28.856  1.00  0.00    -0.259 OA
BRANCH  16  18
HETATM   18  O1  UNL     1      22.119  19.298  26.870  1.00  0.00    -0.322 OA
HETATM   19  C1  UNL     1      22.101  20.641  26.426  1.00  0.00     0.213 C 
ENDBRANCH  16  18
ENDBRANCH   9  16
ENDBRANCH   5   8
ENDBRANCH   2   4
ENDBRANCH   1   2
BRANCH   1  20
HETATM   20  C12 UNL     1      22.002  13.766  31.893  1.00  0.00     0.284 C 
HETATM   21  O5  UNL     1      21.172  14.638  32.189  1.00  0.00    -0.260 OA
BRANCH  20  22
HETATM   22  C13 UNL     1      21.856  12.325  31.844  1.00  0.00     0.095 C 
HETATM   23  C14 UNL     1      21.238  11.497  32.626  1.00  0.00    -0.010 C 
BRANCH  23  24
HETATM   24  C15 UNL     1      21.307  10.048  32.291  1.00  0.00    -0.025 A 
HETATM   25  C16 UNL     1      20.162   9.288  32.112  1.00  0.00     0.015 A 
HETATM   26  C17 UNL     1      20.308   7.920  31.885  1.00  0.00     0.043 A 
HETATM   27  C18 UNL     1      21.555   7.319  31.837  1.00  0.00     0.116 A 
HETATM   28  F1  UNL     1      21.675   5.989  31.615  1.00  0.00    -0.206 F 
HETATM   29  C19 UNL     1      22.679   8.071  32.013  1.00  0.00     0.043 A 
HETATM   30  C20 UNL     1      22.536   9.430  32.240  1.00  0.00     0.015 A 
ENDBRANCH  23  24
BRANCH  23  31
HETATM   31  C21 UNL     1      20.374  11.880  33.718  1.00  0.00    -0.025 A 
HETATM   32  C22 UNL     1      20.575  11.375  35.016  1.00  0.00     0.015 A 
HETATM   33  C23 UNL     1      19.736  11.608  36.068  1.00  0.00     0.043 A 
HETATM   34  C24 UNL     1      18.605  12.380  35.914  1.00  0.00     0.116 A 
HETATM   35  F2  UNL     1      17.780  12.607  36.967  1.00  0.00    -0.206 F 
HETATM   36  C25 UNL     1      18.374  12.890  34.663  1.00  0.00     0.043 A 
HETATM   37  C26 UNL     1      19.230  12.646  33.600  1.00  0.00     0.015 A 
ENDBRANCH  23  31
ENDBRANCH  20  22
ENDBRANCH   1  20
TORSDOF 9
ENDMDL
MODEL 5
REMARK VINA RESULT: -10.022617035      2.847      3.805
REMARK  9 active torsions:
REMARK  status: ('A' for Active; 'I' for Inactive)
REMARK    1  A    between atoms: O1_2  and  C2_3 
REMARK    2  A    between atoms: C2_3  and  C3_5 
REMARK    3  A    between atoms: C8_12  and  N2_13 
REMARK       I    between atoms: N2_13  and  C9_15 
REMARK    4  A    between atoms: C9_15  and  C10_17 
REMARK    5  A    between atoms: C10_17  and  O4_19 
REMARK    6  A    between atoms: O4_19  and  C12_20 
REMARK    7  A    between atoms: C12_20  and  C13_22 
REMARK    8  A    between atoms: C14_23  and  C15_24 
REMARK    9  A    between atoms: C14_23  and  C21_31 
ROOT
HETATM    1  O4  UNL     1      22.844  14.547  32.616  1.00  0.00    -0.303 OA
ENDROOT
BRANCH   1   2
HETATM    2  C10 UNL     1      23.662  15.264  31.731  1.00  0.00     0.220 C 
HETATM    3  C11 UNL     1      24.469  16.338  32.426  1.00  0.00     0.050 C 
BRANCH   2   4
HETATM    4  C9  UNL     1      24.504  14.381  30.887  1.00  0.00     0.251 C 
HETATM    5  N2  UNL     1      24.037  14.046  29.588  1.00  0.00    -0.322 N 
ATOM      6  H2  UNL     1      23.142  14.422  29.277  1.00  0.00     0.169 HD
HETATM    7  O3  UNL     1      25.606  13.913  31.254  1.00  0.00    -0.270 OA
BRANCH   5   8
HETATM    8  C8  UNL     1      24.770  13.205  28.704  1.00  0.00     0.075 A 
HETATM    9  C3  UNL     1      25.710  13.602  27.783  1.00  0.00     0.090 A 
HETATM   10  C4  UNL     1      26.160  12.461  27.150  1.00  0.00     0.024 A 
HETATM   11  C5  UNL     1      27.196  12.442  26.069  1.00  0.00     0.069 C 
HETATM   12  N1  UNL     1      25.511  11.407  27.673  1.00  0.00    -0.361 N 
HETATM   13  C6  UNL     1      24.656  11.823  28.623  1.00  0.00     0.033 A 
ATOM     14  H1  UNL     1      25.647  10.436  27.392  1.00  0.00     0.165 HD
HETATM   15  C7  UNL     1      23.749  10.950  29.442  1.00  0.00     0.070 C 
BRANCH   9  16
HETATM   16  C2  UNL     1      26.181  14.957  27.487  1.00  0.00     0.297 C 
HETATM   17  O2  UNL     1      27.204  15.388  28.074  1.00  0.00    -0.259 OA
BRANCH  16  18
HETATM   18  O1  UNL     1      25.557  15.790  26.594  1.00  0.00    -0.322 OA
HETATM   19  C1  UNL     1      24.522  16.698  26.919  1.00  0.00     0.213 C 
ENDBRANCH  16  18
ENDBRANCH   9  16
ENDBRANCH   5   8
ENDBRANCH   2   4
ENDBRANCH   1   2
BRANCH   1  20
HETATM   20  C12 UNL     1      21.608  13.975  32.239  1.00  0.00     0.284 C 
HETATM   21  O5  UNL     1      20.726  14.825  32.052  1.00  0.00    -0.260 OA
BRANCH  20  22
HETATM   22  C13 UNL     1      21.542  12.532  32.129  1.00  0.00     0.095 C 
HETATM   23  C14 UNL     1      20.987  11.637  32.885  1.00  0.00    -0.010 C 
BRANCH  23  24
HETATM   24  C15 UNL     1      21.130  10.209  32.485  1.00  0.00    -0.025 A 
HETATM   25  C16 UNL     1      20.028   9.422  32.193  1.00  0.00     0.015 A 
HETATM   26  C17 UNL     1      20.238   8.073  31.911  1.00  0.00     0.043 A 
HETATM   27  C18 UNL     1      21.507   7.517  31.918  1.00  0.00     0.116 A 
HETATM   28  F1  UNL     1      21.690   6.204  31.641  1.00  0.00    -0.206 F 
HETATM   29  C19 UNL     1      22.589   8.296  32.207  1.00  0.00     0.043 A 
HETATM   30  C20 UNL     1      22.382   9.636  32.488  1.00  0.00     0.015 A 
ENDBRANCH  23  24
BRANCH  23  31
HETATM   31  C21 UNL     1      20.124  11.923  34.008  1.00  0.00    -0.025 A 
HETATM   32  C22 UNL     1      20.308  11.283  35.248  1.00  0.00     0.015 A 
HETATM   33  C23 UNL     1      19.468  11.425  36.315  1.00  0.00     0.043 A 
HETATM   34  C24 UNL     1      18.353  12.231  36.237  1.00  0.00     0.116 A 
HETATM   35  F2  UNL     1      17.526  12.365  37.304  1.00  0.00    -0.206 F 
HETATM   36  C25 UNL     1      18.138  12.871  35.043  1.00  0.00     0.043 A 
HETATM   37  C26 UNL     1      18.995  12.720  33.964  1.00  0.00     0.015 A 
ENDBRANCH  23  31
ENDBRANCH  20  22
ENDBRANCH   1  20
TORSDOF 9
ENDMDL
