MODEL 1
REMARK VINA RESULT: -7.900750382      0.000      0.000
REMARK  19 active torsions:
REMARK  status: ('A' for Active; 'I' for Inactive)
REMARK    1  A    between atoms: C2_2  and  C3_3 
REMARK    2  A    between atoms: C3_3  and  C4_4 
REMARK    3  A    between atoms: C4_4  and  C5_5 
REMARK    4  A    between atoms: C5_5  and  C6_6 
REMARK    5  A    between atoms: C6_6  and  C7_7 
REMARK    6  A    between atoms: C7_7  and  N1_8 
REMARK    7  A    between atoms: N1_8  and  C8_10 
REMARK    8  A    between atoms: C9_13  and  N3_14 
REMARK    9  A    between atoms: N3_14  and  C10_16 
REMARK   10  A    between atoms: C10_16  and  C11_17 
REMARK   11  A    between atoms: C14_20  and  C15_21 
REMARK   12  A    between atoms: C15_21  and  C17_24 
REMARK   13  A    between atoms: C17_24  and  O1_25 
REMARK   14  A    between atoms: O1_25  and  C18_26 
REMARK   15  A    between atoms: C18_26  and  C19_27 
REMARK   16  A    between atoms: C19_27  and  O2_28 
REMARK   17  A    between atoms: C22_32  and  C23_33 
REMARK   18  A    between atoms: C23_33  and  C24_34 
REMARK   19  A    between atoms: C24_34  and  C25_35 
ROOT
HETATM    1  C15 UNL     1      17.957   9.899  26.790  1.00  0.00     0.056 C 
HETATM    2  C16 UNL     1      18.791  10.808  27.585  1.00  0.00     0.098 C 
HETATM    3  N4  UNL     1      19.453  11.533  28.196  1.00  0.00    -0.192 NA
ENDROOT
BRANCH   1   4
HETATM    4  C14 UNL     1      18.450   9.489  25.636  1.00  0.00    -0.017 A 
HETATM    5  C13 UNL     1      19.393  10.267  24.961  1.00  0.00     0.013 A 
HETATM    6  C12 UNL     1      19.945   9.899  23.759  1.00  0.00     0.013 A 
HETATM    7  C11 UNL     1      19.582   8.722  23.157  1.00  0.00    -0.021 A 
HETATM    8  C21 UNL     1      18.656   7.921  23.783  1.00  0.00     0.013 A 
HETATM    9  C20 UNL     1      18.106   8.317  25.011  1.00  0.00     0.013 A 
BRANCH   7  10
HETATM   10  C10 UNL     1      20.118   8.384  22.011  1.00  0.00     0.101 C 
BRANCH  10  11
HETATM   11  N3  UNL     1      21.477   8.009  21.837  1.00  0.00    -0.350 N 
ATOM     12  H3  UNL     1      21.807   7.132  22.240  1.00  0.00     0.166 HD
BRANCH  11  13
HETATM   13  C9  UNL     1      22.385   8.824  21.115  1.00  0.00     0.132 A 
HETATM   14  N2  UNL     1      22.384  10.160  21.437  1.00  0.00    -0.176 N 
HETATM   15  C8  UNL     1      23.156  10.992  20.750  1.00  0.00     0.686 A 
ATOM     16  H2  UNL     1      21.796  10.508  22.195  1.00  0.00     0.186 HD
HETATM   17  N7  UNL     1      23.923  10.491  19.749  1.00  0.00    -0.155 N 
HETATM   18  C28 UNL     1      23.948   9.207  19.413  1.00  0.00     0.269 A 
ATOM     19  H7  UNL     1      24.513  11.138  19.225  1.00  0.00     0.187 HD
HETATM   20  C22 UNL     1      23.149   8.293  20.113  1.00  0.00     0.055 A 
HETATM   21  O3  UNL     1      24.658   8.739  18.485  1.00  0.00    -0.267 OA
BRANCH  15  22
HETATM   22  N1  UNL     1      23.215  12.225  20.983  1.00  0.00    -0.205 N 
ATOM     23  H1  UNL     1      22.680  12.837  20.367  1.00  0.00     0.183 HD
BRANCH  22  24
HETATM   24  C7  UNL     1      23.951  12.844  22.013  1.00  0.00     0.079 C 
BRANCH  24  25
HETATM   25  C6  UNL     1      23.081  13.332  23.158  1.00  0.00     0.045 C 
BRANCH  25  26
HETATM   26  C5  UNL     1      23.178  12.339  24.282  1.00  0.00     0.005 C 
BRANCH  26  27
HETATM   27  C4  UNL     1      22.190  12.634  25.374  1.00  0.00     0.000 C 
BRANCH  27  28
HETATM   28  C3  UNL     1      21.325  13.813  24.978  1.00  0.00    -0.000 C 
BRANCH  28  29
HETATM   29  C2  UNL     1      20.894  14.592  26.213  1.00  0.00    -0.005 C 
HETATM   30  C1  UNL     1      22.006  14.556  27.210  1.00  0.00     0.005 C 
ENDBRANCH  28  29
ENDBRANCH  27  28
ENDBRANCH  26  27
ENDBRANCH  25  26
ENDBRANCH  24  25
ENDBRANCH  22  24
ENDBRANCH  15  22
BRANCH  20  31
HETATM   31  C23 UNL     1      23.243   6.853  19.788  1.00  0.00     0.053 C 
BRANCH  31  32
HETATM   32  C24 UNL     1      22.293   6.330  18.785  1.00  0.00     0.046 C 
BRANCH  32  33
HETATM   33  C25 UNL     1      22.786   5.345  17.819  1.00  0.00    -0.024 A 
HETATM   34  C26 UNL     1      23.881   5.479  16.960  1.00  0.00     0.115 A 
HETATM   35  N5  UNL     1      23.948   4.362  16.253  1.00  0.00    -0.312 N 
HETATM   36  N6  UNL     1      23.000   3.520  16.573  1.00  0.00    -0.312 N 
ATOM     37  H5  UNL     1      24.656   4.179  15.541  1.00  0.00     0.186 HD
HETATM   38  C27 UNL     1      22.259   4.079  17.532  1.00  0.00     0.115 A 
ATOM     39  H6  UNL     1      22.853   2.598  16.163  1.00  0.00     0.186 HD
ENDBRANCH  32  33
ENDBRANCH  31  32
ENDBRANCH  20  31
ENDBRANCH  11  13
ENDBRANCH  10  11
ENDBRANCH   7  10
ENDBRANCH   1   4
BRANCH   1  40
HETATM   40  C17 UNL     1      16.688   9.534  27.404  1.00  0.00     0.218 C 
BRANCH  40  41
HETATM   41  O1  UNL     1      16.646   8.724  28.456  1.00  0.00    -0.384 OA
BRANCH  41  42
HETATM   42  C18 UNL     1      17.354   7.624  28.660  1.00  0.00     0.194 C 
BRANCH  42  43
HETATM   43  C19 UNL     1      16.947   6.361  27.962  1.00  0.00     0.190 C 
BRANCH  43  44
HETATM   44  O2  UNL     1      15.558   6.167  28.211  1.00  0.00    -0.399 OA
ATOM     45  H2  UNL     1      15.341   5.284  27.933  1.00  0.00     0.209 HD
ENDBRANCH  43  44
ENDBRANCH  42  43
ENDBRANCH  41  42
ENDBRANCH  40  41
ENDBRANCH   1  40
TORSDOF 19
ENDMDL
MODEL 2
REMARK VINA RESULT: -7.892463727      3.107      4.277
REMARK  19 active torsions:
REMARK  status: ('A' for Active; 'I' for Inactive)
REMARK    1  A    between atoms: C2_2  and  C3_3 
REMARK    2  A    between atoms: C3_3  and  C4_4 
REMARK    3  A    between atoms: C4_4  and  C5_5 
REMARK    4  A    between atoms: C5_5  and  C6_6 
REMARK    5  A    between atoms: C6_6  and  C7_7 
REMARK    6  A    between atoms: C7_7  and  N1_8 
REMARK    7  A    between atoms: N1_8  and  C8_10 
REMARK    8  A    between atoms: C9_13  and  N3_14 
REMARK    9  A    between atoms: N3_14  and  C10_16 
REMARK   10  A    between atoms: C10_16  and  C11_17 
REMARK   11  A    between atoms: C14_20  and  C15_21 
REMARK   12  A    between atoms: C15_21  and  C17_24 
REMARK   13  A    between atoms: C17_24  and  O1_25 
REMARK   14  A    between atoms: O1_25  and  C18_26 
REMARK   15  A    between atoms: C18_26  and  C19_27 
REMARK   16  A    between atoms: C19_27  and  O2_28 
REMARK   17  A    between atoms: C22_32  and  C23_33 
REMARK   18  A    between atoms: C23_33  and  C24_34 
REMARK   19  A    between atoms: C24_34  and  C25_35 
ROOT
HETATM    1  C15 UNL     1      15.678   7.196  21.799  1.00  0.00     0.056 C 
HETATM    2  C16 UNL     1      14.798   7.155  22.974  1.00  0.00     0.098 C 
HETATM    3  N4  UNL     1      14.114   7.137  23.905  1.00  0.00    -0.192 NA
ENDROOT
BRANCH   1   4
HETATM    4  C14 UNL     1      16.946   7.497  22.011  1.00  0.00    -0.017 A 
HETATM    5  C13 UNL     1      17.425   7.631  23.316  1.00  0.00     0.013 A 
HETATM    6  C12 UNL     1      18.731   7.942  23.606  1.00  0.00     0.013 A 
HETATM    7  C11 UNL     1      19.640   8.138  22.599  1.00  0.00    -0.021 A 
HETATM    8  C21 UNL     1      19.216   8.017  21.297  1.00  0.00     0.013 A 
HETATM    9  C20 UNL     1      17.877   7.698  21.024  1.00  0.00     0.013 A 
BRANCH   7  10
HETATM   10  C10 UNL     1      20.882   8.433  22.892  1.00  0.00     0.101 C 
BRANCH  10  11
HETATM   11  N3  UNL     1      22.016   7.923  22.204  1.00  0.00    -0.350 N 
ATOM     12  H3  UNL     1      22.272   6.943  22.324  1.00  0.00     0.166 HD
BRANCH  11  13
HETATM   13  C9  UNL     1      22.798   8.744  21.354  1.00  0.00     0.132 A 
HETATM   14  N2  UNL     1      22.619  10.099  21.492  1.00  0.00    -0.176 N 
HETATM   15  C8  UNL     1      23.266  10.923  20.678  1.00  0.00     0.686 A 
ATOM     16  H2  UNL     1      21.997  10.467  22.211  1.00  0.00     0.186 HD
HETATM   17  N7  UNL     1      24.085  10.396  19.733  1.00  0.00    -0.155 N 
HETATM   18  C28 UNL     1      24.281   9.092  19.574  1.00  0.00     0.269 A 
ATOM     19  H7  UNL     1      24.578  11.036  19.110  1.00  0.00     0.187 HD
HETATM   20  C22 UNL     1      23.619   8.185  20.413  1.00  0.00     0.055 A 
HETATM   21  O3  UNL     1      25.040   8.599  18.699  1.00  0.00    -0.267 OA
BRANCH  15  22
HETATM   22  N1  UNL     1      23.161  12.174  20.739  1.00  0.00    -0.205 N 
ATOM     23  H1  UNL     1      22.733  12.640  19.939  1.00  0.00     0.183 HD
BRANCH  22  24
HETATM   24  C7  UNL     1      23.575  12.993  21.808  1.00  0.00     0.079 C 
BRANCH  24  25
HETATM   25  C6  UNL     1      24.790  12.452  22.540  1.00  0.00     0.045 C 
BRANCH  25  26
HETATM   26  C5  UNL     1      24.440  12.305  23.995  1.00  0.00     0.005 C 
BRANCH  26  27
HETATM   27  C4  UNL     1      23.855  13.567  24.558  1.00  0.00     0.000 C 
BRANCH  27  28
HETATM   28  C3  UNL     1      22.703  13.231  25.484  1.00  0.00    -0.000 C 
BRANCH  28  29
HETATM   29  C2  UNL     1      21.476  14.058  25.125  1.00  0.00    -0.005 C 
HETATM   30  C1  UNL     1      20.888  14.608  26.383  1.00  0.00     0.005 C 
ENDBRANCH  28  29
ENDBRANCH  27  28
ENDBRANCH  26  27
ENDBRANCH  25  26
ENDBRANCH  24  25
ENDBRANCH  22  24
ENDBRANCH  15  22
BRANCH  20  31
HETATM   31  C23 UNL     1      23.903   6.740  20.284  1.00  0.00     0.053 C 
BRANCH  31  32
HETATM   32  C24 UNL     1      22.937   5.934  19.510  1.00  0.00     0.046 C 
BRANCH  32  33
HETATM   33  C25 UNL     1      23.026   5.970  18.048  1.00  0.00    -0.024 A 
HETATM   34  C26 UNL     1      22.120   6.561  17.162  1.00  0.00     0.115 A 
HETATM   35  N5  UNL     1      22.581   6.336  15.941  1.00  0.00    -0.312 N 
HETATM   36  N6  UNL     1      23.698   5.656  15.956  1.00  0.00    -0.312 N 
ATOM     37  H5  UNL     1      22.119   6.656  15.089  1.00  0.00     0.186 HD
HETATM   38  C27 UNL     1      24.012   5.407  17.229  1.00  0.00     0.115 A 
ATOM     39  H6  UNL     1      24.235   5.368  15.138  1.00  0.00     0.186 HD
ENDBRANCH  32  33
ENDBRANCH  31  32
ENDBRANCH  20  31
ENDBRANCH  11  13
ENDBRANCH  10  11
ENDBRANCH   7  10
ENDBRANCH   1   4
BRANCH   1  40
HETATM   40  C17 UNL     1      15.035   6.860  20.537  1.00  0.00     0.218 C 
BRANCH  40  41
HETATM   41  O1  UNL     1      14.790   5.595  20.210  1.00  0.00    -0.384 OA
BRANCH  41  42
HETATM   42  C18 UNL     1      15.241   4.928  19.160  1.00  0.00     0.194 C 
BRANCH  42  43
HETATM   43  C19 UNL     1      16.699   4.583  19.094  1.00  0.00     0.190 C 
BRANCH  43  44
HETATM   44  O2  UNL     1      17.081   4.610  17.722  1.00  0.00    -0.399 OA
ATOM     45  H2  UNL     1      17.899   5.089  17.665  1.00  0.00     0.209 HD
ENDBRANCH  43  44
ENDBRANCH  42  43
ENDBRANCH  41  42
ENDBRANCH  40  41
ENDBRANCH   1  40
TORSDOF 19
ENDMDL
MODEL 3
REMARK VINA RESULT: -7.860559938      4.128      7.484
REMARK  19 active torsions:
REMARK  status: ('A' for Active; 'I' for Inactive)
REMARK    1  A    between atoms: C2_2  and  C3_3 
REMARK    2  A    between atoms: C3_3  and  C4_4 
REMARK    3  A    between atoms: C4_4  and  C5_5 
REMARK    4  A    between atoms: C5_5  and  C6_6 
REMARK    5  A    between atoms: C6_6  and  C7_7 
REMARK    6  A    between atoms: C7_7  and  N1_8 
REMARK    7  A    between atoms: N1_8  and  C8_10 
REMARK    8  A    between atoms: C9_13  and  N3_14 
REMARK    9  A    between atoms: N3_14  and  C10_16 
REMARK   10  A    between atoms: C10_16  and  C11_17 
REMARK   11  A    between atoms: C14_20  and  C15_21 
REMARK   12  A    between atoms: C15_21  and  C17_24 
REMARK   13  A    between atoms: C17_24  and  O1_25 
REMARK   14  A    between atoms: O1_25  and  C18_26 
REMARK   15  A    between atoms: C18_26  and  C19_27 
REMARK   16  A    between atoms: C19_27  and  O2_28 
REMARK   17  A    between atoms: C22_32  and  C23_33 
REMARK   18  A    between atoms: C23_33  and  C24_34 
REMARK   19  A    between atoms: C24_34  and  C25_35 
ROOT
HETATM    1  C15 UNL     1      22.686   3.944  17.712  1.00  0.00     0.056 C 
HETATM    2  C16 UNL     1      23.636   2.825  17.720  1.00  0.00     0.098 C 
HETATM    3  N4  UNL     1      24.391   1.951  17.742  1.00  0.00    -0.192 NA
ENDROOT
BRANCH   1   4
HETATM    4  C14 UNL     1      23.152   5.128  18.065  1.00  0.00    -0.017 A 
HETATM    5  C13 UNL     1      23.839   5.278  19.272  1.00  0.00     0.013 A 
HETATM    6  C12 UNL     1      24.349   6.480  19.698  1.00  0.00     0.013 A 
HETATM    7  C11 UNL     1      24.199   7.610  18.937  1.00  0.00    -0.021 A 
HETATM    8  C21 UNL     1      23.529   7.512  17.740  1.00  0.00     0.013 A 
HETATM    9  C20 UNL     1      23.017   6.274  17.324  1.00  0.00     0.013 A 
BRANCH   7  10
HETATM   10  C10 UNL     1      24.692   8.748  19.357  1.00  0.00     0.101 C 
BRANCH  10  11
HETATM   11  N3  UNL     1      23.925   9.921  19.590  1.00  0.00    -0.350 N 
ATOM     12  H3  UNL     1      23.606  10.474  18.794  1.00  0.00     0.166 HD
BRANCH  11  13
HETATM   13  C9  UNL     1      23.595  10.342  20.902  1.00  0.00     0.132 A 
HETATM   14  N2  UNL     1      24.298  11.419  21.386  1.00  0.00    -0.176 N 
HETATM   15  C8  UNL     1      24.090  11.819  22.634  1.00  0.00     0.686 A 
ATOM     16  H2  UNL     1      24.972  11.904  20.793  1.00  0.00     0.186 HD
HETATM   17  N7  UNL     1      23.186  11.148  23.392  1.00  0.00    -0.155 N 
HETATM   18  C28 UNL     1      22.490  10.105  22.955  1.00  0.00     0.269 A 
ATOM     19  H7  UNL     1      23.034  11.461  24.350  1.00  0.00     0.187 HD
HETATM   20  C22 UNL     1      22.677   9.649  21.642  1.00  0.00     0.055 A 
HETATM   21  O3  UNL     1      21.651   9.480  23.654  1.00  0.00    -0.267 OA
BRANCH  15  22
HETATM   22  N1  UNL     1      24.689  12.795  23.151  1.00  0.00    -0.205 N 
ATOM     23  H1  UNL     1      24.410  13.725  22.839  1.00  0.00     0.183 HD
BRANCH  22  24
HETATM   24  C7  UNL     1      25.708  12.728  24.122  1.00  0.00     0.079 C 
BRANCH  24  25
HETATM   25  C6  UNL     1      25.374  13.488  25.393  1.00  0.00     0.045 C 
BRANCH  25  26
HETATM   26  C5  UNL     1      26.660  13.927  26.035  1.00  0.00     0.005 C 
BRANCH  26  27
HETATM   27  C4  UNL     1      27.713  14.247  25.014  1.00  0.00     0.000 C 
BRANCH  27  28
HETATM   28  C3  UNL     1      29.060  13.743  25.489  1.00  0.00    -0.000 C 
BRANCH  28  29
HETATM   29  C2  UNL     1      28.885  12.505  26.359  1.00  0.00    -0.005 C 
HETATM   30  C1  UNL     1      30.116  12.329  27.188  1.00  0.00     0.005 C 
ENDBRANCH  28  29
ENDBRANCH  27  28
ENDBRANCH  26  27
ENDBRANCH  25  26
ENDBRANCH  24  25
ENDBRANCH  22  24
ENDBRANCH  15  22
BRANCH  20  31
HETATM   31  C23 UNL     1      21.840   8.540  21.136  1.00  0.00     0.053 C 
BRANCH  31  32
HETATM   32  C24 UNL     1      20.383   8.776  21.069  1.00  0.00     0.046 C 
BRANCH  32  33
HETATM   33  C25 UNL     1      19.584   7.904  20.205  1.00  0.00    -0.024 A 
HETATM   34  C26 UNL     1      18.200   7.710  20.250  1.00  0.00     0.115 A 
HETATM   35  N5  UNL     1      17.910   6.826  19.308  1.00  0.00    -0.312 N 
HETATM   36  N6  UNL     1      18.975   6.432  18.660  1.00  0.00    -0.312 N 
ATOM     37  H5  UNL     1      16.966   6.492  19.110  1.00  0.00     0.186 HD
HETATM   38  C27 UNL     1      20.030   7.066  19.175  1.00  0.00     0.115 A 
ATOM     39  H6  UNL     1      18.996   5.758  17.894  1.00  0.00     0.186 HD
ENDBRANCH  32  33
ENDBRANCH  31  32
ENDBRANCH  20  31
ENDBRANCH  11  13
ENDBRANCH  10  11
ENDBRANCH   7  10
ENDBRANCH   1   4
BRANCH   1  40
HETATM   40  C17 UNL     1      21.339   3.604  17.274  1.00  0.00     0.218 C 
BRANCH  40  41
HETATM   41  O1  UNL     1      20.306   3.702  18.104  1.00  0.00    -0.384 OA
BRANCH  41  42
HETATM   42  C18 UNL     1      20.041   2.949  19.159  1.00  0.00     0.194 C 
BRANCH  42  43
HETATM   43  C19 UNL     1      18.709   3.091  19.833  1.00  0.00     0.190 C 
BRANCH  43  44
HETATM   44  O2  UNL     1      18.802   4.193  20.731  1.00  0.00    -0.399 OA
ATOM     45  H2  UNL     1      17.959   4.281  21.161  1.00  0.00     0.209 HD
ENDBRANCH  43  44
ENDBRANCH  42  43
ENDBRANCH  41  42
ENDBRANCH  40  41
ENDBRANCH   1  40
TORSDOF 19
ENDMDL
MODEL 4
REMARK VINA RESULT: -7.842293391      1.914      2.529
REMARK  19 active torsions:
REMARK  status: ('A' for Active; 'I' for Inactive)
REMARK    1  A    between atoms: C2_2  and  C3_3 
REMARK    2  A    between atoms: C3_3  and  C4_4 
REMARK    3  A    between atoms: C4_4  and  C5_5 
REMARK    4  A    between atoms: C5_5  and  C6_6 
REMARK    5  A    between atoms: C6_6  and  C7_7 
REMARK    6  A    between atoms: C7_7  and  N1_8 
REMARK    7  A    between atoms: N1_8  and  C8_10 
REMARK    8  A    between atoms: C9_13  and  N3_14 
REMARK    9  A    between atoms: N3_14  and  C10_16 
REMARK   10  A    between atoms: C10_16  and  C11_17 
REMARK   11  A    between atoms: C14_20  and  C15_21 
REMARK   12  A    between atoms: C15_21  and  C17_24 
REMARK   13  A    between atoms: C17_24  and  O1_25 
REMARK   14  A    between atoms: O1_25  and  C18_26 
REMARK   15  A    between atoms: C18_26  and  C19_27 
REMARK   16  A    between atoms: C19_27  and  O2_28 
REMARK   17  A    between atoms: C22_32  and  C23_33 
REMARK   18  A    between atoms: C23_33  and  C24_34 
REMARK   19  A    between atoms: C24_34  and  C25_35 
ROOT
HETATM    1  C15 UNL     1      15.705   7.214  24.940  1.00  0.00     0.056 C 
HETATM    2  C16 UNL     1      14.337   6.980  24.462  1.00  0.00     0.098 C 
HETATM    3  N4  UNL     1      13.266   6.787  24.072  1.00  0.00    -0.192 NA
ENDROOT
BRANCH   1   4
HETATM    4  C14 UNL     1      16.623   7.470  24.027  1.00  0.00    -0.017 A 
HETATM    5  C13 UNL     1      17.884   7.931  24.411  1.00  0.00     0.013 A 
HETATM    6  C12 UNL     1      18.883   8.215  23.513  1.00  0.00     0.013 A 
HETATM    7  C11 UNL     1      18.677   8.054  22.168  1.00  0.00    -0.021 A 
HETATM    8  C21 UNL     1      17.451   7.602  21.740  1.00  0.00     0.013 A 
HETATM    9  C20 UNL     1      16.445   7.317  22.675  1.00  0.00     0.013 A 
BRANCH   7  10
HETATM   10  C10 UNL     1      19.641   8.328  21.324  1.00  0.00     0.101 C 
BRANCH  10  11
HETATM   11  N3  UNL     1      21.007   7.995  21.525  1.00  0.00    -0.350 N 
ATOM     12  H3  UNL     1      21.242   7.119  21.992  1.00  0.00     0.166 HD
BRANCH  11  13
HETATM   13  C9  UNL     1      22.050   8.851  21.091  1.00  0.00     0.132 A 
HETATM   14  N2  UNL     1      21.953  10.166  21.478  1.00  0.00    -0.176 N 
HETATM   15  C8  UNL     1      22.856  11.036  21.046  1.00  0.00     0.686 A 
ATOM     16  H2  UNL     1      21.195  10.469  22.091  1.00  0.00     0.186 HD
HETATM   17  N7  UNL     1      23.849  10.595  20.232  1.00  0.00    -0.155 N 
HETATM   18  C28 UNL     1      23.972   9.332  19.840  1.00  0.00     0.269 A 
ATOM     19  H7  UNL     1      24.538  11.270  19.904  1.00  0.00     0.187 HD
HETATM   20  C22 UNL     1      23.040   8.379  20.274  1.00  0.00     0.055 A 
HETATM   21  O3  UNL     1      24.891   8.919  19.086  1.00  0.00    -0.267 OA
BRANCH  15  22
HETATM   22  N1  UNL     1      22.841  12.253  21.356  1.00  0.00    -0.205 N 
ATOM     23  H1  UNL     1      22.109  12.826  20.936  1.00  0.00     0.183 HD
BRANCH  22  24
HETATM   24  C7  UNL     1      23.738  12.903  22.227  1.00  0.00     0.079 C 
BRANCH  24  25
HETATM   25  C6  UNL     1      23.360  12.759  23.690  1.00  0.00     0.045 C 
BRANCH  25  26
HETATM   26  C5  UNL     1      22.858  14.087  24.183  1.00  0.00     0.005 C 
BRANCH  26  27
HETATM   27  C4  UNL     1      21.520  13.965  24.852  1.00  0.00     0.000 C 
BRANCH  27  28
HETATM   28  C3  UNL     1      21.541  14.696  26.180  1.00  0.00    -0.000 C 
BRANCH  28  29
HETATM   29  C2  UNL     1      20.677  13.965  27.200  1.00  0.00    -0.005 C 
HETATM   30  C1  UNL     1      20.717  12.503  26.896  1.00  0.00     0.005 C 
ENDBRANCH  28  29
ENDBRANCH  27  28
ENDBRANCH  26  27
ENDBRANCH  25  26
ENDBRANCH  24  25
ENDBRANCH  22  24
ENDBRANCH  15  22
BRANCH  20  31
HETATM   31  C23 UNL     1      23.229   6.960  19.900  1.00  0.00     0.053 C 
BRANCH  31  32
HETATM   32  C24 UNL     1      22.325   6.413  18.869  1.00  0.00     0.046 C 
BRANCH  32  33
HETATM   33  C25 UNL     1      22.881   5.471  17.895  1.00  0.00    -0.024 A 
HETATM   34  C26 UNL     1      23.920   5.709  16.989  1.00  0.00     0.115 A 
HETATM   35  N5  UNL     1      24.078   4.594  16.292  1.00  0.00    -0.312 N 
HETATM   36  N6  UNL     1      23.240   3.661  16.662  1.00  0.00    -0.312 N 
ATOM     37  H5  UNL     1      24.772   4.478  15.553  1.00  0.00     0.186 HD
HETATM   38  C27 UNL     1      22.483   4.152  17.645  1.00  0.00     0.115 A 
ATOM     39  H6  UNL     1      23.177   2.722  16.269  1.00  0.00     0.186 HD
ENDBRANCH  32  33
ENDBRANCH  31  32
ENDBRANCH  20  31
ENDBRANCH  11  13
ENDBRANCH  10  11
ENDBRANCH   7  10
ENDBRANCH   1   4
BRANCH   1  40
HETATM   40  C17 UNL     1      15.867   7.168  26.387  1.00  0.00     0.218 C 
BRANCH  40  41
HETATM   41  O1  UNL     1      15.370   8.126  27.161  1.00  0.00    -0.384 OA
BRANCH  41  42
HETATM   42  C18 UNL     1      15.694   9.409  27.170  1.00  0.00     0.194 C 
BRANCH  42  43
HETATM   43  C19 UNL     1      16.987   9.826  27.805  1.00  0.00     0.190 C 
BRANCH  43  44
HETATM   44  O2  UNL     1      16.798   9.788  29.216  1.00  0.00    -0.399 OA
ATOM     45  H2  UNL     1      17.550   9.343  29.591  1.00  0.00     0.209 HD
ENDBRANCH  43  44
ENDBRANCH  42  43
ENDBRANCH  41  42
ENDBRANCH  40  41
ENDBRANCH   1  40
TORSDOF 19
ENDMDL
MODEL 5
REMARK VINA RESULT: -7.831862984      4.140      8.075
REMARK  19 active torsions:
REMARK  status: ('A' for Active; 'I' for Inactive)
REMARK    1  A    between atoms: C2_2  and  C3_3 
REMARK    2  A    between atoms: C3_3  and  C4_4 
REMARK    3  A    between atoms: C4_4  and  C5_5 
REMARK    4  A    between atoms: C5_5  and  C6_6 
REMARK    5  A    between atoms: C6_6  and  C7_7 
REMARK    6  A    between atoms: C7_7  and  N1_8 
REMARK    7  A    between atoms: N1_8  and  C8_10 
REMARK    8  A    between atoms: C9_13  and  N3_14 
REMARK    9  A    between atoms: N3_14  and  C10_16 
REMARK   10  A    between atoms: C10_16  and  C11_17 
REMARK   11  A    between atoms: C14_20  and  C15_21 
REMARK   12  A    between atoms: C15_21  and  C17_24 
REMARK   13  A    between atoms: C17_24  and  O1_25 
REMARK   14  A    between atoms: O1_25  and  C18_26 
REMARK   15  A    between atoms: C18_26  and  C19_27 
REMARK   16  A    between atoms: C19_27  and  O2_28 
REMARK   17  A    between atoms: C22_32  and  C23_33 
REMARK   18  A    between atoms: C23_33  and  C24_34 
REMARK   19  A    between atoms: C24_34  and  C25_35 
ROOT
HETATM    1  C15 UNL     1      22.898   3.707  17.914  1.00  0.00     0.056 C 
HETATM    2  C16 UNL     1      21.567   3.675  17.296  1.00  0.00     0.098 C 
HETATM    3  N4  UNL     1      20.523   3.665  16.801  1.00  0.00    -0.192 NA
ENDROOT
BRANCH   1   4
HETATM    4  C14 UNL     1      23.354   4.886  18.295  1.00  0.00    -0.017 A 
HETATM    5  C13 UNL     1      23.247   5.986  17.442  1.00  0.00     0.013 A 
HETATM    6  C12 UNL     1      23.699   7.239  17.776  1.00  0.00     0.013 A 
HETATM    7  C11 UNL     1      24.291   7.465  18.992  1.00  0.00    -0.021 A 
HETATM    8  C21 UNL     1      24.419   6.412  19.866  1.00  0.00     0.013 A 
HETATM    9  C20 UNL     1      23.949   5.141  19.504  1.00  0.00     0.013 A 
BRANCH   7  10
HETATM   10  C10 UNL     1      24.716   8.666  19.296  1.00  0.00     0.101 C 
BRANCH  10  11
HETATM   11  N3  UNL     1      23.872   9.785  19.526  1.00  0.00    -0.350 N 
ATOM     12  H3  UNL     1      23.506  10.305  18.729  1.00  0.00     0.166 HD
BRANCH  11  13
HETATM   13  C9  UNL     1      23.528  10.196  20.839  1.00  0.00     0.132 A 
HETATM   14  N2  UNL     1      24.200  11.292  21.324  1.00  0.00    -0.176 N 
HETATM   15  C8  UNL     1      23.979  11.685  22.572  1.00  0.00     0.686 A 
ATOM     16  H2  UNL     1      24.861  11.796  20.733  1.00  0.00     0.186 HD
HETATM   17  N7  UNL     1      23.093  10.988  23.328  1.00  0.00    -0.155 N 
HETATM   18  C28 UNL     1      22.427   9.927  22.889  1.00  0.00     0.269 A 
ATOM     19  H7  UNL     1      22.931  11.297  24.286  1.00  0.00     0.187 HD
HETATM   20  C22 UNL     1      22.629   9.477  21.577  1.00  0.00     0.055 A 
HETATM   21  O3  UNL     1      21.605   9.278  23.587  1.00  0.00    -0.267 OA
BRANCH  15  22
HETATM   22  N1  UNL     1      24.549  12.677  23.091  1.00  0.00    -0.205 N 
ATOM     23  H1  UNL     1      24.293  13.597  22.731  1.00  0.00     0.183 HD
BRANCH  22  24
HETATM   24  C7  UNL     1      25.509  12.642  24.122  1.00  0.00     0.079 C 
BRANCH  24  25
HETATM   25  C6  UNL     1      25.150  13.526  25.302  1.00  0.00     0.045 C 
BRANCH  25  26
HETATM   26  C5  UNL     1      26.423  13.964  25.971  1.00  0.00     0.005 C 
BRANCH  26  27
HETATM   27  C4  UNL     1      27.618  13.234  25.429  1.00  0.00     0.000 C 
BRANCH  27  28
HETATM   28  C3  UNL     1      28.696  14.226  25.045  1.00  0.00    -0.000 C 
BRANCH  28  29
HETATM   29  C2  UNL     1      30.029  13.827  25.666  1.00  0.00    -0.005 C 
HETATM   30  C1  UNL     1      29.783  12.741  26.663  1.00  0.00     0.005 C 
ENDBRANCH  28  29
ENDBRANCH  27  28
ENDBRANCH  26  27
ENDBRANCH  25  26
ENDBRANCH  24  25
ENDBRANCH  22  24
ENDBRANCH  15  22
BRANCH  20  31
HETATM   31  C23 UNL     1      21.824   8.345  21.069  1.00  0.00     0.053 C 
BRANCH  31  32
HETATM   32  C24 UNL     1      20.383   8.590  20.854  1.00  0.00     0.046 C 
BRANCH  32  33
HETATM   33  C25 UNL     1      19.647   7.659  19.996  1.00  0.00    -0.024 A 
HETATM   34  C26 UNL     1      20.179   6.806  19.024  1.00  0.00     0.115 A 
HETATM   35  N5  UNL     1      19.156   6.165  18.480  1.00  0.00    -0.312 N 
HETATM   36  N6  UNL     1      18.015   6.523  19.010  1.00  0.00    -0.312 N 
ATOM     37  H5  UNL     1      19.247   5.473  17.736  1.00  0.00     0.186 HD
HETATM   38  C27 UNL     1      18.265   7.440  19.946  1.00  0.00     0.115 A 
ATOM     39  H6  UNL     1      17.096   6.163  18.753  1.00  0.00     0.186 HD
ENDBRANCH  32  33
ENDBRANCH  31  32
ENDBRANCH  20  31
ENDBRANCH  11  13
ENDBRANCH  10  11
ENDBRANCH   7  10
ENDBRANCH   1   4
BRANCH   1  40
HETATM   40  C17 UNL     1      23.539   2.407  18.061  1.00  0.00     0.218 C 
BRANCH  40  41
HETATM   41  O1  UNL     1      23.007   1.318  17.518  1.00  0.00    -0.384 OA
BRANCH  41  42
HETATM   42  C18 UNL     1      22.190   0.445  18.088  1.00  0.00     0.194 C 
BRANCH  42  43
HETATM   43  C19 UNL     1      21.555  -0.613  17.237  1.00  0.00     0.190 C 
BRANCH  43  44
HETATM   44  O2  UNL     1      22.591  -1.489  16.802  1.00  0.00    -0.399 OA
ATOM     45  H2  UNL     1      22.201  -2.345  16.670  1.00  0.00     0.209 HD
ENDBRANCH  43  44
ENDBRANCH  42  43
ENDBRANCH  41  42
ENDBRANCH  40  41
ENDBRANCH   1  40
TORSDOF 19
ENDMDL
