MODEL 1
REMARK VINA RESULT: -7.925115469      0.000      0.000
REMARK  18 active torsions:
REMARK  status: ('A' for Active; 'I' for Inactive)
REMARK    1  A    between atoms: C2_2  and  C3_3 
REMARK    2  A    between atoms: C3_3  and  C4_4 
REMARK    3  A    between atoms: C4_4  and  C5_5 
REMARK    4  A    between atoms: C11_15  and  C12_16 
REMARK    5  A    between atoms: C12_16  and  C13_17 
REMARK    6  A    between atoms: C13_17  and  S1_18 
REMARK    7  A    between atoms: C16_24  and  C17_25 
REMARK    8  A    between atoms: C17_25  and  C18_26 
REMARK    9  A    between atoms: C18_26  and  C19_27 
REMARK   10  A    between atoms: C19_27  and  C20_28 
REMARK   11  A    between atoms: C20_28  and  C21_29 
REMARK   12  A    between atoms: C21_29  and  C22_30 
REMARK   13  A    between atoms: C22_30  and  O3_31 
REMARK   14  A    between atoms: C22_30  and  C23_33 
REMARK   15  A    between atoms: C23_33  and  C24_34 
REMARK   16  A    between atoms: C23_33  and  C28_38 
REMARK   17  A    between atoms: C24_34  and  C25_35 
REMARK   18  A    between atoms: C25_35  and  C26_36 
ROOT
HETATM    1  C5  UNL     1      20.684  13.612  27.109  1.00  0.00    -0.054 C 
HETATM    2  C6  UNL     1      20.495  13.931  25.681  1.00  0.00     0.046 C 
HETATM    3  C7  UNL     1      21.894  13.711  27.624  1.00  0.00     0.053 C 
HETATM    4  C8  UNL     1      22.099  13.393  29.034  1.00  0.00     0.085 C 
HETATM    5  C9  UNL     1      23.503  13.438  29.505  1.00  0.00     0.137 C 
HETATM    6  N1  UNL     1      24.471  13.987  28.591  1.00  0.00    -0.298 N 
HETATM    7  C10 UNL     1      25.550  14.752  29.105  1.00  0.00     0.321 C 
HETATM    8  O1  UNL     1      25.268  15.540  30.076  1.00  0.00    -0.247 OA
HETATM    9  N2  UNL     1      26.873  14.723  28.653  1.00  0.00    -0.330 N 
ATOM     10  H2  UNL     1      27.347  15.617  28.523  1.00  0.00     0.165 HD
HETATM   11  C11 UNL     1      27.632  13.499  28.350  1.00  0.00     0.179 C 
HETATM   12  C15 UNL     1      27.978  13.576  26.928  1.00  0.00     0.242 C 
HETATM   13  O2  UNL     1      28.496  14.700  26.577  1.00  0.00    -0.271 OA
HETATM   14  N3  UNL     1      27.825  12.617  25.928  1.00  0.00    -0.338 N 
ATOM     15  H3  UNL     1      28.675  12.383  25.414  1.00  0.00     0.164 HD
HETATM   16  C16 UNL     1      26.642  11.908  25.515  1.00  0.00     0.186 C 
HETATM   17  N4  UNL     1      25.690  11.634  26.543  1.00  0.00    -0.336 N 
ATOM     18  H4  UNL     1      25.917  10.840  27.139  1.00  0.00     0.164 HD
HETATM   19  C29 UNL     1      24.492  12.286  26.858  1.00  0.00     0.269 C 
HETATM   20  O6  UNL     1      23.420  11.583  26.900  1.00  0.00    -0.269 OA
HETATM   21  C30 UNL     1      24.308  13.729  27.161  1.00  0.00     0.326 C 
HETATM   22  O7  UNL     1      22.983  14.114  26.850  1.00  0.00    -0.321 OA
ENDROOT
BRANCH  16  23
HETATM   23  C17 UNL     1      26.022  12.550  24.276  1.00  0.00     0.047 C 
BRANCH  23  24
HETATM   24  C18 UNL     1      24.804  11.809  23.779  1.00  0.00     0.004 C 
BRANCH  24  25
HETATM   25  C19 UNL     1      23.648  12.689  23.490  1.00  0.00     0.000 C 
BRANCH  25  26
HETATM   26  C20 UNL     1      23.148  12.569  22.041  1.00  0.00     0.002 C 
BRANCH  26  27
HETATM   27  C21 UNL     1      23.936  11.557  21.295  1.00  0.00     0.032 C 
BRANCH  27  28
HETATM   28  C22 UNL     1      23.241  10.466  20.592  1.00  0.00     0.132 C 
BRANCH  28  29
HETATM   29  O3  UNL     1      23.901  10.299  19.350  1.00  0.00    -0.395 OA
ATOM     30  H3  UNL     1      23.432  10.833  18.719  1.00  0.00     0.210 HD
ENDBRANCH  28  29
BRANCH  28  31
HETATM   31  C23 UNL     1      23.169   9.130  21.245  1.00  0.00     0.115 C 
BRANCH  31  32
HETATM   32  C24 UNL     1      23.039   8.038  20.141  1.00  0.00     0.018 C 
BRANCH  32  33
HETATM   33  C25 UNL     1      24.045   6.979  20.463  1.00  0.00     0.001 C 
BRANCH  33  34
HETATM   34  C26 UNL     1      25.335   7.167  19.681  1.00  0.00    -0.005 C 
HETATM   35  C27 UNL     1      24.975   7.098  18.203  1.00  0.00     0.005 C 
ENDBRANCH  33  34
ENDBRANCH  32  33
ENDBRANCH  31  32
BRANCH  31  36
HETATM   36  C28 UNL     1      21.849   9.008  21.960  1.00  0.00     0.179 C 
HETATM   37  O4  UNL     1      20.842   9.629  21.550  1.00  0.00    -0.648 OA
HETATM   38  O5  UNL     1      21.726   8.213  23.068  1.00  0.00    -0.648 OA
ENDBRANCH  31  36
ENDBRANCH  28  31
ENDBRANCH  27  28
ENDBRANCH  26  27
ENDBRANCH  25  26
ENDBRANCH  24  25
ENDBRANCH  23  24
ENDBRANCH  16  23
BRANCH  11  39
HETATM   39  C12 UNL     1      28.827  13.435  29.280  1.00  0.00     0.045 C 
BRANCH  39  40
HETATM   40  C13 UNL     1      29.015  14.637  30.138  1.00  0.00     0.076 C 
BRANCH  40  41
HETATM   41  S1  UNL     1      30.494  15.506  29.474  1.00  0.00    -0.173 SA
HETATM   42  C14 UNL     1      31.494  14.395  28.471  1.00  0.00     0.089 C 
ENDBRANCH  40  41
ENDBRANCH  39  40
ENDBRANCH  11  39
BRANCH   1  43
HETATM   43  C4  UNL     1      19.547  13.188  27.935  1.00  0.00     0.036 C 
BRANCH  43  44
HETATM   44  C3  UNL     1      19.318  11.685  27.898  1.00  0.00     0.004 C 
BRANCH  44  45
HETATM   45  C2  UNL     1      18.020  11.410  27.168  1.00  0.00    -0.004 C 
HETATM   46  C1  UNL     1      18.253  10.911  25.767  1.00  0.00     0.005 C 
ENDBRANCH  44  45
ENDBRANCH  43  44
ENDBRANCH   1  43
TORSDOF 18
ENDMDL
MODEL 2
REMARK VINA RESULT: -7.924853809      1.290      1.498
REMARK  18 active torsions:
REMARK  status: ('A' for Active; 'I' for Inactive)
REMARK    1  A    between atoms: C2_2  and  C3_3 
REMARK    2  A    between atoms: C3_3  and  C4_4 
REMARK    3  A    between atoms: C4_4  and  C5_5 
REMARK    4  A    between atoms: C11_15  and  C12_16 
REMARK    5  A    between atoms: C12_16  and  C13_17 
REMARK    6  A    between atoms: C13_17  and  S1_18 
REMARK    7  A    between atoms: C16_24  and  C17_25 
REMARK    8  A    between atoms: C17_25  and  C18_26 
REMARK    9  A    between atoms: C18_26  and  C19_27 
REMARK   10  A    between atoms: C19_27  and  C20_28 
REMARK   11  A    between atoms: C20_28  and  C21_29 
REMARK   12  A    between atoms: C21_29  and  C22_30 
REMARK   13  A    between atoms: C22_30  and  O3_31 
REMARK   14  A    between atoms: C22_30  and  C23_33 
REMARK   15  A    between atoms: C23_33  and  C24_34 
REMARK   16  A    between atoms: C23_33  and  C28_38 
REMARK   17  A    between atoms: C24_34  and  C25_35 
REMARK   18  A    between atoms: C25_35  and  C26_36 
ROOT
HETATM    1  C5  UNL     1      20.814  13.696  27.033  1.00  0.00    -0.054 C 
HETATM    2  C6  UNL     1      20.752  14.308  25.691  1.00  0.00     0.046 C 
HETATM    3  C7  UNL     1      21.987  13.589  27.625  1.00  0.00     0.053 C 
HETATM    4  C8  UNL     1      22.067  12.981  28.950  1.00  0.00     0.085 C 
HETATM    5  C9  UNL     1      23.433  12.815  29.498  1.00  0.00     0.137 C 
HETATM    6  N1  UNL     1      24.501  13.453  28.772  1.00  0.00    -0.298 N 
HETATM    7  C10 UNL     1      25.592  14.007  29.492  1.00  0.00     0.321 C 
HETATM    8  O1  UNL     1      25.295  14.607  30.586  1.00  0.00    -0.247 OA
HETATM    9  N2  UNL     1      26.938  13.959  29.119  1.00  0.00    -0.330 N 
ATOM     10  H2  UNL     1      27.482  14.818  29.202  1.00  0.00     0.165 HD
HETATM   11  C11 UNL     1      27.630  12.761  28.615  1.00  0.00     0.179 C 
HETATM   12  C15 UNL     1      28.082  13.091  27.262  1.00  0.00     0.242 C 
HETATM   13  O2  UNL     1      28.702  14.216  27.177  1.00  0.00    -0.271 OA
HETATM   14  N3  UNL     1      27.935  12.366  26.080  1.00  0.00    -0.338 N 
ATOM     15  H3  UNL     1      28.802  12.170  25.578  1.00  0.00     0.164 HD
HETATM   16  C16 UNL     1      26.738  11.855  25.464  1.00  0.00     0.186 C 
HETATM   17  N4  UNL     1      25.697  11.462  26.359  1.00  0.00    -0.336 N 
ATOM     18  H4  UNL     1      25.825  10.548  26.792  1.00  0.00     0.164 HD
HETATM   19  C29 UNL     1      24.529  12.135  26.732  1.00  0.00     0.269 C 
HETATM   20  O6  UNL     1      23.409  11.529  26.569  1.00  0.00    -0.269 OA
HETATM   21  C30 UNL     1      24.424  13.499  27.313  1.00  0.00     0.326 C 
HETATM   22  O7  UNL     1      23.156  14.047  27.013  1.00  0.00    -0.321 OA
ENDROOT
BRANCH  16  23
HETATM   23  C17 UNL     1      26.255  12.781  24.349  1.00  0.00     0.047 C 
BRANCH  23  24
HETATM   24  C18 UNL     1      25.457  12.058  23.291  1.00  0.00     0.004 C 
BRANCH  24  25
HETATM   25  C19 UNL     1      24.063  12.540  23.163  1.00  0.00     0.000 C 
BRANCH  25  26
HETATM   26  C20 UNL     1      23.556  12.539  21.712  1.00  0.00     0.002 C 
BRANCH  26  27
HETATM   27  C21 UNL     1      22.842  11.275  21.406  1.00  0.00     0.032 C 
BRANCH  27  28
HETATM   28  C22 UNL     1      22.354  10.429  22.507  1.00  0.00     0.132 C 
BRANCH  28  29
HETATM   29  O3  UNL     1      21.085  10.938  22.878  1.00  0.00    -0.395 OA
ATOM     30  H3  UNL     1      20.848  10.510  23.693  1.00  0.00     0.210 HD
ENDBRANCH  28  29
BRANCH  28  31
HETATM   31  C23 UNL     1      22.199   8.968  22.267  1.00  0.00     0.115 C 
BRANCH  31  32
HETATM   32  C24 UNL     1      22.736   8.632  20.843  1.00  0.00     0.018 C 
BRANCH  32  33
HETATM   33  C25 UNL     1      23.429   7.312  20.945  1.00  0.00     0.001 C 
BRANCH  33  34
HETATM   34  C26 UNL     1      24.658   7.247  20.052  1.00  0.00    -0.005 C 
HETATM   35  C27 UNL     1      24.698   8.543  19.253  1.00  0.00     0.005 C 
ENDBRANCH  33  34
ENDBRANCH  32  33
ENDBRANCH  31  32
BRANCH  31  36
HETATM   36  C28 UNL     1      20.733   8.651  22.129  1.00  0.00     0.179 C 
HETATM   37  O4  UNL     1      20.086   8.187  23.096  1.00  0.00    -0.648 OA
HETATM   38  O5  UNL     1      20.081   8.867  20.945  1.00  0.00    -0.648 OA
ENDBRANCH  31  36
ENDBRANCH  28  31
ENDBRANCH  27  28
ENDBRANCH  26  27
ENDBRANCH  25  26
ENDBRANCH  24  25
ENDBRANCH  23  24
ENDBRANCH  16  23
BRANCH  11  39
HETATM   39  C12 UNL     1      28.746  12.414  29.580  1.00  0.00     0.045 C 
BRANCH  39  40
HETATM   40  C13 UNL     1      29.451  11.136  29.286  1.00  0.00     0.076 C 
BRANCH  40  41
HETATM   41  S1  UNL     1      31.241  11.550  29.207  1.00  0.00    -0.173 SA
HETATM   42  C14 UNL     1      31.514  13.285  29.599  1.00  0.00     0.089 C 
ENDBRANCH  40  41
ENDBRANCH  39  40
ENDBRANCH  11  39
BRANCH   1  43
HETATM   43  C4  UNL     1      19.594  13.212  27.690  1.00  0.00     0.036 C 
BRANCH  43  44
HETATM   44  C3  UNL     1      19.066  11.923  27.079  1.00  0.00     0.004 C 
BRANCH  44  45
HETATM   45  C2  UNL     1      17.968  11.380  27.967  1.00  0.00    -0.004 C 
HETATM   46  C1  UNL     1      16.753  10.967  27.179  1.00  0.00     0.005 C 
ENDBRANCH  44  45
ENDBRANCH  43  44
ENDBRANCH   1  43
TORSDOF 18
ENDMDL
MODEL 3
REMARK VINA RESULT: -7.843967314      6.647     10.812
REMARK  18 active torsions:
REMARK  status: ('A' for Active; 'I' for Inactive)
REMARK    1  A    between atoms: C2_2  and  C3_3 
REMARK    2  A    between atoms: C3_3  and  C4_4 
REMARK    3  A    between atoms: C4_4  and  C5_5 
REMARK    4  A    between atoms: C11_15  and  C12_16 
REMARK    5  A    between atoms: C12_16  and  C13_17 
REMARK    6  A    between atoms: C13_17  and  S1_18 
REMARK    7  A    between atoms: C16_24  and  C17_25 
REMARK    8  A    between atoms: C17_25  and  C18_26 
REMARK    9  A    between atoms: C18_26  and  C19_27 
REMARK   10  A    between atoms: C19_27  and  C20_28 
REMARK   11  A    between atoms: C20_28  and  C21_29 
REMARK   12  A    between atoms: C21_29  and  C22_30 
REMARK   13  A    between atoms: C22_30  and  O3_31 
REMARK   14  A    between atoms: C22_30  and  C23_33 
REMARK   15  A    between atoms: C23_33  and  C24_34 
REMARK   16  A    between atoms: C23_33  and  C28_38 
REMARK   17  A    between atoms: C24_34  and  C25_35 
REMARK   18  A    between atoms: C25_35  and  C26_36 
ROOT
HETATM    1  C5  UNL     1      21.838   9.436  22.648  1.00  0.00    -0.054 C 
HETATM    2  C6  UNL     1      22.718   8.354  22.164  1.00  0.00     0.046 C 
HETATM    3  C7  UNL     1      20.601   9.136  22.994  1.00  0.00     0.053 C 
HETATM    4  C8  UNL     1      19.715  10.195  23.469  1.00  0.00     0.085 C 
HETATM    5  C9  UNL     1      18.318   9.788  23.744  1.00  0.00     0.137 C 
HETATM    6  N1  UNL     1      18.042   8.374  23.717  1.00  0.00    -0.298 N 
HETATM    7  C10 UNL     1      17.095   7.837  24.628  1.00  0.00     0.321 C 
HETATM    8  O1  UNL     1      17.117   8.325  25.813  1.00  0.00    -0.247 OA
HETATM    9  N2  UNL     1      16.156   6.838  24.352  1.00  0.00    -0.330 N 
ATOM     10  H2  UNL     1      16.047   6.091  25.036  1.00  0.00     0.165 HD
HETATM   11  C11 UNL     1      15.314   6.786  23.146  1.00  0.00     0.179 C 
HETATM   12  C15 UNL     1      15.669   5.544  22.455  1.00  0.00     0.242 C 
HETATM   13  O2  UNL     1      15.682   4.507  23.218  1.00  0.00    -0.271 OA
HETATM   14  N3  UNL     1      15.986   5.339  21.113  1.00  0.00    -0.338 N 
ATOM     15  H3  UNL     1      15.424   4.634  20.635  1.00  0.00     0.164 HD
HETATM   16  C16 UNL     1      16.992   5.977  20.304  1.00  0.00     0.186 C 
HETATM   17  N4  UNL     1      17.278   7.338  20.625  1.00  0.00    -0.336 N 
ATOM     18  H4  UNL     1      16.606   8.015  20.265  1.00  0.00     0.164 HD
HETATM   19  C29 UNL     1      18.337   7.888  21.356  1.00  0.00     0.269 C 
HETATM   20  O6  UNL     1      19.048   8.796  20.792  1.00  0.00    -0.269 OA
HETATM   21  C30 UNL     1      18.746   7.543  22.742  1.00  0.00     0.326 C 
HETATM   22  O7  UNL     1      20.120   7.828  22.916  1.00  0.00    -0.321 OA
ENDROOT
BRANCH  16  23
HETATM   23  C17 UNL     1      18.244   5.109  20.198  1.00  0.00     0.047 C 
BRANCH  23  24
HETATM   24  C18 UNL     1      19.076   5.425  18.978  1.00  0.00     0.004 C 
BRANCH  24  25
HETATM   25  C19 UNL     1      18.726   4.611  17.791  1.00  0.00     0.000 C 
BRANCH  25  26
HETATM   26  C20 UNL     1      19.799   4.659  16.691  1.00  0.00     0.002 C 
BRANCH  26  27
HETATM   27  C21 UNL     1      20.304   6.043  16.510  1.00  0.00     0.032 C 
BRANCH  27  28
HETATM   28  C22 UNL     1      21.751   6.279  16.377  1.00  0.00     0.132 C 
BRANCH  28  29
HETATM   29  O3  UNL     1      21.927   7.682  16.301  1.00  0.00    -0.395 OA
ATOM     30  H3  UNL     1      22.813   7.829  15.989  1.00  0.00     0.210 HD
ENDBRANCH  28  29
BRANCH  28  31
HETATM   31  C23 UNL     1      22.656   5.771  17.444  1.00  0.00     0.115 C 
BRANCH  31  32
HETATM   32  C24 UNL     1      23.264   6.985  18.208  1.00  0.00     0.018 C 
BRANCH  32  33
HETATM   33  C25 UNL     1      24.109   6.423  19.306  1.00  0.00     0.001 C 
BRANCH  33  34
HETATM   34  C26 UNL     1      25.273   7.340  19.650  1.00  0.00    -0.005 C 
HETATM   35  C27 UNL     1      24.838   8.759  19.310  1.00  0.00     0.005 C 
ENDBRANCH  33  34
ENDBRANCH  32  33
ENDBRANCH  31  32
BRANCH  31  36
HETATM   36  C28 UNL     1      23.876   5.167  16.800  1.00  0.00     0.179 C 
HETATM   37  O4  UNL     1      24.257   4.014  17.108  1.00  0.00    -0.648 OA
HETATM   38  O5  UNL     1      24.588   5.866  15.862  1.00  0.00    -0.648 OA
ENDBRANCH  31  36
ENDBRANCH  28  31
ENDBRANCH  27  28
ENDBRANCH  26  27
ENDBRANCH  25  26
ENDBRANCH  24  25
ENDBRANCH  23  24
ENDBRANCH  16  23
BRANCH  11  39
HETATM   39  C12 UNL     1      13.862   6.870  23.574  1.00  0.00     0.045 C 
BRANCH  39  40
HETATM   40  C13 UNL     1      13.648   6.939  25.045  1.00  0.00     0.076 C 
BRANCH  40  41
HETATM   41  S1  UNL     1      12.467   5.589  25.449  1.00  0.00    -0.173 SA
HETATM   42  C14 UNL     1      10.917   6.258  26.073  1.00  0.00     0.089 C 
ENDBRANCH  40  41
ENDBRANCH  39  40
ENDBRANCH  11  39
BRANCH   1  43
HETATM   43  C4  UNL     1      22.330  10.815  22.737  1.00  0.00     0.036 C 
BRANCH  43  44
HETATM   44  C3  UNL     1      23.152  11.229  21.526  1.00  0.00     0.004 C 
BRANCH  44  45
HETATM   45  C2  UNL     1      24.266  12.144  21.984  1.00  0.00    -0.004 C 
HETATM   46  C1  UNL     1      24.422  12.142  23.481  1.00  0.00     0.005 C 
ENDBRANCH  44  45
ENDBRANCH  43  44
ENDBRANCH   1  43
TORSDOF 18
ENDMDL
MODEL 4
REMARK VINA RESULT: -7.821925393      7.851     12.322
REMARK  18 active torsions:
REMARK  status: ('A' for Active; 'I' for Inactive)
REMARK    1  A    between atoms: C2_2  and  C3_3 
REMARK    2  A    between atoms: C3_3  and  C4_4 
REMARK    3  A    between atoms: C4_4  and  C5_5 
REMARK    4  A    between atoms: C11_15  and  C12_16 
REMARK    5  A    between atoms: C12_16  and  C13_17 
REMARK    6  A    between atoms: C13_17  and  S1_18 
REMARK    7  A    between atoms: C16_24  and  C17_25 
REMARK    8  A    between atoms: C17_25  and  C18_26 
REMARK    9  A    between atoms: C18_26  and  C19_27 
REMARK   10  A    between atoms: C19_27  and  C20_28 
REMARK   11  A    between atoms: C20_28  and  C21_29 
REMARK   12  A    between atoms: C21_29  and  C22_30 
REMARK   13  A    between atoms: C22_30  and  O3_31 
REMARK   14  A    between atoms: C22_30  and  C23_33 
REMARK   15  A    between atoms: C23_33  and  C24_34 
REMARK   16  A    between atoms: C23_33  and  C28_38 
REMARK   17  A    between atoms: C24_34  and  C25_35 
REMARK   18  A    between atoms: C25_35  and  C26_36 
ROOT
HETATM    1  C5  UNL     1      18.783   8.401  22.617  1.00  0.00    -0.054 C 
HETATM    2  C6  UNL     1      20.217   8.323  22.275  1.00  0.00     0.046 C 
HETATM    3  C7  UNL     1      18.011   7.368  22.343  1.00  0.00     0.053 C 
HETATM    4  C8  UNL     1      16.590   7.431  22.669  1.00  0.00     0.085 C 
HETATM    5  C9  UNL     1      15.781   6.267  22.240  1.00  0.00     0.137 C 
HETATM    6  N1  UNL     1      16.506   5.125  21.745  1.00  0.00    -0.298 N 
HETATM    7  C10 UNL     1      16.018   3.822  22.025  1.00  0.00     0.321 C 
HETATM    8  O1  UNL     1      15.533   3.643  23.198  1.00  0.00    -0.247 OA
HETATM    9  N2  UNL     1      16.019   2.733  21.148  1.00  0.00    -0.330 N 
ATOM     10  H2  UNL     1      16.324   1.832  21.515  1.00  0.00     0.165 HD
HETATM   11  C11 UNL     1      15.614   2.791  19.733  1.00  0.00     0.179 C 
HETATM   12  C15 UNL     1      16.796   2.411  18.956  1.00  0.00     0.242 C 
HETATM   13  O2  UNL     1      17.368   1.334  19.368  1.00  0.00    -0.271 OA
HETATM   14  N3  UNL     1      17.370   3.044  17.854  1.00  0.00    -0.338 N 
ATOM     15  H3  UNL     1      17.489   2.457  17.027  1.00  0.00     0.164 HD
HETATM   16  C16 UNL     1      17.820   4.404  17.714  1.00  0.00     0.186 C 
HETATM   17  N4  UNL     1      17.091   5.381  18.458  1.00  0.00    -0.336 N 
ATOM     18  H4  UNL     1      16.206   5.665  18.041  1.00  0.00     0.164 HD
HETATM   19  C29 UNL     1      17.403   6.008  19.669  1.00  0.00     0.269 C 
HETATM   20  O6  UNL     1      17.421   7.291  19.692  1.00  0.00    -0.269 OA
HETATM   21  C30 UNL     1      17.721   5.353  20.964  1.00  0.00     0.326 C 
HETATM   22  O7  UNL     1      18.524   6.214  21.747  1.00  0.00    -0.321 OA
ENDROOT
BRANCH  16  23
HETATM   23  C17 UNL     1      19.332   4.505  17.909  1.00  0.00     0.047 C 
BRANCH  23  24
HETATM   24  C18 UNL     1      20.000   5.374  16.870  1.00  0.00     0.004 C 
BRANCH  24  25
HETATM   25  C19 UNL     1      20.485   6.669  17.399  1.00  0.00     0.000 C 
BRANCH  25  26
HETATM   26  C20 UNL     1      21.013   6.570  18.840  1.00  0.00     0.002 C 
BRANCH  26  27
HETATM   27  C21 UNL     1      22.451   6.203  18.849  1.00  0.00     0.032 C 
BRANCH  27  28
HETATM   28  C22 UNL     1      23.358   6.833  19.822  1.00  0.00     0.132 C 
BRANCH  28  29
HETATM   29  O3  UNL     1      23.771   5.811  20.711  1.00  0.00    -0.395 OA
ATOM     30  H3  UNL     1      24.348   6.220  21.346  1.00  0.00     0.210 HD
ENDBRANCH  28  29
BRANCH  28  31
HETATM   31  C23 UNL     1      24.583   7.511  19.317  1.00  0.00     0.115 C 
BRANCH  31  32
HETATM   32  C24 UNL     1      24.538   9.010  19.740  1.00  0.00     0.018 C 
BRANCH  32  33
HETATM   33  C25 UNL     1      23.426   9.144  20.731  1.00  0.00     0.001 C 
BRANCH  33  34
HETATM   34  C26 UNL     1      23.193  10.594  21.128  1.00  0.00    -0.005 C 
HETATM   35  C27 UNL     1      23.110  10.632  22.648  1.00  0.00     0.005 C 
ENDBRANCH  33  34
ENDBRANCH  32  33
ENDBRANCH  31  32
BRANCH  31  36
HETATM   36  C28 UNL     1      24.503   7.609  17.817  1.00  0.00     0.179 C 
HETATM   37  O4  UNL     1      24.915   6.674  17.093  1.00  0.00    -0.648 OA
HETATM   38  O5  UNL     1      23.973   8.721  17.218  1.00  0.00    -0.648 OA
ENDBRANCH  31  36
ENDBRANCH  28  31
ENDBRANCH  27  28
ENDBRANCH  26  27
ENDBRANCH  25  26
ENDBRANCH  24  25
ENDBRANCH  23  24
ENDBRANCH  16  23
BRANCH  11  39
HETATM   39  C12 UNL     1      14.420   1.878  19.541  1.00  0.00     0.045 C 
BRANCH  39  40
HETATM   40  C13 UNL     1      13.108   2.576  19.454  1.00  0.00     0.076 C 
BRANCH  40  41
HETATM   41  S1  UNL     1      13.494   4.336  19.087  1.00  0.00    -0.173 SA
HETATM   42  C14 UNL     1      13.403   4.656  17.318  1.00  0.00     0.089 C 
ENDBRANCH  40  41
ENDBRANCH  39  40
ENDBRANCH  11  39
BRANCH   1  43
HETATM   43  C4  UNL     1      18.231   9.607  23.245  1.00  0.00     0.036 C 
BRANCH  43  44
HETATM   44  C3  UNL     1      18.703   9.796  24.678  1.00  0.00     0.004 C 
BRANCH  44  45
HETATM   45  C2  UNL     1      18.767  11.278  24.977  1.00  0.00    -0.004 C 
HETATM   46  C1  UNL     1      19.856  11.967  24.199  1.00  0.00     0.005 C 
ENDBRANCH  44  45
ENDBRANCH  43  44
ENDBRANCH   1  43
TORSDOF 18
ENDMDL
MODEL 5
REMARK VINA RESULT: -7.783296746      4.017      6.967
REMARK  18 active torsions:
REMARK  status: ('A' for Active; 'I' for Inactive)
REMARK    1  A    between atoms: C2_2  and  C3_3 
REMARK    2  A    between atoms: C3_3  and  C4_4 
REMARK    3  A    between atoms: C4_4  and  C5_5 
REMARK    4  A    between atoms: C11_15  and  C12_16 
REMARK    5  A    between atoms: C12_16  and  C13_17 
REMARK    6  A    between atoms: C13_17  and  S1_18 
REMARK    7  A    between atoms: C16_24  and  C17_25 
REMARK    8  A    between atoms: C17_25  and  C18_26 
REMARK    9  A    between atoms: C18_26  and  C19_27 
REMARK   10  A    between atoms: C19_27  and  C20_28 
REMARK   11  A    between atoms: C20_28  and  C21_29 
REMARK   12  A    between atoms: C21_29  and  C22_30 
REMARK   13  A    between atoms: C22_30  and  O3_31 
REMARK   14  A    between atoms: C22_30  and  C23_33 
REMARK   15  A    between atoms: C23_33  and  C24_34 
REMARK   16  A    between atoms: C23_33  and  C28_38 
REMARK   17  A    between atoms: C24_34  and  C25_35 
REMARK   18  A    between atoms: C25_35  and  C26_36 
ROOT
HETATM    1  C5  UNL     1      17.951   7.244  21.468  1.00  0.00    -0.054 C 
HETATM    2  C6  UNL     1      18.141   7.680  20.071  1.00  0.00     0.046 C 
HETATM    3  C7  UNL     1      18.268   8.078  22.439  1.00  0.00     0.053 C 
HETATM    4  C8  UNL     1      18.092   7.659  23.827  1.00  0.00     0.085 C 
HETATM    5  C9  UNL     1      18.562   8.620  24.851  1.00  0.00     0.137 C 
HETATM    6  N1  UNL     1      18.939   9.929  24.382  1.00  0.00    -0.298 N 
HETATM    7  C10 UNL     1      18.666  11.060  25.195  1.00  0.00     0.321 C 
HETATM    8  O1  UNL     1      17.544  11.049  25.814  1.00  0.00    -0.247 OA
HETATM    9  N2  UNL     1      19.500  12.168  25.377  1.00  0.00    -0.330 N 
ATOM     10  H2  UNL     1      19.072  13.092  25.336  1.00  0.00     0.165 HD
HETATM   11  C11 UNL     1      20.950  12.098  25.624  1.00  0.00     0.179 C 
HETATM   12  C15 UNL     1      21.588  12.793  24.504  1.00  0.00     0.242 C 
HETATM   13  O2  UNL     1      21.081  13.949  24.250  1.00  0.00    -0.271 OA
HETATM   14  N3  UNL     1      22.645  12.381  23.694  1.00  0.00    -0.338 N 
ATOM     15  H3  UNL     1      23.434  13.026  23.646  1.00  0.00     0.164 HD
HETATM   16  C16 UNL     1      22.785  11.177  22.917  1.00  0.00     0.186 C 
HETATM   17  N4  UNL     1      22.156  10.014  23.452  1.00  0.00    -0.336 N 
ATOM     18  H4  UNL     1      22.671   9.551  24.200  1.00  0.00     0.164 HD
HETATM   19  C29 UNL     1      20.941   9.408  23.110  1.00  0.00     0.269 C 
HETATM   20  O6  UNL     1      20.961   8.167  22.784  1.00  0.00    -0.269 OA
HETATM   21  C30 UNL     1      19.598  10.042  23.082  1.00  0.00     0.326 C 
HETATM   22  O7  UNL     1      18.767   9.353  22.169  1.00  0.00    -0.321 OA
ENDROOT
BRANCH  16  23
HETATM   23  C17 UNL     1      22.439  11.427  21.451  1.00  0.00     0.047 C 
BRANCH  23  24
HETATM   24  C18 UNL     1      23.495  10.912  20.503  1.00  0.00     0.004 C 
BRANCH  24  25
HETATM   25  C19 UNL     1      23.577   9.434  20.448  1.00  0.00     0.000 C 
BRANCH  25  26
HETATM   26  C20 UNL     1      24.560   8.925  19.381  1.00  0.00     0.002 C 
BRANCH  26  27
HETATM   27  C21 UNL     1      25.112   7.602  19.764  1.00  0.00     0.032 C 
BRANCH  27  28
HETATM   28  C22 UNL     1      24.506   6.375  19.221  1.00  0.00     0.132 C 
BRANCH  28  29
HETATM   29  O3  UNL     1      23.787   5.774  20.284  1.00  0.00    -0.395 OA
ATOM     30  H3  UNL     1      23.123   5.224  19.886  1.00  0.00     0.210 HD
ENDBRANCH  28  29
BRANCH  28  31
HETATM   31  C23 UNL     1      23.579   6.492  18.062  1.00  0.00     0.115 C 
BRANCH  31  32
HETATM   32  C24 UNL     1      22.131   6.177  18.543  1.00  0.00     0.018 C 
BRANCH  32  33
HETATM   33  C25 UNL     1      21.208   6.631  17.458  1.00  0.00     0.001 C 
BRANCH  33  34
HETATM   34  C26 UNL     1      20.064   5.653  17.241  1.00  0.00    -0.005 C 
HETATM   35  C27 UNL     1      20.028   4.733  18.454  1.00  0.00     0.005 C 
ENDBRANCH  33  34
ENDBRANCH  32  33
ENDBRANCH  31  32
BRANCH  31  36
HETATM   36  C28 UNL     1      23.845   5.355  17.111  1.00  0.00     0.179 C 
HETATM   37  O4  UNL     1      23.750   4.166  17.494  1.00  0.00    -0.648 OA
HETATM   38  O5  UNL     1      24.191   5.601  15.809  1.00  0.00    -0.648 OA
ENDBRANCH  31  36
ENDBRANCH  28  31
ENDBRANCH  27  28
ENDBRANCH  26  27
ENDBRANCH  25  26
ENDBRANCH  24  25
ENDBRANCH  23  24
ENDBRANCH  16  23
BRANCH  11  39
HETATM   39  C12 UNL     1      21.232  12.710  26.982  1.00  0.00     0.045 C 
BRANCH  39  40
HETATM   40  C13 UNL     1      22.594  13.294  27.132  1.00  0.00     0.076 C 
BRANCH  40  41
HETATM   41  S1  UNL     1      23.698  11.895  27.585  1.00  0.00    -0.173 SA
HETATM   42  C14 UNL     1      25.050  11.739  26.406  1.00  0.00     0.089 C 
ENDBRANCH  40  41
ENDBRANCH  39  40
ENDBRANCH  11  39
BRANCH   1  43
HETATM   43  C4  UNL     1      17.426   5.906  21.767  1.00  0.00     0.036 C 
BRANCH  43  44
HETATM   44  C3  UNL     1      16.043   5.670  21.181  1.00  0.00     0.004 C 
BRANCH  44  45
HETATM   45  C2  UNL     1      15.013   6.291  22.100  1.00  0.00    -0.004 C 
HETATM   46  C1  UNL     1      14.488   7.596  21.563  1.00  0.00     0.005 C 
ENDBRANCH  44  45
ENDBRANCH  43  44
ENDBRANCH   1  43
TORSDOF 18
ENDMDL
