MODEL 1
REMARK VINA RESULT: -7.891285731      0.000      0.000
REMARK  12 active torsions:
REMARK  status: ('A' for Active; 'I' for Inactive)
REMARK    1  A    between atoms: C2_2  and  C3_3 
REMARK    2  A    between atoms: C2_2  and  N1_15 
REMARK    3  A    between atoms: C4_4  and  C5_5 
REMARK    4  A    between atoms: C4_4  and  C7_9 
REMARK    5  A    between atoms: C5_5  and  C6_6 
REMARK    6  A    between atoms: C7_9  and  O3_10 
REMARK    7  A    between atoms: C7_9  and  C8_12 
REMARK       I    between atoms: N1_15  and  C11_17 
REMARK    8  A    between atoms: C11_17  and  C12_19 
REMARK       I    between atoms: N2_24  and  C15_25 
REMARK    9  A    between atoms: C15_25  and  C16_27 
REMARK   10  A    between atoms: C16_27  and  N3_28 
REMARK   11  A    between atoms: C16_27  and  C28_42 
REMARK       I    between atoms: N3_28  and  C17_30 
REMARK   12  A    between atoms: C17_30  and  C18_32 
ROOT
HETATM    1  C12 UNL     1      -9.543  16.928  25.149  1.00  0.00     0.214 C 
HETATM    2  C13 UNL     1      -9.875  16.599  23.700  1.00  0.00     0.216 C 
HETATM    3  O5  UNL     1      -8.850  15.659  23.344  1.00  0.00    -0.301 OA
HETATM    4  C14 UNL     1      -8.316  15.108  24.515  1.00  0.00     0.370 C 
HETATM    5  O6  UNL     1      -7.347  14.325  24.539  1.00  0.00    -0.238 OA
HETATM    6  N2  UNL     1      -9.104  15.630  25.615  1.00  0.00    -0.246 N 
HETATM    7  C15 UNL     1      -9.328  14.912  26.818  1.00  0.00     0.252 C 
HETATM    8  O7  UNL     1      -8.750  13.812  26.948  1.00  0.00    -0.270 OA
ENDROOT
BRANCH   1   9
HETATM    9  C11 UNL     1      -8.446  17.930  25.213  1.00  0.00     0.243 C 
HETATM   10  N1  UNL     1      -7.489  18.035  24.184  1.00  0.00    -0.352 N 
ATOM     11  H1  UNL     1      -7.563  17.403  23.387  1.00  0.00     0.163 HD
HETATM   12  O4  UNL     1      -8.384  18.683  26.199  1.00  0.00    -0.271 OA
BRANCH  10  13
HETATM   13  C2  UNL     1      -6.400  19.003  24.207  1.00  0.00     0.103 C 
HETATM   14  C1  UNL     1      -6.484  19.939  23.023  1.00  0.00     0.036 C 
BRANCH  13  15
HETATM   15  C3  UNL     1      -5.079  18.287  24.226  1.00  0.00     0.004 C 
HETATM   16  C4  UNL     1      -4.445  17.940  25.354  1.00  0.00    -0.043 C 
BRANCH  16  17
HETATM   17  C5  UNL     1      -5.032  18.253  26.679  1.00  0.00     0.149 C 
BRANCH  17  18
HETATM   18  C6  UNL     1      -5.306  17.120  27.566  1.00  0.00     0.176 C 
HETATM   19  O1  UNL     1      -6.229  16.294  27.487  1.00  0.00    -0.648 OA
HETATM   20  O2  UNL     1      -4.428  16.916  28.658  1.00  0.00    -0.648 OA
ENDBRANCH  17  18
ENDBRANCH  16  17
BRANCH  16  21
HETATM   21  C7  UNL     1      -3.125  17.274  25.307  1.00  0.00     0.150 C 
BRANCH  21  22
HETATM   22  O3  UNL     1      -3.188  15.895  25.314  1.00  0.00    -0.391 OA
ATOM     23  H3  UNL     1      -2.383  15.471  25.585  1.00  0.00     0.210 HD
ENDBRANCH  21  22
BRANCH  21  24
HETATM   24  C8  UNL     1      -2.256  17.680  24.135  1.00  0.00     0.010 C 
HETATM   25  C9  UNL     1      -1.329  18.812  24.529  1.00  0.00     0.012 C 
HETATM   26  C10 UNL     1      -1.347  16.500  23.777  1.00  0.00     0.012 C 
ENDBRANCH  21  24
ENDBRANCH  16  21
ENDBRANCH  13  15
ENDBRANCH  10  13
ENDBRANCH   1   9
BRANCH   7  27
HETATM   27  C16 UNL     1     -10.198  15.408  27.901  1.00  0.00     0.184 C 
BRANCH  27  28
HETATM   28  N3  UNL     1      -9.677  15.320  29.226  1.00  0.00    -0.347 N 
HETATM   29  C17 UNL     1      -9.170  16.280  30.111  1.00  0.00     0.222 C 
HETATM   30  O8  UNL     1      -9.059  17.514  29.898  1.00  0.00    -0.273 OA
ATOM     31  H3  UNL     1      -9.673  14.372  29.603  1.00  0.00     0.163 HD
BRANCH  29  32
HETATM   32  C18 UNL     1      -8.681  15.872  31.494  1.00  0.00     0.078 C 
HETATM   33  C19 UNL     1      -9.491  14.742  31.948  1.00  0.00     0.014 C 
HETATM   34  C20 UNL     1     -10.850  15.007  32.456  1.00  0.00     0.001 C 
HETATM   35  C21 UNL     1     -11.325  14.072  33.530  1.00  0.00     0.000 C 
HETATM   36  C22 UNL     1     -10.573  14.188  34.813  1.00  0.00     0.000 C 
HETATM   37  C23 UNL     1     -10.761  15.510  35.509  1.00  0.00     0.000 C 
HETATM   38  C24 UNL     1      -9.396  16.088  35.837  1.00  0.00     0.000 C 
HETATM   39  C25 UNL     1      -9.019  17.205  34.887  1.00  0.00     0.000 C 
HETATM   40  C26 UNL     1      -8.122  16.712  33.771  1.00  0.00     0.001 C 
HETATM   41  C27 UNL     1      -8.658  17.072  32.403  1.00  0.00     0.014 C 
ENDBRANCH  29  32
ENDBRANCH  27  28
BRANCH  27  42
HETATM   42  C28 UNL     1     -11.591  14.803  27.832  1.00  0.00    -0.022 C 
HETATM   43  C29 UNL     1     -12.686  15.803  27.991  1.00  0.00     0.017 C 
HETATM   44  C30 UNL     1     -11.671  13.864  29.046  1.00  0.00     0.017 C 
HETATM   45  C31 UNL     1     -11.847  13.997  26.599  1.00  0.00     0.017 C 
ENDBRANCH  27  42
ENDBRANCH   7  27
TORSDOF 12
ENDMDL
MODEL 2
REMARK VINA RESULT: -7.886284964      5.399      9.927
REMARK  12 active torsions:
REMARK  status: ('A' for Active; 'I' for Inactive)
REMARK    1  A    between atoms: C2_2  and  C3_3 
REMARK    2  A    between atoms: C2_2  and  N1_15 
REMARK    3  A    between atoms: C4_4  and  C5_5 
REMARK    4  A    between atoms: C4_4  and  C7_9 
REMARK    5  A    between atoms: C5_5  and  C6_6 
REMARK    6  A    between atoms: C7_9  and  O3_10 
REMARK    7  A    between atoms: C7_9  and  C8_12 
REMARK       I    between atoms: N1_15  and  C11_17 
REMARK    8  A    between atoms: C11_17  and  C12_19 
REMARK       I    between atoms: N2_24  and  C15_25 
REMARK    9  A    between atoms: C15_25  and  C16_27 
REMARK   10  A    between atoms: C16_27  and  N3_28 
REMARK   11  A    between atoms: C16_27  and  C28_42 
REMARK       I    between atoms: N3_28  and  C17_30 
REMARK   12  A    between atoms: C17_30  and  C18_32 
ROOT
HETATM    1  C12 UNL     1     -12.767  10.534  35.362  1.00  0.00     0.214 C 
HETATM    2  C13 UNL     1     -12.773   9.875  36.734  1.00  0.00     0.216 C 
HETATM    3  O5  UNL     1     -13.815  10.582  37.423  1.00  0.00    -0.301 OA
HETATM    4  C14 UNL     1     -14.650  11.190  36.477  1.00  0.00     0.370 C 
HETATM    5  O6  UNL     1     -15.595  11.949  36.765  1.00  0.00    -0.238 OA
HETATM    6  N2  UNL     1     -14.185  10.755  35.174  1.00  0.00    -0.246 N 
HETATM    7  C15 UNL     1     -15.042  10.606  34.054  1.00  0.00     0.252 C 
HETATM    8  O7  UNL     1     -16.237  10.941  34.195  1.00  0.00    -0.270 OA
ENDROOT
BRANCH   1   9
HETATM    9  C11 UNL     1     -12.016  11.818  35.409  1.00  0.00     0.243 C 
HETATM   10  N1  UNL     1     -12.108  12.758  34.364  1.00  0.00    -0.352 N 
ATOM     11  H1  UNL     1     -12.703  12.540  33.564  1.00  0.00     0.163 HD
HETATM   12  O4  UNL     1     -11.300  12.053  36.396  1.00  0.00    -0.271 OA
BRANCH  10  13
HETATM   13  C2  UNL     1     -11.392  14.027  34.371  1.00  0.00     0.103 C 
HETATM   14  C1  UNL     1     -12.098  15.042  35.241  1.00  0.00     0.036 C 
BRANCH  13  15
HETATM   15  C3  UNL     1     -11.248  14.541  32.966  1.00  0.00     0.004 C 
HETATM   16  C4  UNL     1     -10.122  15.098  32.497  1.00  0.00    -0.043 C 
BRANCH  16  17
HETATM   17  C5  UNL     1      -8.928  15.237  33.364  1.00  0.00     0.149 C 
BRANCH  17  18
HETATM   18  C6  UNL     1      -8.698  16.550  33.970  1.00  0.00     0.176 C 
HETATM   19  O1  UNL     1      -8.501  17.633  33.396  1.00  0.00    -0.648 OA
HETATM   20  O2  UNL     1      -8.694  16.628  35.384  1.00  0.00    -0.648 OA
ENDBRANCH  17  18
ENDBRANCH  16  17
BRANCH  16  21
HETATM   21  C7  UNL     1     -10.057  15.623  31.116  1.00  0.00     0.150 C 
BRANCH  21  22
HETATM   22  O3  UNL     1     -10.411  16.952  31.000  1.00  0.00    -0.391 OA
ATOM     23  H3  UNL     1      -9.753  17.495  30.582  1.00  0.00     0.210 HD
ENDBRANCH  21  22
BRANCH  21  24
HETATM   24  C8  UNL     1      -8.712  15.454  30.440  1.00  0.00     0.010 C 
HETATM   25  C9  UNL     1      -8.832  14.529  29.246  1.00  0.00     0.012 C 
HETATM   26  C10 UNL     1      -8.281  16.811  29.877  1.00  0.00     0.012 C 
ENDBRANCH  21  24
ENDBRANCH  16  21
ENDBRANCH  13  15
ENDBRANCH  10  13
ENDBRANCH   1   9
BRANCH   7  27
HETATM   27  C16 UNL     1     -14.584  10.084  32.753  1.00  0.00     0.184 C 
BRANCH  27  28
HETATM   28  N3  UNL     1     -14.597  11.000  31.660  1.00  0.00    -0.347 N 
HETATM   29  C17 UNL     1     -14.418  12.387  31.583  1.00  0.00     0.222 C 
HETATM   30  O8  UNL     1     -14.195  13.170  32.540  1.00  0.00    -0.273 OA
ATOM     31  H3  UNL     1     -14.770  10.558  30.757  1.00  0.00     0.163 HD
BRANCH  29  32
HETATM   32  C18 UNL     1     -14.484  13.099  30.239  1.00  0.00     0.078 C 
HETATM   33  C19 UNL     1     -13.958  12.195  29.217  1.00  0.00     0.014 C 
HETATM   34  C20 UNL     1     -12.497  12.028  29.108  1.00  0.00     0.001 C 
HETATM   35  C21 UNL     1     -11.986  11.758  27.723  1.00  0.00     0.000 C 
HETATM   36  C22 UNL     1     -12.159  12.899  26.778  1.00  0.00     0.000 C 
HETATM   37  C23 UNL     1     -11.337  14.110  27.133  1.00  0.00     0.000 C 
HETATM   38  C24 UNL     1     -12.246  15.325  27.164  1.00  0.00     0.000 C 
HETATM   39  C25 UNL     1     -12.570  15.745  28.583  1.00  0.00     0.000 C 
HETATM   40  C26 UNL     1     -13.910  15.202  29.034  1.00  0.00     0.001 C 
HETATM   41  C27 UNL     1     -13.811  14.443  30.339  1.00  0.00     0.014 C 
ENDBRANCH  29  32
ENDBRANCH  27  28
BRANCH  27  42
HETATM   42  C28 UNL     1     -15.293   8.792  32.378  1.00  0.00    -0.022 C 
HETATM   43  C29 UNL     1     -15.762   8.005  33.553  1.00  0.00     0.017 C 
HETATM   44  C30 UNL     1     -14.218   7.943  31.680  1.00  0.00     0.017 C 
HETATM   45  C31 UNL     1     -16.435   8.974  31.430  1.00  0.00     0.017 C 
ENDBRANCH  27  42
ENDBRANCH   7  27
TORSDOF 12
ENDMDL
MODEL 3
REMARK VINA RESULT: -7.527444982      3.503      6.624
REMARK  12 active torsions:
REMARK  status: ('A' for Active; 'I' for Inactive)
REMARK    1  A    between atoms: C2_2  and  C3_3 
REMARK    2  A    between atoms: C2_2  and  N1_15 
REMARK    3  A    between atoms: C4_4  and  C5_5 
REMARK    4  A    between atoms: C4_4  and  C7_9 
REMARK    5  A    between atoms: C5_5  and  C6_6 
REMARK    6  A    between atoms: C7_9  and  O3_10 
REMARK    7  A    between atoms: C7_9  and  C8_12 
REMARK       I    between atoms: N1_15  and  C11_17 
REMARK    8  A    between atoms: C11_17  and  C12_19 
REMARK       I    between atoms: N2_24  and  C15_25 
REMARK    9  A    between atoms: C15_25  and  C16_27 
REMARK   10  A    between atoms: C16_27  and  N3_28 
REMARK   11  A    between atoms: C16_27  and  C28_42 
REMARK       I    between atoms: N3_28  and  C17_30 
REMARK   12  A    between atoms: C17_30  and  C18_32 
ROOT
HETATM    1  C12 UNL     1      -9.148  16.225  30.850  1.00  0.00     0.214 C 
HETATM    2  C13 UNL     1      -8.958  17.722  31.059  1.00  0.00     0.216 C 
HETATM    3  O5  UNL     1      -9.862  18.295  30.103  1.00  0.00    -0.301 OA
HETATM    4  C14 UNL     1     -10.818  17.334  29.753  1.00  0.00     0.370 C 
HETATM    5  O6  UNL     1     -11.687  17.501  28.876  1.00  0.00    -0.238 OA
HETATM    6  N2  UNL     1     -10.572  16.179  30.594  1.00  0.00    -0.246 N 
HETATM    7  C15 UNL     1     -11.597  15.293  31.014  1.00  0.00     0.252 C 
HETATM    8  O7  UNL     1     -12.747  15.488  30.566  1.00  0.00    -0.270 OA
ENDROOT
BRANCH   1   9
HETATM    9  C11 UNL     1      -8.367  15.766  29.670  1.00  0.00     0.243 C 
HETATM   10  N1  UNL     1      -7.662  16.677  28.860  1.00  0.00    -0.352 N 
ATOM     11  H1  UNL     1      -7.697  17.668  29.098  1.00  0.00     0.163 HD
HETATM   12  O4  UNL     1      -8.346  14.552  29.406  1.00  0.00    -0.271 OA
BRANCH  10  13
HETATM   13  C2  UNL     1      -6.884  16.269  27.697  1.00  0.00     0.103 C 
HETATM   14  C1  UNL     1      -5.420  16.591  27.885  1.00  0.00     0.036 C 
BRANCH  13  15
HETATM   15  C3  UNL     1      -7.421  16.937  26.462  1.00  0.00     0.004 C 
HETATM   16  C4  UNL     1      -8.322  16.369  25.649  1.00  0.00    -0.043 C 
BRANCH  16  17
HETATM   17  C5  UNL     1      -8.853  15.014  25.936  1.00  0.00     0.149 C 
BRANCH  17  18
HETATM   18  C6  UNL     1     -10.201  14.937  26.502  1.00  0.00     0.176 C 
HETATM   19  O1  UNL     1     -11.130  15.750  26.376  1.00  0.00    -0.648 OA
HETATM   20  O2  UNL     1     -10.514  13.807  27.295  1.00  0.00    -0.648 OA
ENDBRANCH  17  18
ENDBRANCH  16  17
BRANCH  16  21
HETATM   21  C7  UNL     1      -8.780  17.061  24.425  1.00  0.00     0.150 C 
BRANCH  21  22
HETATM   22  O3  UNL     1      -8.020  18.161  24.081  1.00  0.00    -0.391 OA
ATOM     23  H3  UNL     1      -7.554  18.554  24.808  1.00  0.00     0.210 HD
ENDBRANCH  21  22
BRANCH  21  24
HETATM   24  C8  UNL     1      -8.876  16.177  23.199  1.00  0.00     0.010 C 
HETATM   25  C9  UNL     1     -10.321  16.021  22.770  1.00  0.00     0.012 C 
HETATM   26  C10 UNL     1      -8.169  16.883  22.039  1.00  0.00     0.012 C 
ENDBRANCH  21  24
ENDBRANCH  16  21
ENDBRANCH  13  15
ENDBRANCH  10  13
ENDBRANCH   1   9
BRANCH   7  27
HETATM   27  C16 UNL     1     -11.360  14.167  31.938  1.00  0.00     0.184 C 
BRANCH  27  28
HETATM   28  N3  UNL     1     -12.452  13.276  32.149  1.00  0.00    -0.347 N 
HETATM   29  C17 UNL     1     -13.041  12.291  31.345  1.00  0.00     0.222 C 
HETATM   30  O8  UNL     1     -12.700  11.970  30.179  1.00  0.00    -0.273 OA
ATOM     31  H3  UNL     1     -12.892  13.374  33.064  1.00  0.00     0.163 HD
BRANCH  29  32
HETATM   32  C18 UNL     1     -14.221  11.479  31.861  1.00  0.00     0.078 C 
HETATM   33  C19 UNL     1     -14.037  11.268  33.296  1.00  0.00     0.014 C 
HETATM   34  C20 UNL     1     -13.077  10.241  33.741  1.00  0.00     0.001 C 
HETATM   35  C21 UNL     1     -13.427   9.553  35.028  1.00  0.00     0.000 C 
HETATM   36  C22 UNL     1     -14.652   8.706  34.952  1.00  0.00     0.000 C 
HETATM   37  C23 UNL     1     -14.509   7.513  34.044  1.00  0.00     0.000 C 
HETATM   38  C24 UNL     1     -15.673   7.497  33.071  1.00  0.00     0.000 C 
HETATM   39  C25 UNL     1     -15.257   7.971  31.693  1.00  0.00     0.000 C 
HETATM   40  C26 UNL     1     -15.590   9.433  31.480  1.00  0.00     0.001 C 
HETATM   41  C27 UNL     1     -14.389  10.234  31.030  1.00  0.00     0.014 C 
ENDBRANCH  29  32
ENDBRANCH  27  28
BRANCH  27  42
HETATM   42  C28 UNL     1     -10.786  14.635  33.267  1.00  0.00    -0.022 C 
HETATM   43  C29 UNL     1      -9.310  14.455  33.377  1.00  0.00     0.017 C 
HETATM   44  C30 UNL     1     -11.422  13.709  34.316  1.00  0.00     0.017 C 
HETATM   45  C31 UNL     1     -11.130  16.047  33.617  1.00  0.00     0.017 C 
ENDBRANCH  27  42
ENDBRANCH   7  27
TORSDOF 12
ENDMDL
MODEL 4
REMARK VINA RESULT: -7.511452933      6.917     11.640
REMARK  12 active torsions:
REMARK  status: ('A' for Active; 'I' for Inactive)
REMARK    1  A    between atoms: C2_2  and  C3_3 
REMARK    2  A    between atoms: C2_2  and  N1_15 
REMARK    3  A    between atoms: C4_4  and  C5_5 
REMARK    4  A    between atoms: C4_4  and  C7_9 
REMARK    5  A    between atoms: C5_5  and  C6_6 
REMARK    6  A    between atoms: C7_9  and  O3_10 
REMARK    7  A    between atoms: C7_9  and  C8_12 
REMARK       I    between atoms: N1_15  and  C11_17 
REMARK    8  A    between atoms: C11_17  and  C12_19 
REMARK       I    between atoms: N2_24  and  C15_25 
REMARK    9  A    between atoms: C15_25  and  C16_27 
REMARK   10  A    between atoms: C16_27  and  N3_28 
REMARK   11  A    between atoms: C16_27  and  C28_42 
REMARK       I    between atoms: N3_28  and  C17_30 
REMARK   12  A    between atoms: C17_30  and  C18_32 
ROOT
HETATM    1  C12 UNL     1     -13.682   9.797  31.870  1.00  0.00     0.214 C 
HETATM    2  C13 UNL     1     -14.351   8.524  31.368  1.00  0.00     0.216 C 
HETATM    3  O5  UNL     1     -15.740   8.769  31.631  1.00  0.00    -0.301 OA
HETATM    4  C14 UNL     1     -15.937  10.148  31.771  1.00  0.00     0.370 C 
HETATM    5  O6  UNL     1     -17.022  10.670  32.093  1.00  0.00    -0.238 OA
HETATM    6  N2  UNL     1     -14.666  10.780  31.474  1.00  0.00    -0.246 N 
HETATM    7  C15 UNL     1     -14.558  12.075  30.904  1.00  0.00     0.252 C 
HETATM    8  O7  UNL     1     -15.616  12.716  30.727  1.00  0.00    -0.270 OA
ENDROOT
BRANCH   1   9
HETATM    9  C11 UNL     1     -13.524   9.748  33.349  1.00  0.00     0.243 C 
HETATM   10  N1  UNL     1     -12.977  10.832  34.062  1.00  0.00    -0.352 N 
ATOM     11  H1  UNL     1     -12.686  11.660  33.541  1.00  0.00     0.163 HD
HETATM   12  O4  UNL     1     -13.887   8.725  33.953  1.00  0.00    -0.271 OA
BRANCH  10  13
HETATM   13  C2  UNL     1     -12.807  10.827  35.510  1.00  0.00     0.103 C 
HETATM   14  C1  UNL     1     -12.325   9.479  35.993  1.00  0.00     0.036 C 
BRANCH  13  15
HETATM   15  C3  UNL     1     -14.100  11.201  36.178  1.00  0.00     0.004 C 
HETATM   16  C4  UNL     1     -14.196  12.152  37.117  1.00  0.00    -0.043 C 
BRANCH  16  17
HETATM   17  C5  UNL     1     -12.998  12.908  37.554  1.00  0.00     0.149 C 
BRANCH  17  18
HETATM   18  C6  UNL     1     -12.414  12.537  38.845  1.00  0.00     0.176 C 
HETATM   19  O1  UNL     1     -12.724  12.955  39.972  1.00  0.00    -0.648 OA
HETATM   20  O2  UNL     1     -11.366  11.586  38.840  1.00  0.00    -0.648 OA
ENDBRANCH  17  18
ENDBRANCH  16  17
BRANCH  16  21
HETATM   21  C7  UNL     1     -15.491  12.445  37.768  1.00  0.00     0.150 C 
BRANCH  21  22
HETATM   22  O3  UNL     1     -16.513  12.736  36.887  1.00  0.00    -0.391 OA
ATOM     23  H3  UNL     1     -17.074  13.451  37.165  1.00  0.00     0.210 HD
ENDBRANCH  21  22
BRANCH  21  24
HETATM   24  C8  UNL     1     -15.991  11.356  38.694  1.00  0.00     0.010 C 
HETATM   25  C9  UNL     1     -16.143  11.889  40.105  1.00  0.00     0.012 C 
HETATM   26  C10 UNL     1     -17.398  10.950  38.246  1.00  0.00     0.012 C 
ENDBRANCH  21  24
ENDBRANCH  16  21
ENDBRANCH  13  15
ENDBRANCH  10  13
ENDBRANCH   1   9
BRANCH   7  27
HETATM   27  C16 UNL     1     -13.269  12.683  30.524  1.00  0.00     0.184 C 
BRANCH  27  28
HETATM   28  N3  UNL     1     -12.787  13.730  31.364  1.00  0.00    -0.347 N 
HETATM   29  C17 UNL     1     -13.069  14.089  32.689  1.00  0.00     0.222 C 
HETATM   30  O8  UNL     1     -13.872  13.516  33.467  1.00  0.00    -0.273 OA
ATOM     31  H3  UNL     1     -12.102  14.336  30.912  1.00  0.00     0.163 HD
BRANCH  29  32
HETATM   32  C18 UNL     1     -12.374  15.283  33.328  1.00  0.00     0.078 C 
HETATM   33  C19 UNL     1     -11.515  15.904  32.321  1.00  0.00     0.014 C 
HETATM   34  C20 UNL     1     -10.225  15.264  32.004  1.00  0.00     0.001 C 
HETATM   35  C21 UNL     1      -9.124  16.206  31.608  1.00  0.00     0.000 C 
HETATM   36  C22 UNL     1      -8.671  17.108  32.706  1.00  0.00     0.000 C 
HETATM   37  C23 UNL     1      -8.005  16.386  33.848  1.00  0.00     0.000 C 
HETATM   38  C24 UNL     1      -8.663  16.815  35.147  1.00  0.00     0.000 C 
HETATM   39  C25 UNL     1      -9.603  15.750  35.675  1.00  0.00     0.000 C 
HETATM   40  C26 UNL     1     -11.041  16.034  35.293  1.00  0.00     0.001 C 
HETATM   41  C27 UNL     1     -11.693  14.857  34.602  1.00  0.00     0.014 C 
ENDBRANCH  29  32
ENDBRANCH  27  28
BRANCH  27  42
HETATM   42  C28 UNL     1     -13.252  13.115  29.066  1.00  0.00    -0.022 C 
HETATM   43  C29 UNL     1     -13.754  12.071  28.128  1.00  0.00     0.017 C 
HETATM   44  C30 UNL     1     -11.766  13.326  28.737  1.00  0.00     0.017 C 
HETATM   45  C31 UNL     1     -13.978  14.395  28.800  1.00  0.00     0.017 C 
ENDBRANCH  27  42
ENDBRANCH   7  27
TORSDOF 12
ENDMDL
MODEL 5
REMARK VINA RESULT: -7.504664739      1.690      2.631
REMARK  12 active torsions:
REMARK  status: ('A' for Active; 'I' for Inactive)
REMARK    1  A    between atoms: C2_2  and  C3_3 
REMARK    2  A    between atoms: C2_2  and  N1_15 
REMARK    3  A    between atoms: C4_4  and  C5_5 
REMARK    4  A    between atoms: C4_4  and  C7_9 
REMARK    5  A    between atoms: C5_5  and  C6_6 
REMARK    6  A    between atoms: C7_9  and  O3_10 
REMARK    7  A    between atoms: C7_9  and  C8_12 
REMARK       I    between atoms: N1_15  and  C11_17 
REMARK    8  A    between atoms: C11_17  and  C12_19 
REMARK       I    between atoms: N2_24  and  C15_25 
REMARK    9  A    between atoms: C15_25  and  C16_27 
REMARK   10  A    between atoms: C16_27  and  N3_28 
REMARK   11  A    between atoms: C16_27  and  C28_42 
REMARK       I    between atoms: N3_28  and  C17_30 
REMARK   12  A    between atoms: C17_30  and  C18_32 
ROOT
HETATM    1  C12 UNL     1      -9.527  17.021  27.029  1.00  0.00     0.214 C 
HETATM    2  C13 UNL     1      -9.511  18.089  25.944  1.00  0.00     0.216 C 
HETATM    3  O5  UNL     1      -9.311  17.323  24.746  1.00  0.00    -0.301 OA
HETATM    4  C14 UNL     1      -9.677  15.994  24.994  1.00  0.00     0.370 C 
HETATM    5  O6  UNL     1      -9.533  15.067  24.174  1.00  0.00    -0.238 OA
HETATM    6  N2  UNL     1     -10.224  15.958  26.336  1.00  0.00    -0.246 N 
HETATM    7  C15 UNL     1     -11.229  15.042  26.740  1.00  0.00     0.252 C 
HETATM    8  O7  UNL     1     -11.594  14.184  25.909  1.00  0.00    -0.270 OA
ENDROOT
BRANCH   1   9
HETATM    9  C11 UNL     1      -8.138  16.623  27.383  1.00  0.00     0.243 C 
HETATM   10  N1  UNL     1      -7.027  17.342  26.904  1.00  0.00    -0.352 N 
ATOM     11  H1  UNL     1      -7.192  18.149  26.302  1.00  0.00     0.163 HD
HETATM   12  O4  UNL     1      -7.971  15.634  28.116  1.00  0.00    -0.271 OA
BRANCH  10  13
HETATM   13  C2  UNL     1      -5.650  16.988  27.227  1.00  0.00     0.103 C 
HETATM   14  C1  UNL     1      -5.354  17.243  28.687  1.00  0.00     0.036 C 
BRANCH  13  15
HETATM   15  C3  UNL     1      -4.704  17.759  26.350  1.00  0.00     0.004 C 
HETATM   16  C4  UNL     1      -4.835  17.843  25.019  1.00  0.00    -0.043 C 
BRANCH  16  17
HETATM   17  C5  UNL     1      -5.955  17.163  24.324  1.00  0.00     0.149 C 
BRANCH  17  18
HETATM   18  C6  UNL     1      -6.279  17.631  22.975  1.00  0.00     0.176 C 
HETATM   19  O1  UNL     1      -5.985  17.102  21.892  1.00  0.00    -0.648 OA
HETATM   20  O2  UNL     1      -7.021  18.831  22.859  1.00  0.00    -0.648 OA
ENDBRANCH  17  18
ENDBRANCH  16  17
BRANCH  16  21
HETATM   21  C7  UNL     1      -3.846  18.583  24.207  1.00  0.00     0.150 C 
BRANCH  21  22
HETATM   22  O3  UNL     1      -3.417  19.765  24.777  1.00  0.00    -0.391 OA
ATOM     23  H3  UNL     1      -2.473  19.838  24.855  1.00  0.00     0.210 HD
ENDBRANCH  21  22
BRANCH  21  24
HETATM   24  C8  UNL     1      -2.612  17.787  23.837  1.00  0.00     0.010 C 
HETATM   25  C9  UNL     1      -2.374  17.842  22.341  1.00  0.00     0.012 C 
HETATM   26  C10 UNL     1      -1.394  18.458  24.479  1.00  0.00     0.012 C 
ENDBRANCH  21  24
ENDBRANCH  16  21
ENDBRANCH  13  15
ENDBRANCH  10  13
ENDBRANCH   1   9
BRANCH   7  27
HETATM   27  C16 UNL     1     -11.844  15.062  28.081  1.00  0.00     0.184 C 
BRANCH  27  28
HETATM   28  N3  UNL     1     -10.949  15.111  29.190  1.00  0.00    -0.347 N 
HETATM   29  C17 UNL     1     -10.550  16.150  30.041  1.00  0.00     0.222 C 
HETATM   30  O8  UNL     1     -10.926  17.348  29.992  1.00  0.00    -0.273 OA
ATOM     31  H3  UNL     1     -10.515  14.213  29.408  1.00  0.00     0.163 HD
BRANCH  29  32
HETATM   32  C18 UNL     1      -9.559  15.886  31.167  1.00  0.00     0.078 C 
HETATM   33  C19 UNL     1     -10.076  14.788  31.981  1.00  0.00     0.014 C 
HETATM   34  C20 UNL     1     -11.161  15.070  32.940  1.00  0.00     0.001 C 
HETATM   35  C21 UNL     1     -11.149  14.232  34.185  1.00  0.00     0.000 C 
HETATM   36  C22 UNL     1      -9.981  14.486  35.078  1.00  0.00     0.000 C 
HETATM   37  C23 UNL     1      -9.970  15.864  35.685  1.00  0.00     0.000 C 
HETATM   38  C24 UNL     1      -8.616  16.500  35.428  1.00  0.00     0.000 C 
HETATM   39  C25 UNL     1      -8.683  17.530  34.320  1.00  0.00     0.000 C 
HETATM   40  C26 UNL     1      -8.240  16.952  32.992  1.00  0.00     0.001 C 
HETATM   41  C27 UNL     1      -9.267  17.168  31.901  1.00  0.00     0.014 C 
ENDBRANCH  29  32
ENDBRANCH  27  28
BRANCH  27  42
HETATM   42  C28 UNL     1     -12.856  13.940  28.258  1.00  0.00    -0.022 C 
HETATM   43  C29 UNL     1     -14.247  14.326  27.888  1.00  0.00     0.017 C 
HETATM   44  C30 UNL     1     -12.863  13.654  29.768  1.00  0.00     0.017 C 
HETATM   45  C31 UNL     1     -12.498  12.676  27.543  1.00  0.00     0.017 C 
ENDBRANCH  27  42
ENDBRANCH   7  27
TORSDOF 12
ENDMDL
