MODEL 1
REMARK VINA RESULT: -7.726028313      0.000      0.000
REMARK  5 active torsions:
REMARK  status: ('A' for Active; 'I' for Inactive)
REMARK    1  A    between atoms: C2_3  and  N2_4 
REMARK    2  A    between atoms: C4_9  and  C5_10 
REMARK       I    between atoms: C5_10  and  N5_12 
REMARK    3  A    between atoms: N5_12  and  N6_14 
REMARK    4  A    between atoms: N7_18  and  O2_19 
REMARK    5  A    between atoms: C7_21  and  N8_22 
ROOT
HETATM    1  C1  UNL     1      28.941  66.961   6.327  1.00  0.00     0.177 C 
HETATM    2  N1  UNL     1      29.834  66.776   7.456  1.00  0.00    -0.170 N 
HETATM    3  C2  UNL     1      29.318  66.610   8.698  1.00  0.00     0.142 A 
HETATM    4  C4  UNL     1      30.217  66.420   9.708  1.00  0.00     0.097 A 
HETATM    5  C6  UNL     1      31.592  66.406   9.441  1.00  0.00     0.163 A 
HETATM    6  N7  UNL     1      32.022  66.579   8.196  1.00  0.00    -0.063 N 
HETATM    7  C7  UNL     1      31.165  66.763   7.198  1.00  0.00     0.705 A 
ENDROOT
BRANCH   4   8
HETATM    8  C5  UNL     1      29.818  66.207  11.081  1.00  0.00     0.274 C 
HETATM    9  O1  UNL     1      29.445  67.173  11.774  1.00  0.00    -0.266 OA
HETATM   10  N5  UNL     1      29.841  64.918  11.657  1.00  0.00    -0.272 N 
ATOM     11  H5  UNL     1      30.152  64.155  11.057  1.00  0.00     0.189 HD
BRANCH  10  12
HETATM   12  N6  UNL     1      29.488  64.583  12.951  1.00  0.00    -0.342 N 
ATOM     13  H62 UNL     1      28.788  65.187  13.385  1.00  0.00     0.176 HD
ATOM     14  H61 UNL     1      29.852  63.806  13.502  1.00  0.00     0.176 HD
ENDBRANCH  10  12
ENDBRANCH   4   8
BRANCH   3  15
HETATM   15  N2  UNL     1      27.974  66.668   8.887  1.00  0.00    -0.318 N 
HETATM   16  C3  UNL     1      27.036  65.963   9.265  1.00  0.00     0.202 C 
HETATM   17  N3  UNL     1      27.202  64.625   9.681  1.00  0.00    -0.066 NA
HETATM   18  N4  UNL     1      25.718  66.524   9.281  1.00  0.00    -0.066 NA
ATOM     19  H2  UNL     1      27.630  67.595   8.635  1.00  0.00     0.169 HD
ENDBRANCH   3  15
BRANCH   6  20
HETATM   20  O2  UNL     1      33.404  66.557   7.988  1.00  0.00    -0.270 OA
ATOM     21  H2  UNL     1      33.732  66.973   7.200  1.00  0.00     0.245 HD
ENDBRANCH   6  20
BRANCH   7  22
HETATM   22  N8  UNL     1      31.619  66.926   5.995  1.00  0.00    -0.232 N 
ATOM     23  H82 UNL     1      30.959  67.051   5.227  1.00  0.00     0.174 HD
ATOM     24  H81 UNL     1      32.620  66.934   5.803  1.00  0.00     0.174 HD
ENDBRANCH   7  22
TORSDOF 5
ENDMDL
MODEL 2
REMARK VINA RESULT: -6.906346684      1.801      3.465
REMARK  5 active torsions:
REMARK  status: ('A' for Active; 'I' for Inactive)
REMARK    1  A    between atoms: C2_3  and  N2_4 
REMARK    2  A    between atoms: C4_9  and  C5_10 
REMARK       I    between atoms: C5_10  and  N5_12 
REMARK    3  A    between atoms: N5_12  and  N6_14 
REMARK    4  A    between atoms: N7_18  and  O2_19 
REMARK    5  A    between atoms: C7_21  and  N8_22 
ROOT
HETATM    1  C1  UNL     1      32.580  65.489  10.042  1.00  0.00     0.177 C 
HETATM    2  N1  UNL     1      31.620  66.016   9.093  1.00  0.00    -0.170 N 
HETATM    3  C2  UNL     1      30.293  65.895   9.344  1.00  0.00     0.142 A 
HETATM    4  C4  UNL     1      29.448  66.434   8.416  1.00  0.00     0.097 A 
HETATM    5  C6  UNL     1      29.957  67.069   7.277  1.00  0.00     0.163 A 
HETATM    6  N7  UNL     1      31.272  67.148   7.099  1.00  0.00    -0.063 N 
HETATM    7  C7  UNL     1      32.112  66.632   7.990  1.00  0.00     0.705 A 
ENDROOT
BRANCH   4   8
HETATM    8  C5  UNL     1      28.010  66.402   8.556  1.00  0.00     0.274 C 
HETATM    9  O1  UNL     1      27.339  65.604   7.873  1.00  0.00    -0.266 OA
HETATM   10  N5  UNL     1      27.344  67.262   9.456  1.00  0.00    -0.272 N 
ATOM     11  H5  UNL     1      27.928  67.899   9.996  1.00  0.00     0.189 HD
BRANCH  10  12
HETATM   12  N6  UNL     1      25.981  67.330   9.682  1.00  0.00    -0.342 N 
ATOM     13  H62 UNL     1      25.469  67.978   9.083  1.00  0.00     0.176 HD
ATOM     14  H61 UNL     1      25.450  66.804  10.375  1.00  0.00     0.176 HD
ENDBRANCH  10  12
ENDBRANCH   4   8
BRANCH   3  15
HETATM   15  N2  UNL     1      29.871  65.235  10.453  1.00  0.00    -0.318 N 
HETATM   16  C3  UNL     1      29.392  65.459  11.567  1.00  0.00     0.202 C 
HETATM   17  N3  UNL     1      29.116  66.762  12.036  1.00  0.00    -0.066 NA
HETATM   18  N4  UNL     1      29.106  64.350  12.427  1.00  0.00    -0.066 NA
ATOM     19  H2  UNL     1      29.988  64.231  10.323  1.00  0.00     0.169 HD
ENDBRANCH   3  15
BRANCH   6  20
HETATM   20  O2  UNL     1      31.724  67.792   5.944  1.00  0.00    -0.270 OA
ATOM     21  H2  UNL     1      32.066  68.673   6.043  1.00  0.00     0.245 HD
ENDBRANCH   6  20
BRANCH   7  22
HETATM   22  N8  UNL     1      33.388  66.727   7.786  1.00  0.00    -0.232 N 
ATOM     23  H82 UNL     1      34.033  66.429   8.518  1.00  0.00     0.174 HD
ATOM     24  H81 UNL     1      33.759  67.094   6.909  1.00  0.00     0.174 HD
ENDBRANCH   7  22
TORSDOF 5
ENDMDL
MODEL 3
REMARK VINA RESULT: -6.504436454      3.557      6.084
REMARK  5 active torsions:
REMARK  status: ('A' for Active; 'I' for Inactive)
REMARK    1  A    between atoms: C2_3  and  N2_4 
REMARK    2  A    between atoms: C4_9  and  C5_10 
REMARK       I    between atoms: C5_10  and  N5_12 
REMARK    3  A    between atoms: N5_12  and  N6_14 
REMARK    4  A    between atoms: N7_18  and  O2_19 
REMARK    5  A    between atoms: C7_21  and  N8_22 
ROOT
HETATM    1  C1  UNL     1      23.974  64.679  12.150  1.00  0.00     0.177 C 
HETATM    2  N1  UNL     1      25.363  64.491  12.526  1.00  0.00    -0.170 N 
HETATM    3  C2  UNL     1      26.322  64.496  11.569  1.00  0.00     0.142 A 
HETATM    4  C4  UNL     1      27.608  64.334  11.999  1.00  0.00     0.097 A 
HETATM    5  C6  UNL     1      27.886  64.173  13.362  1.00  0.00     0.163 A 
HETATM    6  N7  UNL     1      26.890  64.177  14.242  1.00  0.00    -0.063 N 
HETATM    7  C7  UNL     1      25.631  64.334  13.846  1.00  0.00     0.705 A 
ENDROOT
BRANCH   4   8
HETATM    8  C5  UNL     1      28.741  64.340  11.100  1.00  0.00     0.274 C 
HETATM    9  O1  UNL     1      28.837  63.462  10.221  1.00  0.00    -0.266 OA
HETATM   10  N5  UNL     1      29.747  65.325  11.198  1.00  0.00    -0.272 N 
ATOM     11  H5  UNL     1      29.630  66.025  11.930  1.00  0.00     0.189 HD
BRANCH  10  12
HETATM   12  N6  UNL     1      30.873  65.440  10.405  1.00  0.00    -0.342 N 
ATOM     13  H62 UNL     1      30.749  65.181   9.426  1.00  0.00     0.176 HD
ATOM     14  H61 UNL     1      31.799  65.752  10.699  1.00  0.00     0.176 HD
ENDBRANCH  10  12
ENDBRANCH   4   8
BRANCH   3  15
HETATM   15  N2  UNL     1      25.976  64.624  10.262  1.00  0.00    -0.318 N 
HETATM   16  C3  UNL     1      25.658  63.934   9.292  1.00  0.00     0.202 C 
HETATM   17  N3  UNL     1      25.563  62.527   9.349  1.00  0.00    -0.066 NA
HETATM   18  N4  UNL     1      25.374  64.587   8.048  1.00  0.00    -0.066 NA
ATOM     19  H2  UNL     1      25.981  65.609   9.999  1.00  0.00     0.169 HD
ENDBRANCH   3  15
BRANCH   6  20
HETATM   20  O2  UNL     1      27.225  64.011  15.589  1.00  0.00    -0.270 OA
ATOM     21  H2  UNL     1      26.697  63.406  16.097  1.00  0.00     0.245 HD
ENDBRANCH   6  20
BRANCH   7  22
HETATM   22  N8  UNL     1      24.684  64.335  14.730  1.00  0.00    -0.232 N 
ATOM     23  H82 UNL     1      24.913  64.531  15.704  1.00  0.00     0.174 HD
ATOM     24  H81 UNL     1      23.716  64.145  14.470  1.00  0.00     0.174 HD
ENDBRANCH   7  22
TORSDOF 5
ENDMDL
MODEL 4
REMARK VINA RESULT: -6.281962296      3.042      5.750
REMARK  5 active torsions:
REMARK  status: ('A' for Active; 'I' for Inactive)
REMARK    1  A    between atoms: C2_3  and  N2_4 
REMARK    2  A    between atoms: C4_9  and  C5_10 
REMARK       I    between atoms: C5_10  and  N5_12 
REMARK    3  A    between atoms: N5_12  and  N6_14 
REMARK    4  A    between atoms: N7_18  and  O2_19 
REMARK    5  A    between atoms: C7_21  and  N8_22 
ROOT
HETATM    1  C1  UNL     1      25.222  63.597  13.249  1.00  0.00     0.177 C 
HETATM    2  N1  UNL     1      26.542  64.177  13.096  1.00  0.00    -0.170 N 
HETATM    3  C2  UNL     1      27.064  64.335  11.855  1.00  0.00     0.142 A 
HETATM    4  C4  UNL     1      28.303  64.907  11.786  1.00  0.00     0.097 A 
HETATM    5  C6  UNL     1      28.971  65.295  12.954  1.00  0.00     0.163 A 
HETATM    6  N7  UNL     1      28.394  65.105  14.137  1.00  0.00    -0.063 N 
HETATM    7  C7  UNL     1      27.189  64.552  14.226  1.00  0.00     0.705 A 
ENDROOT
BRANCH   4   8
HETATM    8  C5  UNL     1      28.979  65.160  10.534  1.00  0.00     0.274 C 
HETATM    9  O1  UNL     1      28.316  65.455   9.521  1.00  0.00    -0.266 OA
HETATM   10  N5  UNL     1      30.385  65.080  10.434  1.00  0.00    -0.272 N 
ATOM     11  H5  UNL     1      30.890  64.836  11.285  1.00  0.00     0.189 HD
BRANCH  10  12
HETATM   12  N6  UNL     1      31.148  65.297   9.302  1.00  0.00    -0.342 N 
ATOM     13  H62 UNL     1      31.990  64.726   9.224  1.00  0.00     0.176 HD
ATOM     14  H61 UNL     1      30.953  65.960   8.551  1.00  0.00     0.176 HD
ENDBRANCH  10  12
ENDBRANCH   4   8
BRANCH   3  15
HETATM   15  N2  UNL     1      26.373  63.904  10.768  1.00  0.00    -0.318 N 
HETATM   16  C3  UNL     1      26.256  62.910  10.050  1.00  0.00     0.202 C 
HETATM   17  N3  UNL     1      26.995  61.724  10.254  1.00  0.00    -0.066 NA
HETATM   18  N4  UNL     1      25.333  62.958   8.955  1.00  0.00    -0.066 NA
ATOM     19  H2  UNL     1      25.748  64.641  10.442  1.00  0.00     0.169 HD
ENDBRANCH   3  15
BRANCH   6  20
HETATM   20  O2  UNL     1      29.107  65.511  15.268  1.00  0.00    -0.270 OA
ATOM     21  H2  UNL     1      28.845  65.141  16.103  1.00  0.00     0.245 HD
ENDBRANCH   6  20
BRANCH   7  22
HETATM   22  N8  UNL     1      26.656  64.384  15.395  1.00  0.00    -0.232 N 
ATOM     23  H82 UNL     1      25.851  63.764  15.490  1.00  0.00     0.174 HD
ATOM     24  H81 UNL     1      27.025  64.857  16.219  1.00  0.00     0.174 HD
ENDBRANCH   7  22
TORSDOF 5
ENDMDL
MODEL 5
REMARK VINA RESULT: -6.059522105      3.526      5.128
REMARK  5 active torsions:
REMARK  status: ('A' for Active; 'I' for Inactive)
REMARK    1  A    between atoms: C2_3  and  N2_4 
REMARK    2  A    between atoms: C4_9  and  C5_10 
REMARK       I    between atoms: C5_10  and  N5_12 
REMARK    3  A    between atoms: N5_12  and  N6_14 
REMARK    4  A    between atoms: N7_18  and  O2_19 
REMARK    5  A    between atoms: C7_21  and  N8_22 
ROOT
HETATM    1  C1  UNL     1      27.829  65.865   9.512  1.00  0.00     0.177 C 
HETATM    2  N1  UNL     1      27.634  65.161  10.765  1.00  0.00    -0.170 N 
HETATM    3  C2  UNL     1      26.389  64.762  11.122  1.00  0.00     0.142 A 
HETATM    4  C4  UNL     1      26.285  64.086  12.304  1.00  0.00     0.097 A 
HETATM    5  C6  UNL     1      27.422  63.837  13.082  1.00  0.00     0.163 A 
HETATM    6  N7  UNL     1      28.611  64.261  12.665  1.00  0.00    -0.063 N 
HETATM    7  C7  UNL     1      28.735  64.919  11.517  1.00  0.00     0.705 A 
ENDROOT
BRANCH   4   8
HETATM    8  C5  UNL     1      25.028  63.579  12.808  1.00  0.00     0.274 C 
HETATM    9  O1  UNL     1      24.370  62.768  12.128  1.00  0.00    -0.266 OA
HETATM   10  N5  UNL     1      24.526  63.987  14.063  1.00  0.00    -0.272 N 
ATOM     11  H5  UNL     1      25.094  64.651  14.588  1.00  0.00     0.189 HD
BRANCH  10  12
HETATM   12  N6  UNL     1      23.344  63.579  14.654  1.00  0.00    -0.342 N 
ATOM     13  H62 UNL     1      23.186  63.923  15.601  1.00  0.00     0.176 HD
ATOM     14  H61 UNL     1      22.630  62.979  14.241  1.00  0.00     0.176 HD
ENDBRANCH  10  12
ENDBRANCH   4   8
BRANCH   3  15
HETATM   15  N2  UNL     1      25.326  65.068  10.334  1.00  0.00    -0.318 N 
HETATM   16  C3  UNL     1      24.740  64.661   9.329  1.00  0.00     0.202 C 
HETATM   17  N3  UNL     1      25.148  63.515   8.614  1.00  0.00    -0.066 NA
HETATM   18  N4  UNL     1      23.595  65.384   8.862  1.00  0.00    -0.066 NA
ATOM     19  H2  UNL     1      24.864  65.906  10.689  1.00  0.00     0.169 HD
ENDBRANCH   3  15
BRANCH   6  20
HETATM   20  O2  UNL     1      29.711  63.985  13.481  1.00  0.00    -0.270 OA
ATOM     21  H2  UNL     1      29.535  63.751  14.385  1.00  0.00     0.245 HD
ENDBRANCH   6  20
BRANCH   7  22
HETATM   22  N8  UNL     1      29.909  65.317  11.140  1.00  0.00    -0.232 N 
ATOM     23  H82 UNL     1      30.440  64.748  10.481  1.00  0.00     0.174 HD
ATOM     24  H81 UNL     1      30.310  66.188  11.488  1.00  0.00     0.174 HD
ENDBRANCH   7  22
TORSDOF 5
ENDMDL
