MODEL 1
REMARK VINA RESULT: -5.614253782      0.000      0.000
REMARK  1 active torsions:
REMARK  status: ('A' for Active; 'I' for Inactive)
REMARK    1  A    between atoms: C8_13  and  O2_14 
ROOT
HETATM    1  N1  UNL     1     110.654   8.080  48.170  1.00  0.00    -0.195 NA
HETATM    2  C1  UNL     1     111.641   8.036  48.780  1.00  0.00     0.095 C 
HETATM    3  C2  UNL     1     112.894   7.983  49.543  1.00  0.00     0.323 C 
HETATM    4  N2  UNL     1     113.272   9.388  49.775  1.00  0.00    -0.049 N 
ATOM      5  H21 UNL     1     113.998   9.544  50.474  1.00  0.00     0.279 HD
ATOM      6  H22 UNL     1     112.577   9.963  50.250  1.00  0.00     0.279 HD
HETATM    7  C3  UNL     1     113.603   9.783  48.426  1.00  0.00     0.219 C 
HETATM    8  C4  UNL     1     114.275  11.109  48.328  1.00  0.00     0.038 C 
HETATM    9  C5  UNL     1     115.464  10.934  47.370  1.00  0.00     0.028 C 
HETATM   10  C6  UNL     1     115.084   9.983  46.270  1.00  0.00     0.168 C 
HETATM   11  O1  UNL     1     114.765   8.721  46.701  1.00  0.00    -0.381 OA
HETATM   12  C7  UNL     1     114.626   8.718  48.058  1.00  0.00     0.183 C 
HETATM   13  C8  UNL     1     114.020   7.485  48.639  1.00  0.00     0.193 C 
ENDROOT
BRANCH  13  14
HETATM   14  O2  UNL     1     113.595   6.564  47.718  1.00  0.00    -0.390 OA
ATOM     15  H2  UNL     1     114.028   5.724  47.810  1.00  0.00     0.210 HD
ENDBRANCH  13  14
TORSDOF 1
ENDMDL
MODEL 2
REMARK VINA RESULT: -5.484147351      1.998      2.621
REMARK  1 active torsions:
REMARK  status: ('A' for Active; 'I' for Inactive)
REMARK    1  A    between atoms: C8_13  and  O2_14 
ROOT
HETATM    1  N1  UNL     1     111.917   8.405  47.913  1.00  0.00    -0.195 NA
HETATM    2  C1  UNL     1     112.476   9.412  48.062  1.00  0.00     0.095 C 
HETATM    3  C2  UNL     1     113.192  10.679  48.252  1.00  0.00     0.323 C 
HETATM    4  N2  UNL     1     113.812  10.979  46.949  1.00  0.00    -0.049 N 
ATOM      5  H21 UNL     1     114.166  11.928  46.833  1.00  0.00     0.279 HD
ATOM      6  H22 UNL     1     113.174  11.033  46.155  1.00  0.00     0.279 HD
HETATM    7  C3  UNL     1     114.799   9.927  46.894  1.00  0.00     0.219 C 
HETATM    8  C4  UNL     1     115.791  10.082  45.794  1.00  0.00     0.038 C 
HETATM    9  C5  UNL     1     117.176   9.814  46.404  1.00  0.00     0.028 C 
HETATM   10  C6  UNL     1     117.067   8.724  47.433  1.00  0.00     0.168 C 
HETATM   11  O1  UNL     1     116.247   9.026  48.490  1.00  0.00    -0.381 OA
HETATM   12  C7  UNL     1     115.531  10.152  48.211  1.00  0.00     0.183 C 
HETATM   13  C8  UNL     1     114.408  10.448  49.147  1.00  0.00     0.193 C 
ENDROOT
BRANCH  13  14
HETATM   14  O2  UNL     1     114.191   9.491  50.104  1.00  0.00    -0.390 OA
ATOM     15  H2  UNL     1     113.353   9.591  50.541  1.00  0.00     0.210 HD
ENDBRANCH  13  14
TORSDOF 1
ENDMDL
MODEL 3
REMARK VINA RESULT: -5.434516405      3.620      5.357
REMARK  1 active torsions:
REMARK  status: ('A' for Active; 'I' for Inactive)
REMARK    1  A    between atoms: C8_13  and  O2_14 
ROOT
HETATM    1  N1  UNL     1     112.310   8.145  48.015  1.00  0.00    -0.195 NA
HETATM    2  C1  UNL     1     111.253   8.173  48.494  1.00  0.00     0.095 C 
HETATM    3  C2  UNL     1     109.919   8.199  49.106  1.00  0.00     0.323 C 
HETATM    4  N2  UNL     1     110.108   8.812  50.432  1.00  0.00    -0.049 N 
ATOM      5  H21 UNL     1     109.257   9.111  50.909  1.00  0.00     0.279 HD
ATOM      6  H22 UNL     1     110.533   9.740  50.437  1.00  0.00     0.279 HD
HETATM    7  C3  UNL     1     110.863   7.769  51.085  1.00  0.00     0.219 C 
HETATM    8  C4  UNL     1     111.018   7.959  52.554  1.00  0.00     0.038 C 
HETATM    9  C5  UNL     1     110.716   6.603  53.211  1.00  0.00     0.028 C 
HETATM   10  C6  UNL     1     111.242   5.497  52.339  1.00  0.00     0.168 C 
HETATM   11  O1  UNL     1     110.673   5.442  51.093  1.00  0.00    -0.381 OA
HETATM   12  C7  UNL     1     109.946   6.573  50.867  1.00  0.00     0.183 C 
HETATM   13  C8  UNL     1     109.493   6.776  49.461  1.00  0.00     0.193 C 
ENDROOT
BRANCH  13  14
HETATM   14  O2  UNL     1     109.954   5.844  48.568  1.00  0.00    -0.390 OA
ATOM     15  H2  UNL     1     109.652   6.002  47.682  1.00  0.00     0.210 HD
ENDBRANCH  13  14
TORSDOF 1
ENDMDL
MODEL 4
REMARK VINA RESULT: -5.388187771      2.233      4.503
REMARK  1 active torsions:
REMARK  status: ('A' for Active; 'I' for Inactive)
REMARK    1  A    between atoms: C8_13  and  O2_14 
ROOT
HETATM    1  N1  UNL     1     114.857   7.556  49.254  1.00  0.00    -0.195 NA
HETATM    2  C1  UNL     1     113.967   8.266  49.026  1.00  0.00     0.095 C 
HETATM    3  C2  UNL     1     112.836   9.156  48.739  1.00  0.00     0.323 C 
HETATM    4  N2  UNL     1     112.384   9.651  50.051  1.00  0.00    -0.049 N 
ATOM      5  H21 UNL     1     111.749  10.449  50.031  1.00  0.00     0.279 HD
ATOM      6  H22 UNL     1     113.090  10.124  50.616  1.00  0.00     0.279 HD
HETATM    7  C3  UNL     1     111.846   8.431  50.606  1.00  0.00     0.219 C 
HETATM    8  C4  UNL     1     111.066   8.626  51.860  1.00  0.00     0.038 C 
HETATM    9  C5  UNL     1     109.776   7.804  51.713  1.00  0.00     0.028 C 
HETATM   10  C6  UNL     1     110.078   6.529  50.975  1.00  0.00     0.168 C 
HETATM   11  O1  UNL     1     110.549   6.714  49.701  1.00  0.00    -0.381 OA
HETATM   12  C7  UNL     1     110.868   8.026  49.512  1.00  0.00     0.183 C 
HETATM   13  C8  UNL     1     111.641   8.328  48.272  1.00  0.00     0.193 C 
ENDROOT
BRANCH  13  14
HETATM   14  O2  UNL     1     112.009   7.228  47.542  1.00  0.00    -0.390 OA
ATOM     15  H2  UNL     1     112.940   7.202  47.358  1.00  0.00     0.210 HD
ENDBRANCH  13  14
TORSDOF 1
ENDMDL
MODEL 5
REMARK VINA RESULT: -5.320484235      2.179      3.011
REMARK  1 active torsions:
REMARK  status: ('A' for Active; 'I' for Inactive)
REMARK    1  A    between atoms: C8_13  and  O2_14 
ROOT
HETATM    1  N1  UNL     1     115.970   6.039  49.819  1.00  0.00    -0.195 NA
HETATM    2  C1  UNL     1     115.181   6.263  48.998  1.00  0.00     0.095 C 
HETATM    3  C2  UNL     1     114.180   6.554  47.965  1.00  0.00     0.323 C 
HETATM    4  N2  UNL     1     114.789   7.587  47.109  1.00  0.00    -0.049 N 
ATOM      5  H21 UNL     1     114.327   7.753  46.215  1.00  0.00     0.279 HD
ATOM      6  H22 UNL     1     115.688   7.347  46.692  1.00  0.00     0.279 HD
HETATM    7  C3  UNL     1     114.798   8.700  48.029  1.00  0.00     0.219 C 
HETATM    8  C4  UNL     1     115.133  10.007  47.398  1.00  0.00     0.038 C 
HETATM    9  C5  UNL     1     114.115  11.030  47.928  1.00  0.00     0.028 C 
HETATM   10  C6  UNL     1     113.804  10.725  49.367  1.00  0.00     0.168 C 
HETATM   11  O1  UNL     1     113.237   9.494  49.573  1.00  0.00    -0.381 OA
HETATM   12  C7  UNL     1     113.332   8.746  48.438  1.00  0.00     0.183 C 
HETATM   13  C8  UNL     1     113.003   7.299  48.591  1.00  0.00     0.193 C 
ENDROOT
BRANCH  13  14
HETATM   14  O2  UNL     1     112.745   6.902  49.876  1.00  0.00    -0.390 OA
ATOM     15  H2  UNL     1     113.245   7.390  50.520  1.00  0.00     0.210 HD
ENDBRANCH  13  14
TORSDOF 1
ENDMDL
