MODEL 1
REMARK VINA RESULT: -8.667859958      0.000      0.000
REMARK  9 active torsions:
REMARK  status: ('A' for Active; 'I' for Inactive)
REMARK    1  A    between atoms: C2_2  and  O1_3 
REMARK    2  A    between atoms: O1_3  and  C3_4 
REMARK    3  A    between atoms: C3_4  and  C4_6 
REMARK    4  A    between atoms: C6_8  and  N1_9 
REMARK    5  A    between atoms: N1_9  and  O3_11 
REMARK    6  A    between atoms: C10_17  and  C11_18 
REMARK    7  A    between atoms: C12_19  and  C13_20 
REMARK    8  A    between atoms: C13_20  and  O4_21 
REMARK    9  A    between atoms: N3_23  and  O5_25 
ROOT
HETATM    1  C4  UNL     1      -0.586   7.384  25.230  1.00  0.00     0.076 A 
HETATM    2  C5  UNL     1      -1.680   6.653  24.856  1.00  0.00     0.054 A 
HETATM    3  C6  UNL     1      -1.967   5.378  25.295  1.00  0.00     0.080 A 
HETATM    4  C7  UNL     1      -1.078   4.806  26.177  1.00  0.00     0.088 A 
HETATM    5  N2  UNL     1      -1.310   3.494  26.671  1.00  0.00    -0.099 NA
HETATM    6  C8  UNL     1       0.035   5.508  26.579  1.00  0.00     0.028 A 
HETATM    7  C9  UNL     1       1.102   5.219  27.440  1.00  0.00     0.053 A 
HETATM    8  C10 UNL     1       1.951   6.283  27.483  1.00  0.00     0.077 A 
HETATM    9  O6  UNL     1       1.388   7.197  26.650  1.00  0.00    -0.309 OA
HETATM   10  C14 UNL     1       0.296   6.766  26.130  1.00  0.00     0.104 A 
ENDROOT
BRANCH   8  11
HETATM   11  C11 UNL     1       3.189   6.561  28.178  1.00  0.00     0.041 C 
HETATM   12  C12 UNL     1       4.098   7.442  28.117  1.00  0.00     0.060 C 
BRANCH  12  13
HETATM   13  C13 UNL     1       4.409   8.615  27.361  1.00  0.00     0.159 C 
HETATM   14  N3  UNL     1       3.437   9.266  26.714  1.00  0.00    -0.248 N 
ATOM     15  H3  UNL     1       2.480   8.917  26.768  1.00  0.00     0.196 HD
BRANCH  13  16
HETATM   16  O4  UNL     1       5.666   9.144  27.238  1.00  0.00    -0.345 OA
ATOM     17  H4  UNL     1       5.848  10.036  26.966  1.00  0.00     0.219 HD
ENDBRANCH  13  16
BRANCH  14  18
HETATM   18  O5  UNL     1       3.698  10.385  25.985  1.00  0.00    -0.288 OA
ATOM     19  H5  UNL     1       3.924  10.332  25.064  1.00  0.00     0.244 HD
ENDBRANCH  14  18
ENDBRANCH  12  13
ENDBRANCH   8  11
BRANCH   1  20
HETATM   20  C3  UNL     1      -0.282   8.726  24.769  1.00  0.00     0.296 C 
HETATM   21  O2  UNL     1       0.846   9.226  25.003  1.00  0.00    -0.259 OA
BRANCH  20  22
HETATM   22  O1  UNL     1      -1.183   9.499  24.073  1.00  0.00    -0.318 OA
BRANCH  22  23
HETATM   23  C2  UNL     1      -0.873  10.186  22.873  1.00  0.00     0.174 C 
HETATM   24  C1  UNL     1      -1.320   9.276  21.733  1.00  0.00     0.034 C 
ENDBRANCH  22  23
ENDBRANCH  20  22
ENDBRANCH   1  20
BRANCH   3  25
HETATM   25  N1  UNL     1      -3.143   4.681  24.850  1.00  0.00    -0.267 N 
ATOM     26  H1  UNL     1      -4.088   4.988  25.081  1.00  0.00     0.194 HD
BRANCH  25  27
HETATM   27  O3  UNL     1      -2.909   3.655  24.147  1.00  0.00    -0.289 OA
ATOM     28  H3  UNL     1      -2.712   2.872  24.649  1.00  0.00     0.244 HD
ENDBRANCH  25  27
ENDBRANCH   3  25
TORSDOF 9
ENDMDL
MODEL 2
REMARK VINA RESULT: -8.381768458      3.423      8.011
REMARK  9 active torsions:
REMARK  status: ('A' for Active; 'I' for Inactive)
REMARK    1  A    between atoms: C2_2  and  O1_3 
REMARK    2  A    between atoms: O1_3  and  C3_4 
REMARK    3  A    between atoms: C3_4  and  C4_6 
REMARK    4  A    between atoms: C6_8  and  N1_9 
REMARK    5  A    between atoms: N1_9  and  O3_11 
REMARK    6  A    between atoms: C10_17  and  C11_18 
REMARK    7  A    between atoms: C12_19  and  C13_20 
REMARK    8  A    between atoms: C13_20  and  O4_21 
REMARK    9  A    between atoms: N3_23  and  O5_25 
ROOT
HETATM    1  C4  UNL     1      -1.066   7.915  24.526  1.00  0.00     0.076 A 
HETATM    2  C5  UNL     1       0.086   8.498  24.977  1.00  0.00     0.054 A 
HETATM    3  C6  UNL     1       0.544   9.742  24.600  1.00  0.00     0.080 A 
HETATM    4  C7  UNL     1      -0.225  10.445  23.699  1.00  0.00     0.088 A 
HETATM    5  N2  UNL     1       0.185  11.734  23.266  1.00  0.00    -0.099 NA
HETATM    6  C8  UNL     1      -1.393   9.894  23.221  1.00  0.00     0.028 A 
HETATM    7  C9  UNL     1      -2.372  10.336  22.323  1.00  0.00     0.053 A 
HETATM    8  C10 UNL     1      -3.338   9.383  22.200  1.00  0.00     0.077 A 
HETATM    9  O6  UNL     1      -2.929   8.382  23.022  1.00  0.00    -0.309 OA
HETATM   10  C14 UNL     1      -1.822   8.663  23.609  1.00  0.00     0.104 A 
ENDROOT
BRANCH   8  11
HETATM   11  C11 UNL     1      -4.563   9.278  21.437  1.00  0.00     0.041 C 
HETATM   12  C12 UNL     1      -4.877   9.022  20.237  1.00  0.00     0.060 C 
BRANCH  12  13
HETATM   13  C13 UNL     1      -4.233   8.706  19.000  1.00  0.00     0.159 C 
HETATM   14  N3  UNL     1      -4.475   7.533  18.406  1.00  0.00    -0.248 N 
ATOM     15  H3  UNL     1      -5.120   6.875  18.844  1.00  0.00     0.196 HD
BRANCH  13  16
HETATM   16  O4  UNL     1      -3.355   9.533  18.352  1.00  0.00    -0.345 OA
ATOM     17  H4  UNL     1      -3.588  10.377  17.981  1.00  0.00     0.219 HD
ENDBRANCH  13  16
BRANCH  14  18
HETATM   18  O5  UNL     1      -3.879   7.200  17.229  1.00  0.00    -0.288 OA
ATOM     19  H5  UNL     1      -3.686   7.856  16.570  1.00  0.00     0.244 HD
ENDBRANCH  14  18
ENDBRANCH  12  13
ENDBRANCH   8  11
BRANCH   1  20
HETATM   20  C3  UNL     1      -1.549   6.605  24.921  1.00  0.00     0.296 C 
HETATM   21  O2  UNL     1      -2.773   6.432  25.143  1.00  0.00    -0.259 OA
BRANCH  20  22
HETATM   22  O1  UNL     1      -0.720   5.517  25.070  1.00  0.00    -0.318 OA
BRANCH  22  23
HETATM   23  C2  UNL     1      -0.501   4.855  26.302  1.00  0.00     0.174 C 
HETATM   24  C1  UNL     1      -1.209   3.508  26.196  1.00  0.00     0.034 C 
ENDBRANCH  22  23
ENDBRANCH  20  22
ENDBRANCH   1  20
BRANCH   3  25
HETATM   25  N1  UNL     1       1.770  10.279  25.126  1.00  0.00    -0.267 N 
ATOM     26  H1  UNL     1       1.882  10.544  26.105  1.00  0.00     0.194 HD
BRANCH  25  27
HETATM   27  O3  UNL     1       2.698  10.397  24.274  1.00  0.00    -0.289 OA
ATOM     28  H3  UNL     1       2.977   9.578  23.881  1.00  0.00     0.244 HD
ENDBRANCH  25  27
ENDBRANCH   3  25
TORSDOF 9
ENDMDL
MODEL 3
REMARK VINA RESULT: -8.264281960      3.073      7.449
REMARK  9 active torsions:
REMARK  status: ('A' for Active; 'I' for Inactive)
REMARK    1  A    between atoms: C2_2  and  O1_3 
REMARK    2  A    between atoms: O1_3  and  C3_4 
REMARK    3  A    between atoms: C3_4  and  C4_6 
REMARK    4  A    between atoms: C6_8  and  N1_9 
REMARK    5  A    between atoms: N1_9  and  O3_11 
REMARK    6  A    between atoms: C10_17  and  C11_18 
REMARK    7  A    between atoms: C12_19  and  C13_20 
REMARK    8  A    between atoms: C13_20  and  O4_21 
REMARK    9  A    between atoms: N3_23  and  O5_25 
ROOT
HETATM    1  C4  UNL     1       0.016   7.729  25.087  1.00  0.00     0.076 A 
HETATM    2  C5  UNL     1       1.196   8.325  25.438  1.00  0.00     0.054 A 
HETATM    3  C6  UNL     1       1.606   9.573  25.019  1.00  0.00     0.080 A 
HETATM    4  C7  UNL     1       0.755  10.264  24.185  1.00  0.00     0.088 A 
HETATM    5  N2  UNL     1       1.113  11.556  23.714  1.00  0.00    -0.099 NA
HETATM    6  C8  UNL     1      -0.442   9.699  23.809  1.00  0.00     0.028 A 
HETATM    7  C9  UNL     1      -1.499  10.127  22.996  1.00  0.00     0.053 A 
HETATM    8  C10 UNL     1      -2.461   9.163  22.958  1.00  0.00     0.077 A 
HETATM    9  O6  UNL     1      -1.973   8.170  23.746  1.00  0.00    -0.309 OA
HETATM   10  C14 UNL     1      -0.823   8.465  24.236  1.00  0.00     0.104 A 
ENDROOT
BRANCH   8  11
HETATM   11  C11 UNL     1      -3.745   9.041  22.303  1.00  0.00     0.041 C 
HETATM   12  C12 UNL     1      -4.162   8.970  21.108  1.00  0.00     0.060 C 
BRANCH  12  13
HETATM   13  C13 UNL     1      -3.630   8.969  19.781  1.00  0.00     0.159 C 
HETATM   14  N3  UNL     1      -4.204   8.217  18.836  1.00  0.00    -0.248 N 
ATOM     15  H3  UNL     1      -5.019   7.651  19.074  1.00  0.00     0.196 HD
BRANCH  13  16
HETATM   16  O4  UNL     1      -2.542   9.699  19.384  1.00  0.00    -0.345 OA
ATOM     17  H4  UNL     1      -2.553  10.340  18.683  1.00  0.00     0.219 HD
ENDBRANCH  13  16
BRANCH  14  18
HETATM   18  O5  UNL     1      -3.724   8.193  17.563  1.00  0.00    -0.288 OA
ATOM     19  H5  UNL     1      -3.960   8.863  16.933  1.00  0.00     0.244 HD
ENDBRANCH  14  18
ENDBRANCH  12  13
ENDBRANCH   8  11
BRANCH   1  20
HETATM   20  C3  UNL     1      -0.418   6.415  25.526  1.00  0.00     0.296 C 
HETATM   21  O2  UNL     1      -0.020   5.963  26.628  1.00  0.00    -0.259 OA
BRANCH  20  22
HETATM   22  O1  UNL     1      -1.259   5.619  24.783  1.00  0.00    -0.318 OA
BRANCH  22  23
HETATM   23  C2  UNL     1      -2.241   4.767  25.346  1.00  0.00     0.174 C 
HETATM   24  C1  UNL     1      -3.439   5.653  25.672  1.00  0.00     0.034 C 
ENDBRANCH  22  23
ENDBRANCH  20  22
ENDBRANCH   1  20
BRANCH   3  25
HETATM   25  N1  UNL     1       2.866  10.125  25.438  1.00  0.00    -0.267 N 
ATOM     26  H1  UNL     1       3.341  10.869  24.925  1.00  0.00     0.194 HD
BRANCH  25  27
HETATM   27  O3  UNL     1       3.338   9.611  26.494  1.00  0.00    -0.289 OA
ATOM     28  H3  UNL     1       3.415  10.215  27.224  1.00  0.00     0.244 HD
ENDBRANCH  25  27
ENDBRANCH   3  25
TORSDOF 9
ENDMDL
MODEL 4
REMARK VINA RESULT: -8.245530962      2.979      7.618
REMARK  9 active torsions:
REMARK  status: ('A' for Active; 'I' for Inactive)
REMARK    1  A    between atoms: C2_2  and  O1_3 
REMARK    2  A    between atoms: O1_3  and  C3_4 
REMARK    3  A    between atoms: C3_4  and  C4_6 
REMARK    4  A    between atoms: C6_8  and  N1_9 
REMARK    5  A    between atoms: N1_9  and  O3_11 
REMARK    6  A    between atoms: C10_17  and  C11_18 
REMARK    7  A    between atoms: C12_19  and  C13_20 
REMARK    8  A    between atoms: C13_20  and  O4_21 
REMARK    9  A    between atoms: N3_23  and  O5_25 
ROOT
HETATM    1  C4  UNL     1       0.283   7.937  25.055  1.00  0.00     0.076 A 
HETATM    2  C5  UNL     1       1.440   8.592  25.376  1.00  0.00     0.054 A 
HETATM    3  C6  UNL     1       1.776   9.858  24.949  1.00  0.00     0.080 A 
HETATM    4  C7  UNL     1       0.871  10.505  24.137  1.00  0.00     0.088 A 
HETATM    5  N2  UNL     1       1.152  11.814  23.659  1.00  0.00    -0.099 NA
HETATM    6  C8  UNL     1      -0.305   9.881  23.791  1.00  0.00     0.028 A 
HETATM    7  C9  UNL     1      -1.403  10.255  23.005  1.00  0.00     0.053 A 
HETATM    8  C10 UNL     1      -2.316   9.244  22.991  1.00  0.00     0.077 A 
HETATM    9  O6  UNL     1      -1.759   8.277  23.765  1.00  0.00    -0.309 OA
HETATM   10  C14 UNL     1      -0.614   8.629  24.226  1.00  0.00     0.104 A 
ENDROOT
BRANCH   8  11
HETATM   11  C11 UNL     1      -3.609   9.058  22.368  1.00  0.00     0.041 C 
HETATM   12  C12 UNL     1      -4.052   8.964  21.185  1.00  0.00     0.060 C 
BRANCH  12  13
HETATM   13  C13 UNL     1      -3.554   8.988  19.845  1.00  0.00     0.159 C 
HETATM   14  N3  UNL     1      -4.146   8.246  18.903  1.00  0.00    -0.248 N 
ATOM     15  H3  UNL     1      -4.950   7.669  19.153  1.00  0.00     0.196 HD
BRANCH  13  16
HETATM   16  O4  UNL     1      -2.482   9.733  19.431  1.00  0.00    -0.345 OA
ATOM     17  H4  UNL     1      -2.090   9.674  18.568  1.00  0.00     0.219 HD
ENDBRANCH  13  16
BRANCH  14  18
HETATM   18  O5  UNL     1      -3.699   8.245  17.618  1.00  0.00    -0.288 OA
ATOM     19  H5  UNL     1      -2.855   7.872  17.389  1.00  0.00     0.244 HD
ENDBRANCH  14  18
ENDBRANCH  12  13
ENDBRANCH   8  11
BRANCH   1  20
HETATM   20  C3  UNL     1      -0.073   6.603  25.504  1.00  0.00     0.296 C 
HETATM   21  O2  UNL     1      -0.420   5.735  24.666  1.00  0.00    -0.259 OA
BRANCH  20  22
HETATM   22  O1  UNL     1      -0.050   6.229  26.828  1.00  0.00    -0.318 OA
BRANCH  22  23
HETATM   23  C2  UNL     1       0.720   5.152  27.331  1.00  0.00     0.174 C 
HETATM   24  C1  UNL     1       1.823   5.775  28.180  1.00  0.00     0.034 C 
ENDBRANCH  22  23
ENDBRANCH  20  22
ENDBRANCH   1  20
BRANCH   3  25
HETATM   25  N1  UNL     1       3.017  10.473  25.336  1.00  0.00    -0.267 N 
ATOM     26  H1  UNL     1       3.458  11.216  24.793  1.00  0.00     0.194 HD
BRANCH  25  27
HETATM   27  O3  UNL     1       3.517  10.016  26.405  1.00  0.00    -0.289 OA
ATOM     28  H3  UNL     1       4.268   9.447  26.276  1.00  0.00     0.244 HD
ENDBRANCH  25  27
ENDBRANCH   3  25
TORSDOF 9
ENDMDL
MODEL 5
REMARK VINA RESULT: -8.207141933      3.603      8.001
REMARK  9 active torsions:
REMARK  status: ('A' for Active; 'I' for Inactive)
REMARK    1  A    between atoms: C2_2  and  O1_3 
REMARK    2  A    between atoms: O1_3  and  C3_4 
REMARK    3  A    between atoms: C3_4  and  C4_6 
REMARK    4  A    between atoms: C6_8  and  N1_9 
REMARK    5  A    between atoms: N1_9  and  O3_11 
REMARK    6  A    between atoms: C10_17  and  C11_18 
REMARK    7  A    between atoms: C12_19  and  C13_20 
REMARK    8  A    between atoms: C13_20  and  O4_21 
REMARK    9  A    between atoms: N3_23  and  O5_25 
ROOT
HETATM    1  C4  UNL     1      -0.974   7.910  24.587  1.00  0.00     0.076 A 
HETATM    2  C5  UNL     1       0.175   8.516  25.012  1.00  0.00     0.054 A 
HETATM    3  C6  UNL     1       0.617   9.754  24.596  1.00  0.00     0.080 A 
HETATM    4  C7  UNL     1      -0.167  10.423  23.682  1.00  0.00     0.088 A 
HETATM    5  N2  UNL     1       0.227  11.704  23.209  1.00  0.00    -0.099 NA
HETATM    6  C8  UNL     1      -1.332   9.848  23.230  1.00  0.00     0.028 A 
HETATM    7  C9  UNL     1      -2.324  10.254  22.328  1.00  0.00     0.053 A 
HETATM    8  C10 UNL     1      -3.280   9.288  22.239  1.00  0.00     0.077 A 
HETATM    9  O6  UNL     1      -2.854   8.315  23.087  1.00  0.00    -0.309 OA
HETATM   10  C14 UNL     1      -1.746   8.624  23.656  1.00  0.00     0.104 A 
ENDROOT
BRANCH   8  11
HETATM   11  C11 UNL     1      -4.510   9.149  21.491  1.00  0.00     0.041 C 
HETATM   12  C12 UNL     1      -4.905   9.416  20.317  1.00  0.00     0.060 C 
BRANCH  12  13
HETATM   13  C13 UNL     1      -4.386   9.983  19.111  1.00  0.00     0.159 C 
HETATM   14  N3  UNL     1      -4.727  11.228  18.762  1.00  0.00    -0.248 N 
ATOM     15  H3  UNL     1      -5.355  11.761  19.363  1.00  0.00     0.196 HD
BRANCH  13  16
HETATM   16  O4  UNL     1      -3.541   9.333  18.252  1.00  0.00    -0.345 OA
ATOM     17  H4  UNL     1      -2.761   8.862  18.521  1.00  0.00     0.219 HD
ENDBRANCH  13  16
BRANCH  14  18
HETATM   18  O5  UNL     1      -4.253  11.798  17.621  1.00  0.00    -0.288 OA
ATOM     19  H5  UNL     1      -3.968  11.269  16.886  1.00  0.00     0.244 HD
ENDBRANCH  14  18
ENDBRANCH  12  13
ENDBRANCH   8  11
BRANCH   1  20
HETATM   20  C3  UNL     1      -1.441   6.606  25.023  1.00  0.00     0.296 C 
HETATM   21  O2  UNL     1      -2.667   6.413  25.208  1.00  0.00    -0.259 OA
BRANCH  20  22
HETATM   22  O1  UNL     1      -0.592   5.548  25.252  1.00  0.00    -0.318 OA
BRANCH  22  23
HETATM   23  C2  UNL     1      -0.527   4.839  26.476  1.00  0.00     0.174 C 
HETATM   24  C1  UNL     1      -1.052   3.436  26.187  1.00  0.00     0.034 C 
ENDBRANCH  22  23
ENDBRANCH  20  22
ENDBRANCH   1  20
BRANCH   3  25
HETATM   25  N1  UNL     1       1.841  10.318  25.096  1.00  0.00    -0.267 N 
ATOM     26  H1  UNL     1       1.989  10.532  26.083  1.00  0.00     0.194 HD
BRANCH  25  27
HETATM   27  O3  UNL     1       2.721  10.528  24.211  1.00  0.00    -0.289 OA
ATOM     28  H3  UNL     1       3.544  10.076  24.359  1.00  0.00     0.244 HD
ENDBRANCH  25  27
ENDBRANCH   3  25
TORSDOF 9
ENDMDL
