MODEL 1
REMARK VINA RESULT: -8.238769634      0.000      0.000
REMARK  4 active torsions:
REMARK  status: ('A' for Active; 'I' for Inactive)
REMARK    1  A    between atoms: C9_13  and  S1_14 
REMARK    2  A    between atoms: S1_14  and  C10_15 
REMARK    3  A    between atoms: C10_15  and  C12_18 
REMARK    4  A    between atoms: C12_18  and  S2_20 
ROOT
HETATM    1  C1  UNL     1      15.322  -7.254  11.544  1.00  0.00     0.051 C 
HETATM    2  C2  UNL     1      14.052  -8.053  11.488  1.00  0.00    -0.021 A 
HETATM    3  C3  UNL     1      13.568  -8.687  12.596  1.00  0.00     0.074 A 
HETATM    4  C4  UNL     1      14.327  -8.556  13.837  1.00  0.00     0.101 C 
HETATM    5  N1  UNL     1      14.944  -8.463  14.811  1.00  0.00    -0.191 NA
HETATM    6  C5  UNL     1      12.410  -9.435  12.598  1.00  0.00     0.092 A 
HETATM    7  C6  UNL     1      11.935 -10.088  13.802  1.00  0.00     0.103 C 
HETATM    8  N2  UNL     1      11.550 -10.615  14.738  1.00  0.00    -0.191 NA
HETATM    9  C7  UNL     1      11.683  -9.570  11.445  1.00  0.00     0.094 A 
HETATM   10  N3  UNL     1      10.472 -10.336  11.404  1.00  0.00    -0.099 NA
HETATM   11  C8  UNL     1      12.175  -8.922  10.306  1.00  0.00     0.089 A 
HETATM   12  N4  UNL     1      11.348  -9.096   9.157  1.00  0.00    -0.099 NA
HETATM   13  C9  UNL     1      13.323  -8.174  10.283  1.00  0.00     0.035 A 
ENDROOT
BRANCH  13  14
HETATM   14  S1  UNL     1      14.001  -7.311   8.926  1.00  0.00    -0.107 SA
BRANCH  14  15
HETATM   15  C10 UNL     1      13.308  -5.758   8.467  1.00  0.00     0.173 C 
HETATM   16  C11 UNL     1      12.297  -5.842   7.396  1.00  0.00     0.076 C 
HETATM   17  N5  UNL     1      11.508  -5.920   6.551  1.00  0.00    -0.196 NA
BRANCH  15  18
HETATM   18  C12 UNL     1      14.355  -4.765   7.979  1.00  0.00     0.086 C 
HETATM   19  C13 UNL     1      15.704  -5.210   8.484  1.00  0.00     0.024 C 
BRANCH  18  20
HETATM   20  S2  UNL     1      14.040  -3.081   8.540  1.00  0.00    -0.044 SA
HETATM   21  C14 UNL     1      15.467  -2.057   8.317  1.00  0.00     0.134 C 
HETATM   22  N6  UNL     1      16.403  -1.387   8.191  1.00  0.00    -0.184 NA
ENDBRANCH  18  20
ENDBRANCH  15  18
ENDBRANCH  14  15
ENDBRANCH  13  14
TORSDOF 4
ENDMDL
MODEL 2
REMARK VINA RESULT: -8.107693204      1.046      1.159
REMARK  4 active torsions:
REMARK  status: ('A' for Active; 'I' for Inactive)
REMARK    1  A    between atoms: C9_13  and  S1_14 
REMARK    2  A    between atoms: S1_14  and  C10_15 
REMARK    3  A    between atoms: C10_15  and  C12_18 
REMARK    4  A    between atoms: C12_18  and  S2_20 
ROOT
HETATM    1  C1  UNL     1      15.507  -7.026  11.919  1.00  0.00     0.051 C 
HETATM    2  C2  UNL     1      14.253  -7.817  11.682  1.00  0.00    -0.021 A 
HETATM    3  C3  UNL     1      13.682  -8.552  12.681  1.00  0.00     0.074 A 
HETATM    4  C4  UNL     1      14.332  -8.538  13.988  1.00  0.00     0.101 C 
HETATM    5  N1  UNL     1      14.864  -8.536  15.015  1.00  0.00    -0.191 NA
HETATM    6  C5  UNL     1      12.534  -9.297  12.514  1.00  0.00     0.092 A 
HETATM    7  C6  UNL     1      11.964 -10.060  13.608  1.00  0.00     0.103 C 
HETATM    8  N2  UNL     1      11.505 -10.672  14.455  1.00  0.00    -0.191 NA
HETATM    9  C7  UNL     1      11.908  -9.323  11.297  1.00  0.00     0.094 A 
HETATM   10  N3  UNL     1      10.711 -10.082  11.081  1.00  0.00    -0.099 NA
HETATM   11  C8  UNL     1      12.489  -8.571  10.269  1.00  0.00     0.089 A 
HETATM   12  N4  UNL     1      11.764  -8.637   9.042  1.00  0.00    -0.099 NA
HETATM   13  C9  UNL     1      13.629  -7.824  10.413  1.00  0.00     0.035 A 
ENDROOT
BRANCH  13  14
HETATM   14  S1  UNL     1      14.413  -6.838   9.205  1.00  0.00    -0.107 SA
BRANCH  14  15
HETATM   15  C10 UNL     1      13.665  -5.317   8.726  1.00  0.00     0.173 C 
HETATM   16  C11 UNL     1      13.001  -5.359   7.410  1.00  0.00     0.076 C 
HETATM   17  N5  UNL     1      12.486  -5.404   6.372  1.00  0.00    -0.196 NA
BRANCH  15  18
HETATM   18  C12 UNL     1      14.661  -4.166   8.658  1.00  0.00     0.086 C 
HETATM   19  C13 UNL     1      13.893  -2.884   8.464  1.00  0.00     0.024 C 
BRANCH  18  20
HETATM   20  S2  UNL     1      15.855  -4.350   7.320  1.00  0.00    -0.044 SA
HETATM   21  C14 UNL     1      16.212  -2.789   6.565  1.00  0.00     0.134 C 
HETATM   22  N6  UNL     1      16.436  -1.773   6.055  1.00  0.00    -0.184 NA
ENDBRANCH  18  20
ENDBRANCH  15  18
ENDBRANCH  14  15
ENDBRANCH  13  14
TORSDOF 4
ENDMDL
MODEL 3
REMARK VINA RESULT: -8.091436517      1.939      2.195
REMARK  4 active torsions:
REMARK  status: ('A' for Active; 'I' for Inactive)
REMARK    1  A    between atoms: C9_13  and  S1_14 
REMARK    2  A    between atoms: S1_14  and  C10_15 
REMARK    3  A    between atoms: C10_15  and  C12_18 
REMARK    4  A    between atoms: C12_18  and  S2_20 
ROOT
HETATM    1  C1  UNL     1      15.113  -6.480  12.055  1.00  0.00     0.051 C 
HETATM    2  C2  UNL     1      13.934  -7.345  11.712  1.00  0.00    -0.021 A 
HETATM    3  C3  UNL     1      13.471  -8.286  12.587  1.00  0.00     0.074 A 
HETATM    4  C4  UNL     1      14.159  -8.416  13.868  1.00  0.00     0.101 C 
HETATM    5  N1  UNL     1      14.722  -8.526  14.873  1.00  0.00    -0.191 NA
HETATM    6  C5  UNL     1      12.396  -9.107  12.320  1.00  0.00     0.092 A 
HETATM    7  C6  UNL     1      11.940 -10.089  13.284  1.00  0.00     0.103 C 
HETATM    8  N2  UNL     1      11.571 -10.873  14.027  1.00  0.00    -0.191 NA
HETATM    9  C7  UNL     1      11.736  -9.000  11.125  1.00  0.00     0.094 A 
HETATM   10  N3  UNL     1      10.613  -9.832  10.808  1.00  0.00    -0.099 NA
HETATM   11  C8  UNL     1      12.207  -8.038  10.224  1.00  0.00     0.089 A 
HETATM   12  N4  UNL     1      11.452  -7.979   9.016  1.00  0.00    -0.099 NA
HETATM   13  C9  UNL     1      13.274  -7.212  10.469  1.00  0.00     0.035 A 
ENDROOT
BRANCH  13  14
HETATM   14  S1  UNL     1      13.917  -5.970   9.426  1.00  0.00    -0.107 SA
BRANCH  14  15
HETATM   15  C10 UNL     1      14.190  -6.339   7.725  1.00  0.00     0.173 C 
HETATM   16  C11 UNL     1      15.609  -6.329   7.326  1.00  0.00     0.076 C 
HETATM   17  N5  UNL     1      16.728  -6.314   7.024  1.00  0.00    -0.196 NA
BRANCH  15  18
HETATM   18  C12 UNL     1      13.483  -5.366   6.790  1.00  0.00     0.086 C 
HETATM   19  C13 UNL     1      13.539  -5.925   5.392  1.00  0.00     0.024 C 
BRANCH  18  20
HETATM   20  S2  UNL     1      14.221  -3.722   6.800  1.00  0.00    -0.044 SA
HETATM   21  C14 UNL     1      13.661  -2.762   5.422  1.00  0.00     0.134 C 
HETATM   22  N6  UNL     1      13.313  -2.136   4.512  1.00  0.00    -0.184 NA
ENDBRANCH  18  20
ENDBRANCH  15  18
ENDBRANCH  14  15
ENDBRANCH  13  14
TORSDOF 4
ENDMDL
MODEL 4
REMARK VINA RESULT: -8.059076269      1.593      1.865
REMARK  4 active torsions:
REMARK  status: ('A' for Active; 'I' for Inactive)
REMARK    1  A    between atoms: C9_13  and  S1_14 
REMARK    2  A    between atoms: S1_14  and  C10_15 
REMARK    3  A    between atoms: C10_15  and  C12_18 
REMARK    4  A    between atoms: C12_18  and  S2_20 
ROOT
HETATM    1  C1  UNL     1      15.158  -6.431  12.149  1.00  0.00     0.051 C 
HETATM    2  C2  UNL     1      13.986  -7.285  11.761  1.00  0.00    -0.021 A 
HETATM    3  C3  UNL     1      13.498  -8.241  12.605  1.00  0.00     0.074 A 
HETATM    4  C4  UNL     1      14.154  -8.399  13.899  1.00  0.00     0.101 C 
HETATM    5  N1  UNL     1      14.692  -8.532  14.915  1.00  0.00    -0.191 NA
HETATM    6  C5  UNL     1      12.427  -9.052  12.296  1.00  0.00     0.092 A 
HETATM    7  C6  UNL     1      11.944 -10.051  13.228  1.00  0.00     0.103 C 
HETATM    8  N2  UNL     1      11.554 -10.848  13.946  1.00  0.00    -0.191 NA
HETATM    9  C7  UNL     1      11.796  -8.919  11.087  1.00  0.00     0.094 A 
HETATM   10  N3  UNL     1      10.678  -9.740  10.727  1.00  0.00    -0.099 NA
HETATM   11  C8  UNL     1      12.292  -7.940  10.218  1.00  0.00     0.089 A 
HETATM   12  N4  UNL     1      11.567  -7.854   8.993  1.00  0.00    -0.099 NA
HETATM   13  C9  UNL     1      13.355  -7.123  10.505  1.00  0.00     0.035 A 
ENDROOT
BRANCH  13  14
HETATM   14  S1  UNL     1      14.029  -5.864   9.503  1.00  0.00    -0.107 SA
BRANCH  14  15
HETATM   15  C10 UNL     1      14.244  -6.165   7.781  1.00  0.00     0.173 C 
HETATM   16  C11 UNL     1      15.651  -6.323   7.368  1.00  0.00     0.076 C 
HETATM   17  N5  UNL     1      16.762  -6.441   7.056  1.00  0.00    -0.196 NA
BRANCH  15  18
HETATM   18  C12 UNL     1      13.673  -5.052   6.911  1.00  0.00     0.086 C 
HETATM   19  C13 UNL     1      13.224  -5.653   5.605  1.00  0.00     0.024 C 
BRANCH  18  20
HETATM   20  S2  UNL     1      14.864  -3.739   6.581  1.00  0.00    -0.044 SA
HETATM   21  C14 UNL     1      14.972  -2.618   7.947  1.00  0.00     0.134 C 
HETATM   22  N6  UNL     1      15.034  -1.870   8.829  1.00  0.00    -0.184 NA
ENDBRANCH  18  20
ENDBRANCH  15  18
ENDBRANCH  14  15
ENDBRANCH  13  14
TORSDOF 4
ENDMDL
MODEL 5
REMARK VINA RESULT: -8.052549081      2.246      3.536
REMARK  4 active torsions:
REMARK  status: ('A' for Active; 'I' for Inactive)
REMARK    1  A    between atoms: C9_13  and  S1_14 
REMARK    2  A    between atoms: S1_14  and  C10_15 
REMARK    3  A    between atoms: C10_15  and  C12_18 
REMARK    4  A    between atoms: C12_18  and  S2_20 
ROOT
HETATM    1  C1  UNL     1      13.215  -8.141  12.797  1.00  0.00     0.051 C 
HETATM    2  C2  UNL     1      12.311  -8.446  11.637  1.00  0.00    -0.021 A 
HETATM    3  C3  UNL     1      11.507  -9.549  11.640  1.00  0.00     0.074 A 
HETATM    4  C4  UNL     1      11.555 -10.419  12.811  1.00  0.00     0.101 C 
HETATM    5  N1  UNL     1      11.612 -11.113  13.735  1.00  0.00    -0.191 NA
HETATM    6  C5  UNL     1      10.662  -9.875  10.600  1.00  0.00     0.092 A 
HETATM    7  C6  UNL     1       9.825 -11.058  10.651  1.00  0.00     0.103 C 
HETATM    8  N2  UNL     1       9.164 -11.988  10.671  1.00  0.00    -0.191 NA
HETATM    9  C7  UNL     1      10.601  -9.073   9.492  1.00  0.00     0.094 A 
HETATM   10  N3  UNL     1       9.735  -9.374   8.391  1.00  0.00    -0.099 NA
HETATM   11  C8  UNL     1      11.424  -7.940   9.485  1.00  0.00     0.089 A 
HETATM   12  N4  UNL     1      11.283  -7.150   8.306  1.00  0.00    -0.099 NA
HETATM   13  C9  UNL     1      12.271  -7.597  10.507  1.00  0.00     0.035 A 
ENDROOT
BRANCH  13  14
HETATM   14  S1  UNL     1      13.311  -6.200  10.601  1.00  0.00    -0.107 SA
BRANCH  14  15
HETATM   15  C10 UNL     1      14.928  -6.290   9.908  1.00  0.00     0.173 C 
HETATM   16  C11 UNL     1      15.980  -6.654  10.875  1.00  0.00     0.076 C 
HETATM   17  N5  UNL     1      16.798  -6.936  11.647  1.00  0.00    -0.196 NA
BRANCH  15  18
HETATM   18  C12 UNL     1      15.373  -4.976   9.277  1.00  0.00     0.086 C 
HETATM   19  C13 UNL     1      14.166  -4.087   9.128  1.00  0.00     0.024 C 
BRANCH  18  20
HETATM   20  S2  UNL     1      16.147  -5.200   7.665  1.00  0.00    -0.044 SA
HETATM   21  C14 UNL     1      14.956  -5.686   6.448  1.00  0.00     0.134 C 
HETATM   22  N6  UNL     1      14.186  -6.022   5.651  1.00  0.00    -0.184 NA
ENDBRANCH  18  20
ENDBRANCH  15  18
ENDBRANCH  14  15
ENDBRANCH  13  14
TORSDOF 4
ENDMDL
