MODEL 1
REMARK VINA RESULT: -6.113115516      0.000      0.000
REMARK  17 active torsions:
REMARK  status: ('A' for Active; 'I' for Inactive)
REMARK    1  A    between atoms: N1_1  and  C1_4 
REMARK    2  A    between atoms: C2_7  and  C3_8 
REMARK    3  A    between atoms: C3_8  and  C4_9 
REMARK    4  A    between atoms: N3_11  and  C6_12 
REMARK    5  A    between atoms: C6_12  and  C7_13 
REMARK    6  A    between atoms: C7_13  and  C8_14 
REMARK    7  A    between atoms: C8_14  and  C9_15 
REMARK    8  A    between atoms: C9_15  and  N4_16 
REMARK    9  A    between atoms: N4_16  and  C10_19 
REMARK   10  A    between atoms: C10_19  and  C11_20 
REMARK   11  A    between atoms: C11_20  and  C12_21 
REMARK   12  A    between atoms: C12_21  and  N5_22 
REMARK   13  A    between atoms: N5_22  and  C13_25 
REMARK   14  A    between atoms: C13_25  and  C14_26 
REMARK   15  A    between atoms: C14_26  and  C15_27 
REMARK       I    between atoms: C15_27  and  N6_29 
REMARK   16  A    between atoms: N6_29  and  C16_31 
REMARK   17  A    between atoms: C17_34  and  N8_35 
ROOT
HETATM    1  N4  UNL     1      36.809  24.693  20.618  1.00  0.00    -0.075 N 
ATOM      2  H41 UNL     1      37.119  25.562  21.055  1.00  0.00     0.277 HD
ATOM      3  H42 UNL     1      35.868  24.975  20.343  1.00  0.00     0.277 HD
ENDROOT
BRANCH   1   4
HETATM    4  C9  UNL     1      36.769  23.611  21.580  1.00  0.00     0.232 C 
BRANCH   4   5
HETATM    5  C8  UNL     1      36.637  22.311  20.854  1.00  0.00     0.029 C 
BRANCH   5   6
HETATM    6  C7  UNL     1      35.289  21.680  20.930  1.00  0.00     0.022 C 
BRANCH   6   7
HETATM    7  C6  UNL     1      34.649  21.368  19.612  1.00  0.00     0.128 C 
BRANCH   7   8
HETATM    8  N3  UNL     1      34.265  22.674  19.049  1.00  0.00    -0.359 N 
HETATM    9  C5  UNL     1      33.454  23.544  19.662  1.00  0.00     0.099 A 
HETATM   10  C4  UNL     1      33.322  24.707  18.878  1.00  0.00    -0.029 A 
HETATM   11  C23 UNL     1      34.103  24.468  17.770  1.00  0.00    -0.027 A 
HETATM   12  C22 UNL     1      34.684  23.198  17.888  1.00  0.00     0.018 A 
HETATM   13  C24 UNL     1      34.429  25.287  16.586  1.00  0.00     0.041 C 
HETATM   14  C27 UNL     1      35.579  22.593  16.885  1.00  0.00     0.058 C 
HETATM   15  C26 UNL     1      35.782  23.416  15.665  1.00  0.00     0.006 C 
HETATM   16  C25 UNL     1      34.651  24.377  15.388  1.00  0.00     0.005 C 
BRANCH  10  17
HETATM   17  C3  UNL     1      32.494  25.860  19.260  1.00  0.00     0.098 C 
BRANCH  17  18
HETATM   18  C2  UNL     1      31.145  25.894  18.568  1.00  0.00     0.022 A 
HETATM   19  N2  UNL     1      30.109  25.230  19.008  1.00  0.00    -0.340 N 
HETATM   20  C1  UNL     1      28.952  25.338  18.352  1.00  0.00     0.142 A 
ATOM     21  H2  UNL     1      30.183  24.642  19.838  1.00  0.00     0.168 HD
HETATM   22  S2  UNL     1      29.327  26.401  17.077  1.00  0.00    -0.064 SA
HETATM   23  C28 UNL     1      30.967  26.664  17.445  1.00  0.00     0.078 A 
BRANCH  20  24
HETATM   24  N1  UNL     1      27.811  24.747  18.652  1.00  0.00    -0.380 N 
ATOM     25  H12 UNL     1      27.241  24.107  18.099  1.00  0.00     0.158 HD
ATOM     26  H11 UNL     1      27.283  24.836  19.522  1.00  0.00     0.158 HD
ENDBRANCH  20  24
ENDBRANCH  17  18
ENDBRANCH  10  17
ENDBRANCH   7   8
ENDBRANCH   6   7
ENDBRANCH   5   6
ENDBRANCH   4   5
ENDBRANCH   1   4
BRANCH   1  27
HETATM   27  C10 UNL     1      37.615  24.375  19.465  1.00  0.00     0.233 C 
BRANCH  27  28
HETATM   28  C11 UNL     1      37.659  25.522  18.453  1.00  0.00     0.055 C 
BRANCH  28  29
HETATM   29  C12 UNL     1      36.857  26.694  19.037  1.00  0.00     0.233 C 
BRANCH  29  30
HETATM   30  N5  UNL     1      37.598  27.917  19.055  1.00  0.00    -0.075 N 
ATOM     31  H52 UNL     1      37.286  28.532  19.806  1.00  0.00     0.277 HD
ATOM     32  H51 UNL     1      38.559  27.766  19.363  1.00  0.00     0.277 HD
BRANCH  30  33
HETATM   33  C13 UNL     1      37.554  28.573  17.791  1.00  0.00     0.241 C 
BRANCH  33  34
HETATM   34  C14 UNL     1      36.147  28.573  17.258  1.00  0.00     0.130 C 
BRANCH  34  35
HETATM   35  C15 UNL     1      35.619  29.907  16.953  1.00  0.00     0.225 C 
HETATM   36  O1  UNL     1      35.856  30.412  15.804  1.00  0.00    -0.273 OA
HETATM   37  N6  UNL     1      34.868  30.673  17.833  1.00  0.00    -0.306 N 
ATOM     38  H6  UNL     1      34.803  31.680  17.683  1.00  0.00     0.171 HD
BRANCH  37  39
HETATM   39  C16 UNL     1      34.244  30.141  18.847  1.00  0.00     0.183 A 
HETATM   40  N7  UNL     1      34.811  29.672  19.964  1.00  0.00    -0.168 N 
HETATM   41  C17 UNL     1      34.073  29.164  20.894  1.00  0.00     0.688 A 
ATOM     42  H7  UNL     1      35.823  29.715  20.080  1.00  0.00     0.186 HD
HETATM   43  N9  UNL     1      32.745  29.132  20.691  1.00  0.00    -0.157 N 
HETATM   44  S1  UNL     1      32.597  29.834  19.169  1.00  0.00     0.039 SA
ATOM     45  H9  UNL     1      32.012  28.773  21.303  1.00  0.00     0.193 HD
BRANCH  41  46
HETATM   46  N8  UNL     1      34.639  28.639  22.122  1.00  0.00    -0.213 N 
HETATM   47  C18 UNL     1      34.073  27.547  22.862  1.00  0.00     0.167 C 
HETATM   48  C19 UNL     1      35.221  26.569  23.125  1.00  0.00     0.188 C 
HETATM   49  O2  UNL     1      36.359  26.916  22.406  1.00  0.00    -0.388 OA
HETATM   50  C20 UNL     1      36.878  28.153  22.774  1.00  0.00     0.188 C 
HETATM   51  C21 UNL     1      35.831  29.251  22.631  1.00  0.00     0.167 C 
ENDBRANCH  41  46
ENDBRANCH  37  39
ENDBRANCH  34  35
ENDBRANCH  33  34
ENDBRANCH  30  33
ENDBRANCH  29  30
ENDBRANCH  28  29
ENDBRANCH  27  28
ENDBRANCH   1  27
TORSDOF 17
ENDMDL
MODEL 2
REMARK VINA RESULT: -6.095523663      2.373      6.384
REMARK  17 active torsions:
REMARK  status: ('A' for Active; 'I' for Inactive)
REMARK    1  A    between atoms: N1_1  and  C1_4 
REMARK    2  A    between atoms: C2_7  and  C3_8 
REMARK    3  A    between atoms: C3_8  and  C4_9 
REMARK    4  A    between atoms: N3_11  and  C6_12 
REMARK    5  A    between atoms: C6_12  and  C7_13 
REMARK    6  A    between atoms: C7_13  and  C8_14 
REMARK    7  A    between atoms: C8_14  and  C9_15 
REMARK    8  A    between atoms: C9_15  and  N4_16 
REMARK    9  A    between atoms: N4_16  and  C10_19 
REMARK   10  A    between atoms: C10_19  and  C11_20 
REMARK   11  A    between atoms: C11_20  and  C12_21 
REMARK   12  A    between atoms: C12_21  and  N5_22 
REMARK   13  A    between atoms: N5_22  and  C13_25 
REMARK   14  A    between atoms: C13_25  and  C14_26 
REMARK   15  A    between atoms: C14_26  and  C15_27 
REMARK       I    between atoms: C15_27  and  N6_29 
REMARK   16  A    between atoms: N6_29  and  C16_31 
REMARK   17  A    between atoms: C17_34  and  N8_35 
ROOT
HETATM    1  N4  UNL     1      38.146  28.682  21.726  1.00  0.00    -0.075 N 
ATOM      2  H41 UNL     1      38.946  28.520  22.336  1.00  0.00     0.277 HD
ATOM      3  H42 UNL     1      38.009  29.679  21.897  1.00  0.00     0.277 HD
ENDROOT
BRANCH   1   4
HETATM    4  C9  UNL     1      36.995  27.917  22.158  1.00  0.00     0.232 C 
BRANCH   4   5
HETATM    5  C8  UNL     1      35.984  28.842  22.755  1.00  0.00     0.029 C 
BRANCH   5   6
HETATM    6  C7  UNL     1      34.681  28.210  23.108  1.00  0.00     0.022 C 
BRANCH   6   7
HETATM    7  C6  UNL     1      33.479  28.788  22.426  1.00  0.00     0.128 C 
BRANCH   7   8
HETATM    8  N3  UNL     1      33.454  28.166  21.090  1.00  0.00    -0.359 N 
HETATM    9  C5  UNL     1      33.307  26.853  20.879  1.00  0.00     0.099 A 
HETATM   10  C4  UNL     1      33.287  26.592  19.496  1.00  0.00    -0.029 A 
HETATM   11  C23 UNL     1      33.431  27.828  18.908  1.00  0.00    -0.027 A 
HETATM   12  C22 UNL     1      33.535  28.800  19.912  1.00  0.00     0.018 A 
HETATM   13  C24 UNL     1      33.456  28.263  17.498  1.00  0.00     0.041 C 
HETATM   14  C27 UNL     1      33.709  30.242  19.663  1.00  0.00     0.058 C 
HETATM   15  C26 UNL     1      33.839  30.608  18.229  1.00  0.00     0.006 C 
HETATM   16  C25 UNL     1      34.352  29.484  17.362  1.00  0.00     0.005 C 
BRANCH  10  17
HETATM   17  C3  UNL     1      33.145  25.247  18.920  1.00  0.00     0.098 C 
BRANCH  17  18
HETATM   18  C2  UNL     1      31.741  24.939  18.436  1.00  0.00     0.022 A 
HETATM   19  N2  UNL     1      30.673  25.404  19.028  1.00  0.00    -0.340 N 
HETATM   20  C1  UNL     1      29.476  25.104  18.519  1.00  0.00     0.142 A 
ATOM     21  H2  UNL     1      30.752  25.985  19.862  1.00  0.00     0.168 HD
HETATM   22  S2  UNL     1      29.859  24.140  17.169  1.00  0.00    -0.064 SA
HETATM   23  C28 UNL     1      31.553  24.164  17.319  1.00  0.00     0.078 A 
BRANCH  20  24
HETATM   24  N1  UNL     1      28.300  25.486  18.979  1.00  0.00    -0.380 N 
ATOM     25  H12 UNL     1      27.455  25.753  18.472  1.00  0.00     0.158 HD
ATOM     26  H11 UNL     1      28.025  25.584  19.956  1.00  0.00     0.158 HD
ENDBRANCH  20  24
ENDBRANCH  17  18
ENDBRANCH  10  17
ENDBRANCH   7   8
ENDBRANCH   6   7
ENDBRANCH   5   6
ENDBRANCH   4   5
ENDBRANCH   1   4
BRANCH   1  27
HETATM   27  C10 UNL     1      38.486  28.434  20.346  1.00  0.00     0.233 C 
BRANCH  27  28
HETATM   28  C11 UNL     1      37.247  28.277  19.461  1.00  0.00     0.055 C 
BRANCH  28  29
HETATM   29  C12 UNL     1      37.493  27.092  18.515  1.00  0.00     0.233 C 
BRANCH  29  30
HETATM   30  N5  UNL     1      36.662  25.967  18.812  1.00  0.00    -0.075 N 
ATOM     31  H52 UNL     1      35.733  26.259  19.116  1.00  0.00     0.277 HD
ATOM     32  H51 UNL     1      36.400  25.463  17.965  1.00  0.00     0.277 HD
BRANCH  30  33
HETATM   33  C13 UNL     1      37.274  25.102  19.764  1.00  0.00     0.241 C 
BRANCH  33  34
HETATM   34  C14 UNL     1      36.241  24.581  20.727  1.00  0.00     0.130 C 
BRANCH  34  35
HETATM   35  C15 UNL     1      36.617  23.330  21.394  1.00  0.00     0.225 C 
HETATM   36  O1  UNL     1      37.083  23.385  22.582  1.00  0.00    -0.273 OA
HETATM   37  N6  UNL     1      36.501  22.072  20.822  1.00  0.00    -0.306 N 
ATOM     38  H6  UNL     1      37.053  21.302  21.201  1.00  0.00     0.171 HD
BRANCH  37  39
HETATM   39  C16 UNL     1      35.706  21.846  19.813  1.00  0.00     0.183 A 
HETATM   40  N7  UNL     1      35.949  22.155  18.534  1.00  0.00    -0.168 N 
HETATM   41  C17 UNL     1      35.071  21.878  17.629  1.00  0.00     0.688 A 
ATOM     42  H7  UNL     1      36.825  22.608  18.276  1.00  0.00     0.186 HD
HETATM   43  N9  UNL     1      33.933  21.280  18.023  1.00  0.00    -0.157 N 
HETATM   44  S1  UNL     1      34.162  21.134  19.684  1.00  0.00     0.039 SA
ATOM     45  H9  UNL     1      33.134  20.989  17.460  1.00  0.00     0.193 HD
BRANCH  41  46
HETATM   46  N8  UNL     1      35.283  22.195  16.229  1.00  0.00    -0.213 N 
HETATM   47  C18 UNL     1      34.990  21.297  15.150  1.00  0.00     0.167 C 
HETATM   48  C19 UNL     1      34.158  22.095  14.143  1.00  0.00     0.188 C 
HETATM   49  O2  UNL     1      33.772  23.325  14.665  1.00  0.00    -0.388 OA
HETATM   50  C20 UNL     1      34.850  24.158  14.949  1.00  0.00     0.188 C 
HETATM   51  C21 UNL     1      35.825  23.483  15.906  1.00  0.00     0.167 C 
ENDBRANCH  41  46
ENDBRANCH  37  39
ENDBRANCH  34  35
ENDBRANCH  33  34
ENDBRANCH  30  33
ENDBRANCH  29  30
ENDBRANCH  28  29
ENDBRANCH  27  28
ENDBRANCH   1  27
TORSDOF 17
ENDMDL
MODEL 3
REMARK VINA RESULT: -5.940256527      3.863      7.307
REMARK  17 active torsions:
REMARK  status: ('A' for Active; 'I' for Inactive)
REMARK    1  A    between atoms: N1_1  and  C1_4 
REMARK    2  A    between atoms: C2_7  and  C3_8 
REMARK    3  A    between atoms: C3_8  and  C4_9 
REMARK    4  A    between atoms: N3_11  and  C6_12 
REMARK    5  A    between atoms: C6_12  and  C7_13 
REMARK    6  A    between atoms: C7_13  and  C8_14 
REMARK    7  A    between atoms: C8_14  and  C9_15 
REMARK    8  A    between atoms: C9_15  and  N4_16 
REMARK    9  A    between atoms: N4_16  and  C10_19 
REMARK   10  A    between atoms: C10_19  and  C11_20 
REMARK   11  A    between atoms: C11_20  and  C12_21 
REMARK   12  A    between atoms: C12_21  and  N5_22 
REMARK   13  A    between atoms: N5_22  and  C13_25 
REMARK   14  A    between atoms: C13_25  and  C14_26 
REMARK   15  A    between atoms: C14_26  and  C15_27 
REMARK       I    between atoms: C15_27  and  N6_29 
REMARK   16  A    between atoms: N6_29  and  C16_31 
REMARK   17  A    between atoms: C17_34  and  N8_35 
ROOT
HETATM    1  N4  UNL     1      31.594  29.271  20.016  1.00  0.00    -0.075 N 
ATOM      2  H41 UNL     1      30.895  28.580  20.287  1.00  0.00     0.277 HD
ATOM      3  H42 UNL     1      31.845  28.899  19.100  1.00  0.00     0.277 HD
ENDROOT
BRANCH   1   4
HETATM    4  C9  UNL     1      32.728  29.248  20.917  1.00  0.00     0.232 C 
BRANCH   4   5
HETATM    5  C8  UNL     1      33.242  27.848  21.024  1.00  0.00     0.029 C 
BRANCH   5   6
HETATM    6  C7  UNL     1      33.817  27.487  22.351  1.00  0.00     0.022 C 
BRANCH   6   7
HETATM    7  C6  UNL     1      35.270  27.803  22.531  1.00  0.00     0.128 C 
BRANCH   7   8
HETATM    8  N3  UNL     1      35.987  26.804  21.719  1.00  0.00    -0.359 N 
HETATM    9  C5  UNL     1      36.086  25.509  22.042  1.00  0.00     0.099 A 
HETATM   10  C4  UNL     1      36.798  24.821  21.040  1.00  0.00    -0.029 A 
HETATM   11  C23 UNL     1      37.110  25.788  20.112  1.00  0.00    -0.027 A 
HETATM   12  C22 UNL     1      36.600  27.018  20.546  1.00  0.00     0.018 A 
HETATM   13  C24 UNL     1      37.811  25.732  18.814  1.00  0.00     0.041 C 
HETATM   14  C27 UNL     1      36.746  28.288  19.813  1.00  0.00     0.058 C 
HETATM   15  C26 UNL     1      37.556  28.192  18.571  1.00  0.00     0.006 C 
HETATM   16  C25 UNL     1      38.538  27.046  18.576  1.00  0.00     0.005 C 
BRANCH  10  17
HETATM   17  C3  UNL     1      37.091  23.381  21.089  1.00  0.00     0.098 C 
BRANCH  17  18
HETATM   18  C2  UNL     1      36.106  22.535  20.305  1.00  0.00     0.022 A 
HETATM   19  N2  UNL     1      36.075  22.517  18.999  1.00  0.00    -0.340 N 
HETATM   20  C1  UNL     1      35.192  21.722  18.389  1.00  0.00     0.142 A 
ATOM     21  H2  UNL     1      36.714  23.097  18.455  1.00  0.00     0.168 HD
HETATM   22  S2  UNL     1      34.379  20.979  19.686  1.00  0.00    -0.064 SA
HETATM   23  C28 UNL     1      35.215  21.727  20.966  1.00  0.00     0.078 A 
BRANCH  20  24
HETATM   24  N1  UNL     1      35.023  21.574  17.089  1.00  0.00    -0.380 N 
ATOM     25  H12 UNL     1      35.568  21.036  16.416  1.00  0.00     0.158 HD
ATOM     26  H11 UNL     1      34.290  21.990  16.514  1.00  0.00     0.158 HD
ENDBRANCH  20  24
ENDBRANCH  17  18
ENDBRANCH  10  17
ENDBRANCH   7   8
ENDBRANCH   6   7
ENDBRANCH   5   6
ENDBRANCH   4   5
ENDBRANCH   1   4
BRANCH   1  27
HETATM   27  C10 UNL     1      31.009  30.585  19.900  1.00  0.00     0.233 C 
BRANCH  27  28
HETATM   28  C11 UNL     1      32.004  31.619  19.368  1.00  0.00     0.055 C 
BRANCH  28  29
HETATM   29  C12 UNL     1      31.802  31.726  17.849  1.00  0.00     0.233 C 
BRANCH  29  30
HETATM   30  N5  UNL     1      30.484  31.350  17.440  1.00  0.00    -0.075 N 
ATOM     31  H52 UNL     1      30.044  30.730  18.121  1.00  0.00     0.277 HD
ATOM     32  H51 UNL     1      29.837  32.136  17.500  1.00  0.00     0.277 HD
BRANCH  30  33
HETATM   33  C13 UNL     1      30.486  30.776  16.136  1.00  0.00     0.241 C 
BRANCH  33  34
HETATM   34  C14 UNL     1      29.613  29.550  16.111  1.00  0.00     0.130 C 
BRANCH  34  35
HETATM   35  C15 UNL     1      30.071  28.467  16.987  1.00  0.00     0.225 C 
HETATM   36  O1  UNL     1      31.324  28.326  17.185  1.00  0.00    -0.273 OA
HETATM   37  N6  UNL     1      29.229  27.570  17.628  1.00  0.00    -0.306 N 
ATOM     38  H6  UNL     1      29.608  26.681  17.955  1.00  0.00     0.171 HD
BRANCH  37  39
HETATM   39  C16 UNL     1      27.966  27.831  17.824  1.00  0.00     0.183 A 
HETATM   40  N7  UNL     1      27.462  28.598  18.796  1.00  0.00    -0.168 N 
HETATM   41  C17 UNL     1      26.185  28.773  18.880  1.00  0.00     0.688 A 
ATOM     42  H7  UNL     1      28.085  29.044  19.470  1.00  0.00     0.186 HD
HETATM   43  N9  UNL     1      25.410  28.164  17.966  1.00  0.00    -0.157 N 
HETATM   44  S1  UNL     1      26.541  27.359  17.015  1.00  0.00     0.039 SA
ATOM     45  H9  UNL     1      24.394  28.183  17.873  1.00  0.00     0.193 HD
BRANCH  41  46
HETATM   46  N8  UNL     1      25.588  29.593  19.917  1.00  0.00    -0.213 N 
HETATM   47  C18 UNL     1      24.404  29.230  20.642  1.00  0.00     0.167 C 
HETATM   48  C19 UNL     1      24.739  29.411  22.125  1.00  0.00     0.188 C 
HETATM   49  O2  UNL     1      26.097  29.647  22.314  1.00  0.00    -0.388 OA
HETATM   50  C20 UNL     1      26.531  30.829  21.722  1.00  0.00     0.188 C 
HETATM   51  C21 UNL     1      26.214  30.843  20.232  1.00  0.00     0.167 C 
ENDBRANCH  41  46
ENDBRANCH  37  39
ENDBRANCH  34  35
ENDBRANCH  33  34
ENDBRANCH  30  33
ENDBRANCH  29  30
ENDBRANCH  28  29
ENDBRANCH  27  28
ENDBRANCH   1  27
TORSDOF 17
ENDMDL
MODEL 4
REMARK VINA RESULT: -5.796331113      2.636      6.803
REMARK  17 active torsions:
REMARK  status: ('A' for Active; 'I' for Inactive)
REMARK    1  A    between atoms: N1_1  and  C1_4 
REMARK    2  A    between atoms: C2_7  and  C3_8 
REMARK    3  A    between atoms: C3_8  and  C4_9 
REMARK    4  A    between atoms: N3_11  and  C6_12 
REMARK    5  A    between atoms: C6_12  and  C7_13 
REMARK    6  A    between atoms: C7_13  and  C8_14 
REMARK    7  A    between atoms: C8_14  and  C9_15 
REMARK    8  A    between atoms: C9_15  and  N4_16 
REMARK    9  A    between atoms: N4_16  and  C10_19 
REMARK   10  A    between atoms: C10_19  and  C11_20 
REMARK   11  A    between atoms: C11_20  and  C12_21 
REMARK   12  A    between atoms: C12_21  and  N5_22 
REMARK   13  A    between atoms: N5_22  and  C13_25 
REMARK   14  A    between atoms: C13_25  and  C14_26 
REMARK   15  A    between atoms: C14_26  and  C15_27 
REMARK       I    between atoms: C15_27  and  N6_29 
REMARK   16  A    between atoms: N6_29  and  C16_31 
REMARK   17  A    between atoms: C17_34  and  N8_35 
ROOT
HETATM    1  N4  UNL     1      33.453  23.778  15.751  1.00  0.00    -0.075 N 
ATOM      2  H41 UNL     1      34.334  23.820  16.264  1.00  0.00     0.277 HD
ATOM      3  H42 UNL     1      33.702  23.072  15.058  1.00  0.00     0.277 HD
ENDROOT
BRANCH   1   4
HETATM    4  C9  UNL     1      33.156  25.047  15.119  1.00  0.00     0.232 C 
BRANCH   4   5
HETATM    5  C8  UNL     1      34.271  26.005  15.392  1.00  0.00     0.029 C 
BRANCH   5   6
HETATM    6  C7  UNL     1      33.990  27.012  16.455  1.00  0.00     0.022 C 
BRANCH   6   7
HETATM    7  C6  UNL     1      32.543  27.209  16.790  1.00  0.00     0.128 C 
BRANCH   7   8
HETATM    8  N3  UNL     1      32.534  28.141  17.931  1.00  0.00    -0.359 N 
HETATM    9  C5  UNL     1      32.711  27.767  19.204  1.00  0.00     0.099 A 
HETATM   10  C4  UNL     1      32.685  28.899  20.041  1.00  0.00    -0.029 A 
HETATM   11  C23 UNL     1      32.482  29.958  19.186  1.00  0.00    -0.027 A 
HETATM   12  C22 UNL     1      32.389  29.473  17.875  1.00  0.00     0.018 A 
HETATM   13  C24 UNL     1      32.390  31.414  19.409  1.00  0.00     0.041 C 
HETATM   14  C27 UNL     1      32.164  30.315  16.686  1.00  0.00     0.058 C 
HETATM   15  C26 UNL     1      31.968  31.757  16.983  1.00  0.00     0.006 C 
HETATM   16  C25 UNL     1      31.454  32.024  18.377  1.00  0.00     0.005 C 
BRANCH  10  17
HETATM   17  C3  UNL     1      32.843  28.839  21.502  1.00  0.00     0.098 C 
BRANCH  17  18
HETATM   18  C2  UNL     1      34.102  28.119  21.946  1.00  0.00     0.022 A 
HETATM   19  N2  UNL     1      35.281  28.682  21.927  1.00  0.00    -0.340 N 
HETATM   20  C1  UNL     1      36.332  27.983  22.360  1.00  0.00     0.142 A 
ATOM     21  H2  UNL     1      35.396  29.637  21.587  1.00  0.00     0.168 HD
HETATM   22  S2  UNL     1      35.648  26.491  22.809  1.00  0.00    -0.064 SA
HETATM   23  C28 UNL     1      34.028  26.831  22.416  1.00  0.00     0.078 A 
BRANCH  20  24
HETATM   24  N1  UNL     1      37.587  28.388  22.416  1.00  0.00    -0.380 N 
ATOM     25  H12 UNL     1      38.062  29.119  21.885  1.00  0.00     0.158 HD
ATOM     26  H11 UNL     1      38.324  28.025  23.021  1.00  0.00     0.158 HD
ENDBRANCH  20  24
ENDBRANCH  17  18
ENDBRANCH  10  17
ENDBRANCH   7   8
ENDBRANCH   6   7
ENDBRANCH   5   6
ENDBRANCH   4   5
ENDBRANCH   1   4
BRANCH   1  27
HETATM   27  C10 UNL     1      32.379  23.320  16.599  1.00  0.00     0.233 C 
BRANCH  27  28
HETATM   28  C11 UNL     1      32.513  23.833  18.034  1.00  0.00     0.055 C 
BRANCH  28  29
HETATM   29  C12 UNL     1      33.953  23.564  18.496  1.00  0.00     0.233 C 
BRANCH  29  30
HETATM   30  N5  UNL     1      34.384  24.468  19.517  1.00  0.00    -0.075 N 
ATOM     31  H52 UNL     1      33.870  25.348  19.476  1.00  0.00     0.277 HD
ATOM     32  H51 UNL     1      34.088  24.155  20.442  1.00  0.00     0.277 HD
BRANCH  30  33
HETATM   33  C13 UNL     1      35.791  24.682  19.465  1.00  0.00     0.241 C 
BRANCH  33  34
HETATM   34  C14 UNL     1      36.083  26.105  19.072  1.00  0.00     0.130 C 
BRANCH  34  35
HETATM   35  C15 UNL     1      37.505  26.462  19.116  1.00  0.00     0.225 C 
HETATM   36  O1  UNL     1      38.359  25.548  19.371  1.00  0.00    -0.273 OA
HETATM   37  N6  UNL     1      37.999  27.740  18.898  1.00  0.00    -0.306 N 
ATOM     38  H6  UNL     1      38.929  27.977  19.243  1.00  0.00     0.171 HD
BRANCH  37  39
HETATM   39  C16 UNL     1      37.307  28.646  18.266  1.00  0.00     0.183 A 
HETATM   40  N7  UNL     1      37.275  28.832  16.942  1.00  0.00    -0.168 N 
HETATM   41  C17 UNL     1      36.546  29.773  16.442  1.00  0.00     0.688 A 
ATOM     42  H7  UNL     1      37.826  28.231  16.329  1.00  0.00     0.186 HD
HETATM   43  N9  UNL     1      35.839  30.535  17.294  1.00  0.00    -0.157 N 
HETATM   44  S1  UNL     1      36.244  29.874  18.787  1.00  0.00     0.039 SA
ATOM     45  H9  UNL     1      35.216  31.316  17.088  1.00  0.00     0.193 HD
BRANCH  41  46
HETATM   46  N8  UNL     1      36.481  30.018  15.014  1.00  0.00    -0.213 N 
HETATM   47  C18 UNL     1      37.592  30.469  14.226  1.00  0.00     0.167 C 
HETATM   48  C19 UNL     1      37.670  29.529  13.020  1.00  0.00     0.188 C 
HETATM   49  O2  UNL     1      36.817  28.441  13.168  1.00  0.00    -0.388 OA
HETATM   50  C20 UNL     1      35.475  28.806  13.225  1.00  0.00     0.188 C 
HETATM   51  C21 UNL     1      35.228  29.804  14.350  1.00  0.00     0.167 C 
ENDBRANCH  41  46
ENDBRANCH  37  39
ENDBRANCH  34  35
ENDBRANCH  33  34
ENDBRANCH  30  33
ENDBRANCH  29  30
ENDBRANCH  28  29
ENDBRANCH  27  28
ENDBRANCH   1  27
TORSDOF 17
ENDMDL
MODEL 5
REMARK VINA RESULT: -5.783487606      4.431      7.401
REMARK  17 active torsions:
REMARK  status: ('A' for Active; 'I' for Inactive)
REMARK    1  A    between atoms: N1_1  and  C1_4 
REMARK    2  A    between atoms: C2_7  and  C3_8 
REMARK    3  A    between atoms: C3_8  and  C4_9 
REMARK    4  A    between atoms: N3_11  and  C6_12 
REMARK    5  A    between atoms: C6_12  and  C7_13 
REMARK    6  A    between atoms: C7_13  and  C8_14 
REMARK    7  A    between atoms: C8_14  and  C9_15 
REMARK    8  A    between atoms: C9_15  and  N4_16 
REMARK    9  A    between atoms: N4_16  and  C10_19 
REMARK   10  A    between atoms: C10_19  and  C11_20 
REMARK   11  A    between atoms: C11_20  and  C12_21 
REMARK   12  A    between atoms: C12_21  and  N5_22 
REMARK   13  A    between atoms: N5_22  and  C13_25 
REMARK   14  A    between atoms: C13_25  and  C14_26 
REMARK   15  A    between atoms: C14_26  and  C15_27 
REMARK       I    between atoms: C15_27  and  N6_29 
REMARK   16  A    between atoms: N6_29  and  C16_31 
REMARK   17  A    between atoms: C17_34  and  N8_35 
ROOT
HETATM    1  N4  UNL     1      36.924  28.427  20.032  1.00  0.00    -0.075 N 
ATOM      2  H41 UNL     1      37.505  29.195  19.696  1.00  0.00     0.277 HD
ATOM      3  H42 UNL     1      36.127  28.963  20.377  1.00  0.00     0.277 HD
ENDROOT
BRANCH   1   4
HETATM    4  C9  UNL     1      37.577  27.712  21.110  1.00  0.00     0.232 C 
BRANCH   4   5
HETATM    5  C8  UNL     1      37.218  28.351  22.413  1.00  0.00     0.029 C 
BRANCH   5   6
HETATM    6  C7  UNL     1      36.195  27.619  23.213  1.00  0.00     0.022 C 
BRANCH   6   7
HETATM    7  C6  UNL     1      34.784  28.095  23.044  1.00  0.00     0.128 C 
BRANCH   7   8
HETATM    8  N3  UNL     1      34.217  27.252  21.977  1.00  0.00    -0.359 N 
HETATM    9  C5  UNL     1      34.395  25.929  21.895  1.00  0.00     0.099 A 
HETATM   10  C4  UNL     1      33.691  25.420  20.787  1.00  0.00    -0.029 A 
HETATM   11  C23 UNL     1      33.090  26.523  20.223  1.00  0.00    -0.027 A 
HETATM   12  C22 UNL     1      33.425  27.657  20.973  1.00  0.00     0.018 A 
HETATM   13  C24 UNL     1      32.188  26.682  19.065  1.00  0.00     0.041 C 
HETATM   14  C27 UNL     1      32.971  29.026  20.667  1.00  0.00     0.058 C 
HETATM   15  C26 UNL     1      32.159  29.141  19.428  1.00  0.00     0.006 C 
HETATM   16  C25 UNL     1      32.422  28.042  18.427  1.00  0.00     0.005 C 
BRANCH  10  17
HETATM   17  C3  UNL     1      33.681  24.000  20.406  1.00  0.00     0.098 C 
BRANCH  17  18
HETATM   18  C2  UNL     1      34.960  23.544  19.731  1.00  0.00     0.022 A 
HETATM   19  N2  UNL     1      36.074  23.353  20.386  1.00  0.00    -0.340 N 
HETATM   20  C1  UNL     1      37.147  22.925  19.716  1.00  0.00     0.142 A 
ATOM     21  H2  UNL     1      36.124  23.527  21.390  1.00  0.00     0.168 HD
HETATM   22  S2  UNL     1      36.577  22.787  18.119  1.00  0.00    -0.064 SA
HETATM   23  C28 UNL     1      34.973  23.288  18.383  1.00  0.00     0.078 A 
BRANCH  20  24
HETATM   24  N1  UNL     1      38.345  22.678  20.211  1.00  0.00    -0.380 N 
ATOM     25  H12 UNL     1      39.205  23.223  20.145  1.00  0.00     0.158 HD
ATOM     26  H11 UNL     1      38.627  21.866  20.761  1.00  0.00     0.158 HD
ENDBRANCH  20  24
ENDBRANCH  17  18
ENDBRANCH  10  17
ENDBRANCH   7   8
ENDBRANCH   6   7
ENDBRANCH   5   6
ENDBRANCH   4   5
ENDBRANCH   1   4
BRANCH   1  27
HETATM   27  C10 UNL     1      36.536  27.556  18.949  1.00  0.00     0.233 C 
BRANCH  27  28
HETATM   28  C11 UNL     1      35.902  28.323  17.786  1.00  0.00     0.055 C 
BRANCH  28  29
HETATM   29  C12 UNL     1      36.007  29.823  18.101  1.00  0.00     0.233 C 
BRANCH  29  30
HETATM   30  N5  UNL     1      36.393  30.599  16.964  1.00  0.00    -0.075 N 
ATOM     31  H52 UNL     1      35.621  31.174  16.625  1.00  0.00     0.277 HD
ATOM     32  H51 UNL     1      37.041  31.343  17.223  1.00  0.00     0.277 HD
BRANCH  30  33
HETATM   33  C13 UNL     1      36.926  29.780  15.928  1.00  0.00     0.241 C 
BRANCH  33  34
HETATM   34  C14 UNL     1      36.904  30.522  14.619  1.00  0.00     0.130 C 
BRANCH  34  35
HETATM   35  C15 UNL     1      38.006  30.179  13.714  1.00  0.00     0.225 C 
HETATM   36  O1  UNL     1      38.162  28.958  13.374  1.00  0.00    -0.273 OA
HETATM   37  N6  UNL     1      38.904  31.097  13.190  1.00  0.00    -0.306 N 
ATOM     38  H6  UNL     1      39.801  30.766  12.836  1.00  0.00     0.171 HD
BRANCH  37  39
HETATM   39  C16 UNL     1      38.633  32.371  13.138  1.00  0.00     0.183 A 
HETATM   40  N7  UNL     1      38.996  33.291  14.039  1.00  0.00    -0.168 N 
HETATM   41  C17 UNL     1      38.657  34.526  13.869  1.00  0.00     0.688 A 
ATOM     42  H7  UNL     1      39.538  33.018  14.858  1.00  0.00     0.186 HD
HETATM   43  N9  UNL     1      37.943  34.833  12.772  1.00  0.00    -0.157 N 
HETATM   44  S1  UNL     1      37.782  33.337  12.019  1.00  0.00     0.039 SA
ATOM     45  H9  UNL     1      37.589  35.741  12.472  1.00  0.00     0.193 HD
BRANCH  41  46
HETATM   46  N8  UNL     1      39.022  35.561  14.817  1.00  0.00    -0.213 N 
HETATM   47  C18 UNL     1      40.026  36.556  14.572  1.00  0.00     0.167 C 
HETATM   48  C19 UNL     1      39.386  37.903  14.914  1.00  0.00     0.188 C 
HETATM   49  O2  UNL     1      38.018  37.775  15.135  1.00  0.00    -0.388 OA
HETATM   50  C20 UNL     1      37.719  36.970  16.230  1.00  0.00     0.188 C 
HETATM   51  C21 UNL     1      38.342  35.588  16.080  1.00  0.00     0.167 C 
ENDBRANCH  41  46
ENDBRANCH  37  39
ENDBRANCH  34  35
ENDBRANCH  33  34
ENDBRANCH  30  33
ENDBRANCH  29  30
ENDBRANCH  28  29
ENDBRANCH  27  28
ENDBRANCH   1  27
TORSDOF 17
ENDMDL
