MODEL 1
REMARK VINA RESULT: -10.069277826      0.000      0.000
REMARK  15 active torsions:
REMARK  status: ('A' for Active; 'I' for Inactive)
REMARK    1  A    between atoms: O1_2  and  C2_3 
REMARK    2  A    between atoms: C2_3  and  C3_5 
REMARK    3  A    between atoms: C3_5  and  N8_34 
REMARK    4  A    between atoms: C4_6  and  N1_7 
REMARK       I    between atoms: N1_7  and  C5_9 
REMARK    5  A    between atoms: C5_9  and  C6_11 
REMARK    6  A    between atoms: C7_14  and  S1_15 
REMARK    7  A    between atoms: S1_15  and  C8_18 
REMARK    8  A    between atoms: C8_18  and  C9_20 
REMARK    9  A    between atoms: N3_22  and  N4_24 
REMARK       I    between atoms: N4_24  and  C11_25 
REMARK   10  A    between atoms: N5_28  and  C13_29 
REMARK       I    between atoms: N8_34  and  C15_36 
REMARK   11  A    between atoms: C15_36  and  C16_38 
REMARK   12  A    between atoms: C17_40  and  O9_41 
REMARK   13  A    between atoms: C18_43  and  C19_44 
REMARK   14  A    between atoms: C19_44  and  O10_47 
REMARK   15  A    between atoms: C23_51  and  O12_52 
ROOT
HETATM    1  C13 UNL     1      10.231  15.494  84.002  1.00  0.00     0.275 C 
HETATM    2  C14 UNL     1      10.847  16.767  83.570  1.00  0.00     0.081 C 
HETATM    3  N6  UNL     1      11.320  17.770  83.243  1.00  0.00    -0.195 NA
ENDROOT
BRANCH   1   4
HETATM    4  N5  UNL     1       8.818  15.686  84.225  1.00  0.00    -0.254 N 
HETATM    5  C7  UNL     1       8.180  15.942  85.317  1.00  0.00     0.201 A 
HETATM    6  N2  UNL     1       6.834  15.943  84.952  1.00  0.00    -0.314 N 
HETATM    7  C6  UNL     1       6.713  15.685  83.637  1.00  0.00     0.192 A 
ATOM      8  H2  UNL     1       6.055  16.114  85.588  1.00  0.00     0.170 HD
HETATM    9  N7  UNL     1       7.940  15.528  83.177  1.00  0.00    -0.276 N 
ATOM     10  H7  UNL     1       8.194  15.324  82.211  1.00  0.00     0.189 HD
BRANCH   5  11
HETATM   11  S1  UNL     1       8.595  16.152  86.985  1.00  0.00     0.143 S 
HETATM   12  O4  UNL     1      10.090  15.652  87.100  1.00  0.00    -0.242 OA
HETATM   13  S2  UNL     1       7.690  15.119  87.976  1.00  0.00     0.024 SA
BRANCH  11  14
HETATM   14  C8  UNL     1       8.668  17.752  87.564  1.00  0.00     0.269 C 
HETATM   15  O5  UNL     1       8.912  18.716  86.771  1.00  0.00    -0.276 OA
BRANCH  14  16
HETATM   16  C9  UNL     1       8.468  18.115  88.963  1.00  0.00     0.094 C 
HETATM   17  C10 UNL     1       9.508  17.787  89.991  1.00  0.00     0.076 C 
HETATM   18  N3  UNL     1       7.421  18.710  89.416  1.00  0.00    -0.233 N 
ATOM     19  H3  UNL     1       7.401  18.906  90.417  1.00  0.00     0.202 HD
BRANCH  18  20
HETATM   20  N4  UNL     1       6.359  19.096  88.709  1.00  0.00    -0.287 NA
HETATM   21  C11 UNL     1       5.281  19.492  87.994  1.00  0.00     0.308 C 
HETATM   22  C12 UNL     1       4.859  18.602  86.828  1.00  0.00     0.137 C 
HETATM   23  O6  UNL     1       4.596  20.529  88.201  1.00  0.00    -0.256 OA
ENDBRANCH  18  20
ENDBRANCH  14  16
ENDBRANCH  11  14
ENDBRANCH   5  11
BRANCH   7  24
HETATM   24  C5  UNL     1       5.395  15.570  82.965  1.00  0.00     0.290 C 
HETATM   25  N1  UNL     1       4.447  16.558  83.033  1.00  0.00    -0.328 N 
ATOM     26  H1  UNL     1       4.725  17.321  83.651  1.00  0.00     0.168 HD
HETATM   27  O3  UNL     1       5.307  14.454  82.331  1.00  0.00    -0.264 OA
BRANCH  25  28
HETATM   28  C4  UNL     1       3.164  16.774  82.447  1.00  0.00     0.127 C 
HETATM   29  C3  UNL     1       2.162  17.590  83.031  1.00  0.00     0.126 C 
BRANCH  29  30
HETATM   30  C2  UNL     1       1.567  16.859  84.255  1.00  0.00     0.311 C 
HETATM   31  O2  UNL     1       0.380  17.082  84.524  1.00  0.00    -0.258 OA
BRANCH  30  32
HETATM   32  O1  UNL     1       2.302  15.976  84.994  1.00  0.00    -0.321 OA
HETATM   33  C1  UNL     1       2.417  16.003  86.405  1.00  0.00     0.213 C 
ENDBRANCH  30  32
ENDBRANCH  29  30
BRANCH  29  34
HETATM   34  N8  UNL     1       1.103  18.303  82.441  1.00  0.00    -0.315 N 
HETATM   35  C15 UNL     1       1.324  19.604  81.848  1.00  0.00     0.283 C 
HETATM   36  O7  UNL     1       2.497  20.037  81.996  1.00  0.00    -0.265 OA
ATOM     37  H8  UNL     1       0.168  17.897  82.429  1.00  0.00     0.169 HD
BRANCH  35  38
HETATM   38  C16 UNL     1       0.273  20.277  81.139  1.00  0.00     0.183 A 
HETATM   39  O8  UNL     1      -0.959  20.377  81.578  1.00  0.00    -0.279 OA
HETATM   40  C17 UNL     1      -1.968  20.947  80.969  1.00  0.00     0.197 A 
HETATM   41  C18 UNL     1      -1.814  21.544  79.715  1.00  0.00     0.086 A 
HETATM   42  C22 UNL     1      -0.580  21.498  79.188  1.00  0.00     0.222 A 
HETATM   43  O11 UNL     1      -0.276  22.005  78.038  1.00  0.00    -0.284 OA
HETATM   44  C23 UNL     1       0.463  20.876  79.885  1.00  0.00     0.157 A 
BRANCH  40  45
HETATM   45  O9  UNL     1      -3.211  20.943  81.603  1.00  0.00    -0.340 OA
ATOM     46  H9  UNL     1      -3.714  20.136  81.605  1.00  0.00     0.220 HD
ENDBRANCH  40  45
BRANCH  41  47
HETATM   47  C19 UNL     1      -2.969  22.090  79.023  1.00  0.00     0.086 C 
HETATM   48  C20 UNL     1      -3.137  21.695  77.589  1.00  0.00     0.051 C 
HETATM   49  C21 UNL     1      -4.307  21.854  79.716  1.00  0.00     0.051 C 
BRANCH  47  50
HETATM   50  O10 UNL     1      -2.744  23.519  79.046  1.00  0.00    -0.385 OA
ATOM     51  H10 UNL     1      -3.371  23.859  78.418  1.00  0.00     0.211 HD
ENDBRANCH  47  50
ENDBRANCH  41  47
BRANCH  44  52
HETATM   52  O12 UNL     1       1.701  20.879  79.291  1.00  0.00    -0.355 OA
ATOM     53  H12 UNL     1       1.803  20.622  78.383  1.00  0.00     0.218 HD
ENDBRANCH  44  52
ENDBRANCH  35  38
ENDBRANCH  29  34
ENDBRANCH  25  28
ENDBRANCH   7  24
ENDBRANCH   1   4
TORSDOF 15
ENDMDL
MODEL 2
REMARK VINA RESULT: -10.018968701      1.486      1.845
REMARK  15 active torsions:
REMARK  status: ('A' for Active; 'I' for Inactive)
REMARK    1  A    between atoms: O1_2  and  C2_3 
REMARK    2  A    between atoms: C2_3  and  C3_5 
REMARK    3  A    between atoms: C3_5  and  N8_34 
REMARK    4  A    between atoms: C4_6  and  N1_7 
REMARK       I    between atoms: N1_7  and  C5_9 
REMARK    5  A    between atoms: C5_9  and  C6_11 
REMARK    6  A    between atoms: C7_14  and  S1_15 
REMARK    7  A    between atoms: S1_15  and  C8_18 
REMARK    8  A    between atoms: C8_18  and  C9_20 
REMARK    9  A    between atoms: N3_22  and  N4_24 
REMARK       I    between atoms: N4_24  and  C11_25 
REMARK   10  A    between atoms: N5_28  and  C13_29 
REMARK       I    between atoms: N8_34  and  C15_36 
REMARK   11  A    between atoms: C15_36  and  C16_38 
REMARK   12  A    between atoms: C17_40  and  O9_41 
REMARK   13  A    between atoms: C18_43  and  C19_44 
REMARK   14  A    between atoms: C19_44  and  O10_47 
REMARK   15  A    between atoms: C23_51  and  O12_52 
ROOT
HETATM    1  C13 UNL     1      10.433  15.516  84.423  1.00  0.00     0.275 C 
HETATM    2  C14 UNL     1      10.706  14.880  83.116  1.00  0.00     0.081 C 
HETATM    3  N6  UNL     1      10.909  14.394  82.089  1.00  0.00    -0.195 NA
ENDROOT
BRANCH   1   4
HETATM    4  N5  UNL     1       9.041  15.888  84.505  1.00  0.00    -0.254 N 
HETATM    5  C7  UNL     1       8.394  16.473  85.456  1.00  0.00     0.201 A 
HETATM    6  N2  UNL     1       7.069  16.503  85.022  1.00  0.00    -0.314 N 
HETATM    7  C6  UNL     1       6.969  15.928  83.809  1.00  0.00     0.192 A 
ATOM      8  H2  UNL     1       6.291  16.903  85.545  1.00  0.00     0.170 HD
HETATM    9  N7  UNL     1       8.189  15.546  83.479  1.00  0.00    -0.276 N 
ATOM     10  H7  UNL     1       8.454  15.079  82.612  1.00  0.00     0.189 HD
BRANCH   5  11
HETATM   11  S1  UNL     1       8.769  17.065  87.039  1.00  0.00     0.143 S 
HETATM   12  O4  UNL     1       8.363  18.593  87.011  1.00  0.00    -0.242 OA
HETATM   13  S2  UNL     1      10.439  17.041  87.322  1.00  0.00     0.024 SA
BRANCH  11  14
HETATM   14  C8  UNL     1       7.855  16.439  88.332  1.00  0.00     0.269 C 
HETATM   15  O5  UNL     1       7.923  16.967  89.488  1.00  0.00    -0.276 OA
BRANCH  14  16
HETATM   16  C9  UNL     1       6.964  15.289  88.211  1.00  0.00     0.094 C 
HETATM   17  C10 UNL     1       7.449  13.912  88.546  1.00  0.00     0.076 C 
HETATM   18  N3  UNL     1       5.744  15.357  87.808  1.00  0.00    -0.233 N 
ATOM     19  H3  UNL     1       5.226  14.478  87.764  1.00  0.00     0.202 HD
BRANCH  18  20
HETATM   20  N4  UNL     1       5.087  16.458  87.445  1.00  0.00    -0.287 NA
HETATM   21  C11 UNL     1       4.423  17.576  87.071  1.00  0.00     0.308 C 
HETATM   22  C12 UNL     1       3.422  18.152  88.070  1.00  0.00     0.137 C 
HETATM   23  O6  UNL     1       4.551  18.182  85.975  1.00  0.00    -0.256 OA
ENDBRANCH  18  20
ENDBRANCH  14  16
ENDBRANCH  11  14
ENDBRANCH   5  11
BRANCH   7  24
HETATM   24  C5  UNL     1       5.671  15.766  83.108  1.00  0.00     0.290 C 
HETATM   25  N1  UNL     1       4.689  16.723  83.149  1.00  0.00    -0.328 N 
ATOM     26  H1  UNL     1       4.929  17.498  83.767  1.00  0.00     0.168 HD
HETATM   27  O3  UNL     1       5.634  14.644  82.481  1.00  0.00    -0.264 OA
BRANCH  25  28
HETATM   28  C4  UNL     1       3.413  16.892  82.533  1.00  0.00     0.127 C 
HETATM   29  C3  UNL     1       2.352  17.629  83.118  1.00  0.00     0.126 C 
BRANCH  29  30
HETATM   30  C2  UNL     1       1.764  16.818  84.293  1.00  0.00     0.311 C 
HETATM   31  O2  UNL     1       2.473  15.926  84.776  1.00  0.00    -0.258 OA
BRANCH  30  32
HETATM   32  O1  UNL     1       0.527  17.088  84.807  1.00  0.00    -0.321 OA
HETATM   33  C1  UNL     1       0.274  17.467  86.148  1.00  0.00     0.213 C 
ENDBRANCH  30  32
ENDBRANCH  29  30
BRANCH  29  34
HETATM   34  N8  UNL     1       1.273  18.307  82.524  1.00  0.00    -0.315 N 
HETATM   35  C15 UNL     1       1.456  19.609  81.921  1.00  0.00     0.283 C 
HETATM   36  O7  UNL     1       2.616  20.076  82.063  1.00  0.00    -0.265 OA
ATOM     37  H8  UNL     1       0.349  17.875  82.517  1.00  0.00     0.169 HD
BRANCH  35  38
HETATM   38  C16 UNL     1       0.385  20.247  81.209  1.00  0.00     0.183 A 
HETATM   39  O8  UNL     1      -0.847  20.322  81.652  1.00  0.00    -0.279 OA
HETATM   40  C17 UNL     1      -1.873  20.858  81.042  1.00  0.00     0.197 A 
HETATM   41  C18 UNL     1      -1.739  21.443  79.779  1.00  0.00     0.086 A 
HETATM   42  C22 UNL     1      -0.507  21.421  79.247  1.00  0.00     0.222 A 
HETATM   43  O11 UNL     1      -0.221  21.920  78.088  1.00  0.00    -0.284 OA
HETATM   44  C23 UNL     1       0.554  20.834  79.946  1.00  0.00     0.157 A 
BRANCH  40  45
HETATM   45  O9  UNL     1      -3.113  20.831  81.681  1.00  0.00    -0.340 OA
ATOM     46  H9  UNL     1      -3.839  20.406  81.240  1.00  0.00     0.220 HD
ENDBRANCH  40  45
BRANCH  41  47
HETATM   47  C19 UNL     1      -2.911  21.951  79.086  1.00  0.00     0.086 C 
HETATM   48  C20 UNL     1      -3.126  21.460  77.689  1.00  0.00     0.051 C 
HETATM   49  C21 UNL     1      -4.229  21.777  79.833  1.00  0.00     0.051 C 
BRANCH  47  50
HETATM   50  O10 UNL     1      -2.675  23.376  79.003  1.00  0.00    -0.385 OA
ATOM     51  H10 UNL     1      -3.081  23.627  78.181  1.00  0.00     0.211 HD
ENDBRANCH  47  50
ENDBRANCH  41  47
BRANCH  44  52
HETATM   52  O12 UNL     1       1.789  20.860  79.346  1.00  0.00    -0.355 OA
ATOM     53  H12 UNL     1       2.002  21.529  78.706  1.00  0.00     0.218 HD
ENDBRANCH  44  52
ENDBRANCH  35  38
ENDBRANCH  29  34
ENDBRANCH  25  28
ENDBRANCH   7  24
ENDBRANCH   1   4
TORSDOF 15
ENDMDL
MODEL 3
REMARK VINA RESULT: -9.971816807      0.773      1.010
REMARK  15 active torsions:
REMARK  status: ('A' for Active; 'I' for Inactive)
REMARK    1  A    between atoms: O1_2  and  C2_3 
REMARK    2  A    between atoms: C2_3  and  C3_5 
REMARK    3  A    between atoms: C3_5  and  N8_34 
REMARK    4  A    between atoms: C4_6  and  N1_7 
REMARK       I    between atoms: N1_7  and  C5_9 
REMARK    5  A    between atoms: C5_9  and  C6_11 
REMARK    6  A    between atoms: C7_14  and  S1_15 
REMARK    7  A    between atoms: S1_15  and  C8_18 
REMARK    8  A    between atoms: C8_18  and  C9_20 
REMARK    9  A    between atoms: N3_22  and  N4_24 
REMARK       I    between atoms: N4_24  and  C11_25 
REMARK   10  A    between atoms: N5_28  and  C13_29 
REMARK       I    between atoms: N8_34  and  C15_36 
REMARK   11  A    between atoms: C15_36  and  C16_38 
REMARK   12  A    between atoms: C17_40  and  O9_41 
REMARK   13  A    between atoms: C18_43  and  C19_44 
REMARK   14  A    between atoms: C19_44  and  O10_47 
REMARK   15  A    between atoms: C23_51  and  O12_52 
ROOT
HETATM    1  C13 UNL     1      10.368  15.527  84.329  1.00  0.00     0.275 C 
HETATM    2  C14 UNL     1      11.103  16.601  83.627  1.00  0.00     0.081 C 
HETATM    3  N6  UNL     1      11.668  17.450  83.086  1.00  0.00    -0.195 NA
ENDROOT
BRANCH   1   4
HETATM    4  N5  UNL     1       8.972  15.879  84.438  1.00  0.00    -0.254 N 
HETATM    5  C7  UNL     1       8.330  16.426  85.415  1.00  0.00     0.201 A 
HETATM    6  N2  UNL     1       7.000  16.455  84.995  1.00  0.00    -0.314 N 
HETATM    7  C6  UNL     1       6.893  15.918  83.766  1.00  0.00     0.192 A 
ATOM      8  H2  UNL     1       6.223  16.828  85.540  1.00  0.00     0.170 HD
HETATM    9  N7  UNL     1       8.113  15.561  83.411  1.00  0.00    -0.276 N 
ATOM     10  H7  UNL     1       8.374  15.125  82.526  1.00  0.00     0.189 HD
BRANCH   5  11
HETATM   11  S1  UNL     1       8.716  16.971  87.012  1.00  0.00     0.143 S 
HETATM   12  O4  UNL     1       8.705  18.549  86.919  1.00  0.00    -0.242 OA
HETATM   13  S2  UNL     1      10.300  16.549  87.437  1.00  0.00     0.024 SA
BRANCH  11  14
HETATM   14  C8  UNL     1       7.577  16.641  88.234  1.00  0.00     0.269 C 
HETATM   15  O5  UNL     1       6.680  15.754  88.061  1.00  0.00    -0.276 OA
BRANCH  14  16
HETATM   16  C9  UNL     1       7.548  17.330  89.520  1.00  0.00     0.094 C 
HETATM   17  C10 UNL     1       8.371  16.832  90.669  1.00  0.00     0.076 C 
HETATM   18  N3  UNL     1       6.833  18.370  89.771  1.00  0.00    -0.233 N 
ATOM     19  H3  UNL     1       6.899  18.756  90.712  1.00  0.00     0.202 HD
BRANCH  18  20
HETATM   20  N4  UNL     1       6.015  18.994  88.923  1.00  0.00    -0.287 NA
HETATM   21  C11 UNL     1       5.184  19.631  88.066  1.00  0.00     0.308 C 
HETATM   22  C12 UNL     1       4.765  18.866  86.813  1.00  0.00     0.137 C 
HETATM   23  O6  UNL     1       4.729  20.797  88.205  1.00  0.00    -0.256 OA
ENDBRANCH  18  20
ENDBRANCH  14  16
ENDBRANCH  11  14
ENDBRANCH   5  11
BRANCH   7  24
HETATM   24  C5  UNL     1       5.589  15.763  83.074  1.00  0.00     0.290 C 
HETATM   25  N1  UNL     1       4.610  16.723  83.128  1.00  0.00    -0.328 N 
ATOM     26  H1  UNL     1       4.856  17.494  83.749  1.00  0.00     0.168 HD
HETATM   27  O3  UNL     1       5.544  14.645  82.441  1.00  0.00    -0.264 OA
BRANCH  25  28
HETATM   28  C4  UNL     1       3.330  16.899  82.523  1.00  0.00     0.127 C 
HETATM   29  C3  UNL     1       2.283  17.654  83.109  1.00  0.00     0.126 C 
BRANCH  29  30
HETATM   30  C2  UNL     1       1.698  16.864  84.300  1.00  0.00     0.311 C 
HETATM   31  O2  UNL     1       0.526  17.104  84.616  1.00  0.00    -0.258 OA
BRANCH  30  32
HETATM   32  O1  UNL     1       2.424  15.915  84.961  1.00  0.00    -0.321 OA
HETATM   33  C1  UNL     1       2.687  15.922  86.353  1.00  0.00     0.213 C 
ENDBRANCH  30  32
ENDBRANCH  29  30
BRANCH  29  34
HETATM   34  N8  UNL     1       1.205  18.338  82.518  1.00  0.00    -0.315 N 
HETATM   35  C15 UNL     1       1.393  19.639  81.915  1.00  0.00     0.283 C 
HETATM   36  O7  UNL     1       2.555  20.100  82.054  1.00  0.00    -0.265 OA
ATOM     37  H8  UNL     1       0.279  17.910  82.514  1.00  0.00     0.169 HD
BRANCH  35  38
HETATM   38  C16 UNL     1       0.323  20.282  81.206  1.00  0.00     0.183 A 
HETATM   39  O8  UNL     1      -0.907  20.363  81.652  1.00  0.00    -0.279 OA
HETATM   40  C17 UNL     1      -1.933  20.904  81.044  1.00  0.00     0.197 A 
HETATM   41  C18 UNL     1      -1.799  21.488  79.781  1.00  0.00     0.086 A 
HETATM   42  C22 UNL     1      -0.568  21.460  79.245  1.00  0.00     0.222 A 
HETATM   43  O11 UNL     1      -0.283  21.957  78.086  1.00  0.00    -0.284 OA
HETATM   44  C23 UNL     1       0.492  20.867  79.942  1.00  0.00     0.157 A 
BRANCH  40  45
HETATM   45  O9  UNL     1      -3.170  20.883  81.687  1.00  0.00    -0.340 OA
ATOM     46  H9  UNL     1      -3.480  21.683  82.096  1.00  0.00     0.220 HD
ENDBRANCH  40  45
BRANCH  41  47
HETATM   47  C19 UNL     1      -2.970  22.001  79.091  1.00  0.00     0.086 C 
HETATM   48  C20 UNL     1      -3.205  21.491  77.704  1.00  0.00     0.051 C 
HETATM   49  C21 UNL     1      -4.284  21.856  79.853  1.00  0.00     0.051 C 
BRANCH  47  50
HETATM   50  O10 UNL     1      -2.715  23.421  78.983  1.00  0.00    -0.385 OA
ATOM     51  H10 UNL     1      -3.575  23.797  78.835  1.00  0.00     0.211 HD
ENDBRANCH  47  50
ENDBRANCH  41  47
BRANCH  44  52
HETATM   52  O12 UNL     1       1.725  20.888  79.339  1.00  0.00    -0.355 OA
ATOM     53  H12 UNL     1       2.144  21.712  79.122  1.00  0.00     0.218 HD
ENDBRANCH  44  52
ENDBRANCH  35  38
ENDBRANCH  29  34
ENDBRANCH  25  28
ENDBRANCH   7  24
ENDBRANCH   1   4
TORSDOF 15
ENDMDL
MODEL 4
REMARK VINA RESULT: -9.967761735      1.465      1.954
REMARK  15 active torsions:
REMARK  status: ('A' for Active; 'I' for Inactive)
REMARK    1  A    between atoms: O1_2  and  C2_3 
REMARK    2  A    between atoms: C2_3  and  C3_5 
REMARK    3  A    between atoms: C3_5  and  N8_34 
REMARK    4  A    between atoms: C4_6  and  N1_7 
REMARK       I    between atoms: N1_7  and  C5_9 
REMARK    5  A    between atoms: C5_9  and  C6_11 
REMARK    6  A    between atoms: C7_14  and  S1_15 
REMARK    7  A    between atoms: S1_15  and  C8_18 
REMARK    8  A    between atoms: C8_18  and  C9_20 
REMARK    9  A    between atoms: N3_22  and  N4_24 
REMARK       I    between atoms: N4_24  and  C11_25 
REMARK   10  A    between atoms: N5_28  and  C13_29 
REMARK       I    between atoms: N8_34  and  C15_36 
REMARK   11  A    between atoms: C15_36  and  C16_38 
REMARK   12  A    between atoms: C17_40  and  O9_41 
REMARK   13  A    between atoms: C18_43  and  C19_44 
REMARK   14  A    between atoms: C19_44  and  O10_47 
REMARK   15  A    between atoms: C23_51  and  O12_52 
ROOT
HETATM    1  C13 UNL     1      10.529  15.518  84.412  1.00  0.00     0.275 C 
HETATM    2  C14 UNL     1      10.799  14.880  83.106  1.00  0.00     0.081 C 
HETATM    3  N6  UNL     1      11.001  14.391  82.079  1.00  0.00    -0.195 NA
ENDROOT
BRANCH   1   4
HETATM    4  N5  UNL     1       9.146  15.926  84.481  1.00  0.00    -0.254 N 
HETATM    5  C7  UNL     1       8.524  16.594  85.393  1.00  0.00     0.201 A 
HETATM    6  N2  UNL     1       7.195  16.622  84.971  1.00  0.00    -0.314 N 
HETATM    7  C6  UNL     1       7.068  15.962  83.805  1.00  0.00     0.192 A 
ATOM      8  H2  UNL     1       6.431  17.076  85.471  1.00  0.00     0.170 HD
HETATM    9  N7  UNL     1       8.275  15.529  83.491  1.00  0.00    -0.276 N 
ATOM     10  H7  UNL     1       8.520  14.994  82.659  1.00  0.00     0.189 HD
BRANCH   5  11
HETATM   11  S1  UNL     1       8.930  17.292  86.924  1.00  0.00     0.143 S 
HETATM   12  O4  UNL     1       9.727  18.611  86.573  1.00  0.00    -0.242 OA
HETATM   13  S2  UNL     1      10.019  16.312  87.774  1.00  0.00     0.024 SA
BRANCH  11  14
HETATM   14  C8  UNL     1       7.639  17.855  87.881  1.00  0.00     0.269 C 
HETATM   15  O5  UNL     1       6.809  18.700  87.415  1.00  0.00    -0.276 OA
BRANCH  14  16
HETATM   16  C9  UNL     1       7.403  17.425  89.255  1.00  0.00     0.094 C 
HETATM   17  C10 UNL     1       7.792  18.305  90.405  1.00  0.00     0.076 C 
HETATM   18  N3  UNL     1       6.878  16.297  89.584  1.00  0.00    -0.233 N 
ATOM     19  H3  UNL     1       6.770  16.115  90.582  1.00  0.00     0.202 HD
BRANCH  18  20
HETATM   20  N4  UNL     1       6.460  15.344  88.752  1.00  0.00    -0.287 NA
HETATM   21  C11 UNL     1       6.038  14.378  87.904  1.00  0.00     0.308 C 
HETATM   22  C12 UNL     1       4.914  13.469  88.395  1.00  0.00     0.137 C 
HETATM   23  O6  UNL     1       6.489  14.157  86.749  1.00  0.00    -0.256 OA
ENDBRANCH  18  20
ENDBRANCH  14  16
ENDBRANCH  11  14
ENDBRANCH   5  11
BRANCH   7  24
HETATM   24  C5  UNL     1       5.759  15.778  83.131  1.00  0.00     0.290 C 
HETATM   25  N1  UNL     1       4.793  16.752  83.124  1.00  0.00    -0.328 N 
ATOM     26  H1  UNL     1       5.052  17.560  83.690  1.00  0.00     0.168 HD
HETATM   27  O3  UNL     1       5.696  14.620  82.575  1.00  0.00    -0.264 OA
BRANCH  25  28
HETATM   28  C4  UNL     1       3.512  16.904  82.514  1.00  0.00     0.127 C 
HETATM   29  C3  UNL     1       2.446  17.633  83.099  1.00  0.00     0.126 C 
BRANCH  29  30
HETATM   30  C2  UNL     1       1.873  16.825  84.284  1.00  0.00     0.311 C 
HETATM   31  O2  UNL     1       0.690  17.027  84.586  1.00  0.00    -0.258 OA
BRANCH  30  32
HETATM   32  O1  UNL     1       2.622  15.900  84.953  1.00  0.00    -0.321 OA
HETATM   33  C1  UNL     1       3.146  16.076  86.257  1.00  0.00     0.213 C 
ENDBRANCH  30  32
ENDBRANCH  29  30
BRANCH  29  34
HETATM   34  N8  UNL     1       1.357  18.296  82.506  1.00  0.00    -0.315 N 
HETATM   35  C15 UNL     1       1.515  19.612  81.926  1.00  0.00     0.283 C 
HETATM   36  O7  UNL     1       2.663  20.102  82.085  1.00  0.00    -0.265 OA
ATOM     37  H8  UNL     1       0.443  17.844  82.485  1.00  0.00     0.169 HD
BRANCH  35  38
HETATM   38  C16 UNL     1       0.436  20.236  81.214  1.00  0.00     0.183 A 
HETATM   39  O8  UNL     1      -0.795  20.300  81.660  1.00  0.00    -0.279 OA
HETATM   40  C17 UNL     1      -1.829  20.824  81.050  1.00  0.00     0.197 A 
HETATM   41  C18 UNL     1      -1.704  21.406  79.786  1.00  0.00     0.086 A 
HETATM   42  C22 UNL     1      -0.473  21.395  79.250  1.00  0.00     0.222 A 
HETATM   43  O11 UNL     1      -0.195  21.894  78.090  1.00  0.00    -0.284 OA
HETATM   44  C23 UNL     1       0.596  20.821  79.949  1.00  0.00     0.157 A 
BRANCH  40  45
HETATM   45  O9  UNL     1      -3.066  20.786  81.693  1.00  0.00    -0.340 OA
ATOM     46  H9  UNL     1      -3.472  21.610  81.940  1.00  0.00     0.220 HD
ENDBRANCH  40  45
BRANCH  41  47
HETATM   47  C19 UNL     1      -2.882  21.900  79.094  1.00  0.00     0.086 C 
HETATM   48  C20 UNL     1      -3.111  21.381  77.709  1.00  0.00     0.051 C 
HETATM   49  C21 UNL     1      -4.193  21.740  79.857  1.00  0.00     0.051 C 
BRANCH  47  50
HETATM   50  O10 UNL     1      -2.648  23.323  78.981  1.00  0.00    -0.385 OA
ATOM     51  H10 UNL     1      -3.047  23.555  78.150  1.00  0.00     0.211 HD
ENDBRANCH  47  50
ENDBRANCH  41  47
BRANCH  44  52
HETATM   52  O12 UNL     1       1.829  20.858  79.346  1.00  0.00    -0.355 OA
ATOM     53  H12 UNL     1       2.470  21.513  79.596  1.00  0.00     0.218 HD
ENDBRANCH  44  52
ENDBRANCH  35  38
ENDBRANCH  29  34
ENDBRANCH  25  28
ENDBRANCH   7  24
ENDBRANCH   1   4
TORSDOF 15
ENDMDL
MODEL 5
REMARK VINA RESULT: -9.965496902      0.940      1.165
REMARK  15 active torsions:
REMARK  status: ('A' for Active; 'I' for Inactive)
REMARK    1  A    between atoms: O1_2  and  C2_3 
REMARK    2  A    between atoms: C2_3  and  C3_5 
REMARK    3  A    between atoms: C3_5  and  N8_34 
REMARK    4  A    between atoms: C4_6  and  N1_7 
REMARK       I    between atoms: N1_7  and  C5_9 
REMARK    5  A    between atoms: C5_9  and  C6_11 
REMARK    6  A    between atoms: C7_14  and  S1_15 
REMARK    7  A    between atoms: S1_15  and  C8_18 
REMARK    8  A    between atoms: C8_18  and  C9_20 
REMARK    9  A    between atoms: N3_22  and  N4_24 
REMARK       I    between atoms: N4_24  and  C11_25 
REMARK   10  A    between atoms: N5_28  and  C13_29 
REMARK       I    between atoms: N8_34  and  C15_36 
REMARK   11  A    between atoms: C15_36  and  C16_38 
REMARK   12  A    between atoms: C17_40  and  O9_41 
REMARK   13  A    between atoms: C18_43  and  C19_44 
REMARK   14  A    between atoms: C19_44  and  O10_47 
REMARK   15  A    between atoms: C23_51  and  O12_52 
ROOT
HETATM    1  C13 UNL     1      10.452  15.514  84.080  1.00  0.00     0.275 C 
HETATM    2  C14 UNL     1      10.661  14.756  82.828  1.00  0.00     0.081 C 
HETATM    3  N6  UNL     1      10.812  14.171  81.843  1.00  0.00    -0.195 NA
ENDROOT
BRANCH   1   4
HETATM    4  N5  UNL     1       9.040  15.728  84.293  1.00  0.00    -0.254 N 
HETATM    5  C7  UNL     1       8.403  16.046  85.369  1.00  0.00     0.201 A 
HETATM    6  N2  UNL     1       7.058  16.038  85.004  1.00  0.00    -0.314 N 
HETATM    7  C6  UNL     1       6.935  15.710  83.704  1.00  0.00     0.192 A 
ATOM      8  H2  UNL     1       6.280  16.248  85.629  1.00  0.00     0.170 HD
HETATM    9  N7  UNL     1       8.161  15.520  83.254  1.00  0.00    -0.276 N 
ATOM     10  H7  UNL     1       8.414  15.262  82.300  1.00  0.00     0.189 HD
BRANCH   5  11
HETATM   11  S1  UNL     1       8.820  16.343  87.023  1.00  0.00     0.143 S 
HETATM   12  O4  UNL     1      10.374  16.068  87.109  1.00  0.00    -0.242 OA
HETATM   13  S2  UNL     1       8.097  15.206  88.050  1.00  0.00     0.024 SA
BRANCH  11  14
HETATM   14  C8  UNL     1       8.672  17.946  87.579  1.00  0.00     0.269 C 
HETATM   15  O5  UNL     1       9.079  18.918  86.865  1.00  0.00    -0.276 OA
BRANCH  14  16
HETATM   16  C9  UNL     1       8.093  18.304  88.869  1.00  0.00     0.094 C 
HETATM   17  C10 UNL     1       8.974  18.588  90.047  1.00  0.00     0.076 C 
HETATM   18  N3  UNL     1       6.829  18.389  89.099  1.00  0.00    -0.233 N 
ATOM     19  H3  UNL     1       6.552  18.646  90.046  1.00  0.00     0.202 HD
BRANCH  18  20
HETATM   20  N4  UNL     1       5.847  18.177  88.224  1.00  0.00    -0.287 NA
HETATM   21  C11 UNL     1       4.853  17.961  87.332  1.00  0.00     0.308 C 
HETATM   22  C12 UNL     1       3.423  18.168  87.826  1.00  0.00     0.137 C 
HETATM   23  O6  UNL     1       4.998  17.600  86.134  1.00  0.00    -0.256 OA
ENDBRANCH  18  20
ENDBRANCH  14  16
ENDBRANCH  11  14
ENDBRANCH   5  11
BRANCH   7  24
HETATM   24  C5  UNL     1       5.617  15.569  83.038  1.00  0.00     0.290 C 
HETATM   25  N1  UNL     1       4.657  16.548  83.094  1.00  0.00    -0.328 N 
ATOM     26  H1  UNL     1       4.929  17.324  83.697  1.00  0.00     0.168 HD
HETATM   27  O3  UNL     1       5.540  14.442  82.424  1.00  0.00    -0.264 OA
BRANCH  25  28
HETATM   28  C4  UNL     1       3.370  16.739  82.508  1.00  0.00     0.127 C 
HETATM   29  C3  UNL     1       2.353  17.536  83.093  1.00  0.00     0.126 C 
BRANCH  29  30
HETATM   30  C2  UNL     1       1.773  16.794  84.317  1.00  0.00     0.311 C 
HETATM   31  O2  UNL     1       2.493  15.946  84.858  1.00  0.00    -0.258 OA
BRANCH  30  32
HETATM   32  O1  UNL     1       0.530  17.079  84.808  1.00  0.00    -0.321 OA
HETATM   33  C1  UNL     1       0.260  17.473  86.141  1.00  0.00     0.213 C 
ENDBRANCH  30  32
ENDBRANCH  29  30
BRANCH  29  34
HETATM   34  N8  UNL     1       1.281  18.229  82.503  1.00  0.00    -0.315 N 
HETATM   35  C15 UNL     1       1.470  19.546  81.935  1.00  0.00     0.283 C 
HETATM   36  O7  UNL     1       2.629  20.008  82.102  1.00  0.00    -0.265 OA
ATOM     37  H8  UNL     1       0.357  17.797  82.475  1.00  0.00     0.169 HD
BRANCH  35  38
HETATM   38  C16 UNL     1       0.408  20.200  81.226  1.00  0.00     0.183 A 
HETATM   39  O8  UNL     1      -0.823  20.288  81.669  1.00  0.00    -0.279 OA
HETATM   40  C17 UNL     1      -1.842  20.840  81.061  1.00  0.00     0.197 A 
HETATM   41  C18 UNL     1      -1.700  21.432  79.802  1.00  0.00     0.086 A 
HETATM   42  C22 UNL     1      -0.468  21.398  79.270  1.00  0.00     0.222 A 
HETATM   43  O11 UNL     1      -0.175  21.901  78.116  1.00  0.00    -0.284 OA
HETATM   44  C23 UNL     1       0.586  20.793  79.967  1.00  0.00     0.157 A 
BRANCH  40  45
HETATM   45  O9  UNL     1      -3.082  20.824  81.699  1.00  0.00    -0.340 OA
ATOM     46  H9  UNL     1      -3.246  20.152  82.350  1.00  0.00     0.220 HD
ENDBRANCH  40  45
BRANCH  41  47
HETATM   47  C19 UNL     1      -2.865  21.958  79.112  1.00  0.00     0.086 C 
HETATM   48  C20 UNL     1      -3.104  21.453  77.723  1.00  0.00     0.051 C 
HETATM   49  C21 UNL     1      -4.181  21.826  79.872  1.00  0.00     0.051 C 
BRANCH  47  50
HETATM   50  O10 UNL     1      -2.595  23.376  79.007  1.00  0.00    -0.385 OA
ATOM     51  H10 UNL     1      -3.196  23.769  79.629  1.00  0.00     0.211 HD
ENDBRANCH  47  50
ENDBRANCH  41  47
BRANCH  44  52
HETATM   52  O12 UNL     1       1.821  20.809  79.368  1.00  0.00    -0.355 OA
ATOM     53  H12 UNL     1       2.220  21.629  79.103  1.00  0.00     0.218 HD
ENDBRANCH  44  52
ENDBRANCH  35  38
ENDBRANCH  29  34
ENDBRANCH  25  28
ENDBRANCH   7  24
ENDBRANCH   1   4
TORSDOF 15
ENDMDL
