MODEL 1
REMARK VINA RESULT: -6.407134317      0.000      0.000
REMARK  6 active torsions:
REMARK  status: ('A' for Active; 'I' for Inactive)
REMARK    1  A    between atoms: C2_2  and  C3_3 
REMARK    2  A    between atoms: C2_2  and  N1_6 
REMARK    3  A    between atoms: C4_7  and  N2_8 
REMARK    4  A    between atoms: C6_10  and  C7_11 
REMARK    5  A    between atoms: C9_16  and  C10_17 
REMARK    6  A    between atoms: C11_21  and  N6_22 
ROOT
HETATM    1  N1  UNL     1      50.545  18.741  33.992  1.00  0.00    -0.116 N 
HETATM    2  C4  UNL     1      51.743  18.719  34.519  1.00  0.00     0.711 A 
HETATM    3  N5  UNL     1      52.102  17.770  35.473  1.00  0.00    -0.021 N 
ATOM      4  H5  UNL     1      53.046  17.785  35.859  1.00  0.00     0.203 HD
HETATM    5  C11 UNL     1      51.253  16.857  35.888  1.00  0.00     0.694 A 
HETATM    6  N7  UNL     1      50.023  16.859  35.366  1.00  0.00    -0.140 N 
ATOM      7  H7  UNL     1      49.344  16.161  35.670  1.00  0.00     0.189 HD
HETATM    8  C12 UNL     1      49.676  17.764  34.453  1.00  0.00     0.356 A 
HETATM    9  O5  UNL     1      48.492  17.683  34.020  1.00  0.00    -0.245 OA
ENDROOT
BRANCH   2  10
HETATM   10  N2  UNL     1      52.721  19.643  34.139  1.00  0.00    -0.151 N 
HETATM   11  C5  UNL     1      53.487  19.575  33.063  1.00  0.00     0.134 A 
HETATM   12  C6  UNL     1      54.315  20.669  32.964  1.00  0.00     0.072 A 
HETATM   13  C8  UNL     1      54.026  21.450  34.057  1.00  0.00     0.093 A 
HETATM   14  N4  UNL     1      54.639  22.679  34.363  1.00  0.00    -0.099 NA
HETATM   15  C9  UNL     1      53.023  20.771  34.766  1.00  0.00     0.119 A 
BRANCH  12  16
HETATM   16  C7  UNL     1      55.283  20.920  31.910  1.00  0.00     0.268 C 
HETATM   17  N3  UNL     1      54.938  21.686  30.772  1.00  0.00    -0.057 NA
HETATM   18  O3  UNL     1      56.451  20.464  31.980  1.00  0.00    -0.271 OA
ENDBRANCH  12  16
BRANCH  15  19
HETATM   19  C10 UNL     1      52.475  21.339  35.997  1.00  0.00     0.291 C 
HETATM   20  O4  UNL     1      52.424  20.716  37.083  1.00  0.00    -0.300 OA
ENDBRANCH  15  19
ENDBRANCH   2  10
BRANCH   1  21
HETATM   21  C2  UNL     1      49.982  19.574  33.043  1.00  0.00     0.209 C 
HETATM   22  C1  UNL     1      49.972  21.014  33.010  1.00  0.00     0.045 C 
BRANCH  21  23
HETATM   23  C3  UNL     1      50.456  19.093  31.681  1.00  0.00     0.197 C 
HETATM   24  O1  UNL     1      50.367  17.923  31.298  1.00  0.00    -0.646 OA
HETATM   25  O2  UNL     1      51.024  20.023  30.808  1.00  0.00    -0.646 OA
ENDBRANCH  21  23
ENDBRANCH   1  21
BRANCH   5  26
HETATM   26  N6  UNL     1      51.562  15.970  36.771  1.00  0.00    -0.234 N 
ATOM     27  H62 UNL     1      52.541  15.840  37.026  1.00  0.00     0.174 HD
ATOM     28  H61 UNL     1      50.864  15.386  37.231  1.00  0.00     0.174 HD
ENDBRANCH   5  26
TORSDOF 6
ENDMDL
MODEL 2
REMARK VINA RESULT: -6.327461458      2.306      3.775
REMARK  6 active torsions:
REMARK  status: ('A' for Active; 'I' for Inactive)
REMARK    1  A    between atoms: C2_2  and  C3_3 
REMARK    2  A    between atoms: C2_2  and  N1_6 
REMARK    3  A    between atoms: C4_7  and  N2_8 
REMARK    4  A    between atoms: C6_10  and  C7_11 
REMARK    5  A    between atoms: C9_16  and  C10_17 
REMARK    6  A    between atoms: C11_21  and  N6_22 
ROOT
HETATM    1  N1  UNL     1      52.673  17.853  36.176  1.00  0.00    -0.116 N 
HETATM    2  C4  UNL     1      51.856  18.209  35.218  1.00  0.00     0.711 A 
HETATM    3  N5  UNL     1      50.708  17.474  34.928  1.00  0.00    -0.021 N 
ATOM      4  H5  UNL     1      50.096  17.784  34.174  1.00  0.00     0.203 HD
HETATM    5  C11 UNL     1      50.397  16.390  35.603  1.00  0.00     0.694 A 
HETATM    6  N7  UNL     1      51.216  16.005  36.586  1.00  0.00    -0.140 N 
ATOM      7  H7  UNL     1      50.999  15.167  37.126  1.00  0.00     0.189 HD
HETATM    8  C12 UNL     1      52.314  16.705  36.867  1.00  0.00     0.356 A 
HETATM    9  O5  UNL     1      53.023  16.261  37.813  1.00  0.00    -0.245 OA
ENDROOT
BRANCH   2  10
HETATM   10  N2  UNL     1      52.093  19.350  34.447  1.00  0.00    -0.151 N 
HETATM   11  C5  UNL     1      52.833  19.417  33.354  1.00  0.00     0.134 A 
HETATM   12  C6  UNL     1      52.823  20.682  32.814  1.00  0.00     0.072 A 
HETATM   13  C8  UNL     1      52.019  21.429  33.642  1.00  0.00     0.093 A 
HETATM   14  N4  UNL     1      51.721  22.794  33.471  1.00  0.00    -0.099 NA
HETATM   15  C9  UNL     1      51.583  20.557  34.651  1.00  0.00     0.119 A 
BRANCH  12  16
HETATM   16  C7  UNL     1      53.526  21.111  31.616  1.00  0.00     0.268 C 
HETATM   17  N3  UNL     1      54.923  21.331  31.631  1.00  0.00    -0.057 NA
HETATM   18  O3  UNL     1      52.912  21.297  30.536  1.00  0.00    -0.271 OA
ENDBRANCH  12  16
BRANCH  15  19
HETATM   19  C10 UNL     1      50.693  21.036  35.708  1.00  0.00     0.291 C 
HETATM   20  O4  UNL     1      51.019  21.914  36.540  1.00  0.00    -0.300 OA
ENDBRANCH  15  19
ENDBRANCH   2  10
BRANCH   1  21
HETATM   21  C2  UNL     1      53.846  18.425  36.633  1.00  0.00     0.209 C 
HETATM   22  C1  UNL     1      55.009  18.807  35.874  1.00  0.00     0.045 C 
BRANCH  21  23
HETATM   23  C3  UNL     1      53.462  19.611  37.502  1.00  0.00     0.197 C 
HETATM   24  O1  UNL     1      52.630  19.554  38.413  1.00  0.00    -0.646 OA
HETATM   25  O2  UNL     1      54.084  20.839  37.264  1.00  0.00    -0.646 OA
ENDBRANCH  21  23
ENDBRANCH   1  21
BRANCH   5  26
HETATM   26  N6  UNL     1      49.343  15.693  35.353  1.00  0.00    -0.234 N 
ATOM     27  H62 UNL     1      49.086  15.507  34.383  1.00  0.00     0.174 HD
ATOM     28  H61 UNL     1      48.746  15.314  36.088  1.00  0.00     0.174 HD
ENDBRANCH   5  26
TORSDOF 6
ENDMDL
MODEL 3
REMARK VINA RESULT: -6.072300356      2.482      4.713
REMARK  6 active torsions:
REMARK  status: ('A' for Active; 'I' for Inactive)
REMARK    1  A    between atoms: C2_2  and  C3_3 
REMARK    2  A    between atoms: C2_2  and  N1_6 
REMARK    3  A    between atoms: C4_7  and  N2_8 
REMARK    4  A    between atoms: C6_10  and  C7_11 
REMARK    5  A    between atoms: C9_16  and  C10_17 
REMARK    6  A    between atoms: C11_21  and  N6_22 
ROOT
HETATM    1  N1  UNL     1      52.252  17.962  36.372  1.00  0.00    -0.116 N 
HETATM    2  C4  UNL     1      51.329  18.343  35.526  1.00  0.00     0.711 A 
HETATM    3  N5  UNL     1      50.285  17.497  35.157  1.00  0.00    -0.021 N 
ATOM      4  H5  UNL     1      49.584  17.831  34.495  1.00  0.00     0.203 HD
HETATM    5  C11 UNL     1      50.183  16.279  35.641  1.00  0.00     0.694 A 
HETATM    6  N7  UNL     1      51.114  15.867  36.506  1.00  0.00    -0.140 N 
ATOM      7  H7  UNL     1      51.058  14.926  36.897  1.00  0.00     0.189 HD
HETATM    8  C12 UNL     1      52.113  16.673  36.861  1.00  0.00     0.356 A 
HETATM    9  O5  UNL     1      52.942  16.191  37.684  1.00  0.00    -0.245 OA
ENDROOT
BRANCH   2  10
HETATM   10  N2  UNL     1      51.343  19.621  34.961  1.00  0.00    -0.151 N 
HETATM   11  C5  UNL     1      50.861  20.724  35.507  1.00  0.00     0.134 A 
HETATM   12  C6  UNL     1      51.076  21.820  34.704  1.00  0.00     0.072 A 
HETATM   13  C8  UNL     1      51.733  21.342  33.596  1.00  0.00     0.093 A 
HETATM   14  N4  UNL     1      52.156  22.120  32.502  1.00  0.00    -0.099 NA
HETATM   15  C9  UNL     1      51.881  19.961  33.797  1.00  0.00     0.119 A 
BRANCH  12  16
HETATM   16  C7  UNL     1      50.678  23.188  34.993  1.00  0.00     0.268 C 
HETATM   17  N3  UNL     1      49.350  23.622  34.774  1.00  0.00    -0.057 NA
HETATM   18  O3  UNL     1      51.503  24.021  35.445  1.00  0.00    -0.271 OA
ENDBRANCH  12  16
BRANCH  15  19
HETATM   19  C10 UNL     1      52.554  19.136  32.795  1.00  0.00     0.291 C 
HETATM   20  O4  UNL     1      53.794  18.957  32.768  1.00  0.00    -0.300 OA
ENDBRANCH  15  19
ENDBRANCH   2  10
BRANCH   1  21
HETATM   21  C2  UNL     1      53.356  18.625  36.875  1.00  0.00     0.209 C 
HETATM   22  C1  UNL     1      54.399  19.303  36.149  1.00  0.00     0.045 C 
BRANCH  21  23
HETATM   23  C3  UNL     1      52.860  19.578  37.951  1.00  0.00     0.197 C 
HETATM   24  O1  UNL     1      53.226  20.753  38.048  1.00  0.00    -0.646 OA
HETATM   25  O2  UNL     1      51.936  19.103  38.885  1.00  0.00    -0.646 OA
ENDBRANCH  21  23
ENDBRANCH   1  21
BRANCH   5  26
HETATM   26  N6  UNL     1      49.228  15.479  35.313  1.00  0.00    -0.234 N 
ATOM     27  H62 UNL     1      48.284  15.849  35.197  1.00  0.00     0.174 HD
ATOM     28  H61 UNL     1      49.374  14.480  35.163  1.00  0.00     0.174 HD
ENDBRANCH   5  26
TORSDOF 6
ENDMDL
MODEL 4
REMARK VINA RESULT: -5.914683653      2.362      5.119
REMARK  6 active torsions:
REMARK  status: ('A' for Active; 'I' for Inactive)
REMARK    1  A    between atoms: C2_2  and  C3_3 
REMARK    2  A    between atoms: C2_2  and  N1_6 
REMARK    3  A    between atoms: C4_7  and  N2_8 
REMARK    4  A    between atoms: C6_10  and  C7_11 
REMARK    5  A    between atoms: C9_16  and  C10_17 
REMARK    6  A    between atoms: C11_21  and  N6_22 
ROOT
HETATM    1  N1  UNL     1      52.089  20.853  33.163  1.00  0.00    -0.116 N 
HETATM    2  C4  UNL     1      51.087  20.281  33.779  1.00  0.00     0.711 A 
HETATM    3  N5  UNL     1      49.800  20.293  33.246  1.00  0.00    -0.021 N 
ATOM      4  H5  UNL     1      49.045  19.835  33.756  1.00  0.00     0.203 HD
HETATM    5  C11 UNL     1      49.536  20.883  32.101  1.00  0.00     0.694 A 
HETATM    6  N7  UNL     1      50.543  21.475  31.452  1.00  0.00    -0.140 N 
ATOM      7  H7  UNL     1      50.366  21.940  30.561  1.00  0.00     0.189 HD
HETATM    8  C12 UNL     1      51.775  21.465  31.959  1.00  0.00     0.356 A 
HETATM    9  O5  UNL     1      52.657  22.051  31.272  1.00  0.00    -0.245 OA
ENDROOT
BRANCH   2  10
HETATM   10  N2  UNL     1      51.264  19.621  34.999  1.00  0.00    -0.151 N 
HETATM   11  C5  UNL     1      51.640  18.364  35.162  1.00  0.00     0.134 A 
HETATM   12  C6  UNL     1      51.760  18.042  36.494  1.00  0.00     0.072 A 
HETATM   13  C8  UNL     1      51.434  19.187  37.180  1.00  0.00     0.093 A 
HETATM   14  N4  UNL     1      51.421  19.319  38.581  1.00  0.00    -0.099 NA
HETATM   15  C9  UNL     1      51.130  20.151  36.206  1.00  0.00     0.119 A 
BRANCH  12  16
HETATM   16  C7  UNL     1      52.153  16.751  37.033  1.00  0.00     0.268 C 
HETATM   17  N3  UNL     1      51.343  15.607  36.846  1.00  0.00    -0.057 NA
HETATM   18  O3  UNL     1      53.222  16.616  37.680  1.00  0.00    -0.271 OA
ENDBRANCH  12  16
BRANCH  15  19
HETATM   19  C10 UNL     1      50.743  21.505  36.602  1.00  0.00     0.291 C 
HETATM   20  O4  UNL     1      51.560  22.371  36.992  1.00  0.00    -0.300 OA
ENDBRANCH  15  19
ENDBRANCH   2  10
BRANCH   1  21
HETATM   21  C2  UNL     1      53.426  20.957  33.499  1.00  0.00     0.209 C 
HETATM   22  C1  UNL     1      54.008  21.540  34.681  1.00  0.00     0.045 C 
BRANCH  21  23
HETATM   23  C3  UNL     1      54.046  19.581  33.321  1.00  0.00     0.197 C 
HETATM   24  O1  UNL     1      53.805  18.839  32.364  1.00  0.00    -0.646 OA
HETATM   25  O2  UNL     1      54.943  19.125  34.290  1.00  0.00    -0.646 OA
ENDBRANCH  21  23
ENDBRANCH   1  21
BRANCH   5  26
HETATM   26  N6  UNL     1      48.354  20.909  31.588  1.00  0.00    -0.234 N 
ATOM     27  H62 UNL     1      47.701  21.637  31.877  1.00  0.00     0.174 HD
ATOM     28  H61 UNL     1      48.038  20.226  30.899  1.00  0.00     0.174 HD
ENDBRANCH   5  26
TORSDOF 6
ENDMDL
MODEL 5
REMARK VINA RESULT: -5.885516779      2.186      5.460
REMARK  6 active torsions:
REMARK  status: ('A' for Active; 'I' for Inactive)
REMARK    1  A    between atoms: C2_2  and  C3_3 
REMARK    2  A    between atoms: C2_2  and  N1_6 
REMARK    3  A    between atoms: C4_7  and  N2_8 
REMARK    4  A    between atoms: C6_10  and  C7_11 
REMARK    5  A    between atoms: C9_16  and  C10_17 
REMARK    6  A    between atoms: C11_21  and  N6_22 
ROOT
HETATM    1  N1  UNL     1      54.587  20.584  34.784  1.00  0.00    -0.116 N 
HETATM    2  C4  UNL     1      54.010  19.862  35.710  1.00  0.00     0.711 A 
HETATM    3  N5  UNL     1      54.477  19.851  37.022  1.00  0.00    -0.021 N 
ATOM      4  H5  UNL     1      53.999  19.276  37.716  1.00  0.00     0.203 HD
HETATM    5  C11 UNL     1      55.519  20.564  37.388  1.00  0.00     0.694 A 
HETATM    6  N7  UNL     1      56.126  21.310  36.460  1.00  0.00    -0.140 N 
ATOM      7  H7  UNL     1      56.937  21.873  36.717  1.00  0.00     0.189 HD
HETATM    8  C12 UNL     1      55.682  21.323  35.204  1.00  0.00     0.356 A 
HETATM    9  O5  UNL     1      56.323  22.059  34.402  1.00  0.00    -0.245 OA
ENDROOT
BRANCH   2  10
HETATM   10  N2  UNL     1      52.890  19.075  35.425  1.00  0.00    -0.151 N 
HETATM   11  C5  UNL     1      52.009  19.285  34.462  1.00  0.00     0.134 A 
HETATM   12  C6  UNL     1      51.053  18.297  34.429  1.00  0.00     0.072 A 
HETATM   13  C8  UNL     1      51.383  17.431  35.443  1.00  0.00     0.093 A 
HETATM   14  N4  UNL     1      50.673  16.263  35.778  1.00  0.00    -0.099 NA
HETATM   15  C9  UNL     1      52.539  17.955  36.042  1.00  0.00     0.119 A 
BRANCH  12  16
HETATM   16  C7  UNL     1      49.938  18.213  33.501  1.00  0.00     0.268 C 
HETATM   17  N3  UNL     1      50.100  18.542  32.135  1.00  0.00    -0.057 NA
HETATM   18  O3  UNL     1      48.800  17.846  33.886  1.00  0.00    -0.271 OA
ENDBRANCH  12  16
BRANCH  15  19
HETATM   19  C10 UNL     1      53.167  17.264  37.167  1.00  0.00     0.291 C 
HETATM   20  O4  UNL     1      52.931  17.540  38.366  1.00  0.00    -0.300 OA
ENDBRANCH  15  19
ENDBRANCH   2  10
BRANCH   1  21
HETATM   21  C2  UNL     1      54.296  20.749  33.442  1.00  0.00     0.209 C 
HETATM   22  C1  UNL     1      54.153  21.976  32.703  1.00  0.00     0.045 C 
BRANCH  21  23
HETATM   23  C3  UNL     1      55.245  19.856  32.660  1.00  0.00     0.197 C 
HETATM   24  O1  UNL     1      55.281  18.626  32.773  1.00  0.00    -0.646 OA
HETATM   25  O2  UNL     1      56.130  20.453  31.759  1.00  0.00    -0.646 OA
ENDBRANCH  21  23
ENDBRANCH   1  21
BRANCH   5  26
HETATM   26  N6  UNL     1      55.969  20.569  38.595  1.00  0.00    -0.234 N 
ATOM     27  H62 UNL     1      55.969  21.441  39.124  1.00  0.00     0.174 HD
ATOM     28  H61 UNL     1      56.331  19.731  39.051  1.00  0.00     0.174 HD
ENDBRANCH   5  26
TORSDOF 6
ENDMDL
