MODEL 1
REMARK VINA RESULT: -6.344856055      0.000      0.000
REMARK  4 active torsions:
REMARK  status: ('A' for Active; 'I' for Inactive)
REMARK    1  A    between atoms: C2_2  and  N1_3 
REMARK    2  A    between atoms: N1_3  and  C3_6 
REMARK    3  A    between atoms: C3_6  and  C4_7 
REMARK    4  A    between atoms: C4_7  and  N2_8 
ROOT
HETATM    1  N2  UNL     1      35.061  34.912  33.734  1.00  0.00    -0.373 N 
ATOM      2  H2  UNL     1      35.858  35.419  33.346  1.00  0.00     0.161 HD
HETATM    3  C5  UNL     1      35.177  33.734  34.259  1.00  0.00     0.134 A 
HETATM    4  N3  UNL     1      36.254  32.833  34.469  1.00  0.00    -0.325 N 
ATOM      5  H3  UNL     1      37.254  32.856  34.266  1.00  0.00     0.169 HD
HETATM    6  C6  UNL     1      35.386  31.894  35.072  1.00  0.00     0.139 A 
HETATM    7  N4  UNL     1      34.963  30.748  35.685  1.00  0.00    -0.337 N 
ATOM      8  H4  UNL     1      35.530  29.943  35.948  1.00  0.00     0.168 HD
HETATM    9  C7  UNL     1      33.638  30.906  35.870  1.00  0.00     0.182 A 
HETATM   10  N5  UNL     1      33.253  32.101  35.388  1.00  0.00    -0.346 N 
ATOM     11  H5  UNL     1      32.301  32.465  35.402  1.00  0.00     0.167 HD
HETATM   12  C8  UNL     1      34.324  32.737  34.886  1.00  0.00     0.122 A 
ENDROOT
BRANCH   1  13
HETATM   13  C4  UNL     1      33.716  35.462  33.737  1.00  0.00     0.148 C 
BRANCH  13  14
HETATM   14  C3  UNL     1      33.413  35.921  32.330  1.00  0.00     0.251 C 
BRANCH  14  15
HETATM   15  N1  UNL     1      33.789  37.277  32.126  1.00  0.00    -0.074 N 
ATOM     16  H12 UNL     1      34.793  37.366  31.973  1.00  0.00     0.277 HD
ATOM     17  H11 UNL     1      33.711  37.818  32.987  1.00  0.00     0.277 HD
BRANCH  15  18
HETATM   18  C2  UNL     1      33.046  37.877  31.066  1.00  0.00     0.228 C 
HETATM   19  C1  UNL     1      32.852  36.890  29.908  1.00  0.00     0.034 C 
ENDBRANCH  15  18
ENDBRANCH  14  15
ENDBRANCH  13  14
ENDBRANCH   1  13
TORSDOF 4
ENDMDL
MODEL 2
REMARK VINA RESULT: -6.255806673      0.853      1.773
REMARK  4 active torsions:
REMARK  status: ('A' for Active; 'I' for Inactive)
REMARK    1  A    between atoms: C2_2  and  N1_3 
REMARK    2  A    between atoms: N1_3  and  C3_6 
REMARK    3  A    between atoms: C3_6  and  C4_7 
REMARK    4  A    between atoms: C4_7  and  N2_8 
ROOT
HETATM    1  N2  UNL     1      33.246  34.433  34.353  1.00  0.00    -0.373 N 
ATOM      2  H2  UNL     1      32.241  34.566  34.469  1.00  0.00     0.161 HD
HETATM    3  C5  UNL     1      33.848  33.342  34.706  1.00  0.00     0.134 A 
HETATM    4  N3  UNL     1      33.435  32.116  35.291  1.00  0.00    -0.325 N 
ATOM      5  H3  UNL     1      32.539  31.739  35.602  1.00  0.00     0.169 HD
HETATM    6  C6  UNL     1      34.761  31.628  35.268  1.00  0.00     0.139 A 
HETATM    7  N4  UNL     1      35.820  30.780  35.442  1.00  0.00    -0.337 N 
ATOM      8  H4  UNL     1      35.799  29.841  35.840  1.00  0.00     0.168 HD
HETATM    9  C7  UNL     1      36.895  31.445  34.978  1.00  0.00     0.182 A 
HETATM   10  N5  UNL     1      36.521  32.657  34.535  1.00  0.00    -0.346 N 
ATOM     11  H5  UNL     1      37.143  33.359  34.135  1.00  0.00     0.167 HD
HETATM   12  C8  UNL     1      35.196  32.798  34.704  1.00  0.00     0.122 A 
ENDROOT
BRANCH   1  13
HETATM   13  C4  UNL     1      34.104  35.456  33.778  1.00  0.00     0.148 C 
BRANCH  13  14
HETATM   14  C3  UNL     1      33.461  35.913  32.490  1.00  0.00     0.251 C 
BRANCH  14  15
HETATM   15  N1  UNL     1      33.835  37.245  32.158  1.00  0.00    -0.074 N 
ATOM     16  H12 UNL     1      34.820  37.300  31.898  1.00  0.00     0.277 HD
ATOM     17  H11 UNL     1      33.855  37.842  32.985  1.00  0.00     0.277 HD
BRANCH  15  18
HETATM   18  C2  UNL     1      32.996  37.792  31.142  1.00  0.00     0.228 C 
HETATM   19  C1  UNL     1      32.884  36.831  29.951  1.00  0.00     0.034 C 
ENDBRANCH  15  18
ENDBRANCH  14  15
ENDBRANCH  13  14
ENDBRANCH   1  13
TORSDOF 4
ENDMDL
MODEL 3
REMARK VINA RESULT: -6.172200494      2.974      7.876
REMARK  4 active torsions:
REMARK  status: ('A' for Active; 'I' for Inactive)
REMARK    1  A    between atoms: C2_2  and  N1_3 
REMARK    2  A    between atoms: N1_3  and  C3_6 
REMARK    3  A    between atoms: C3_6  and  C4_7 
REMARK    4  A    between atoms: C4_7  and  N2_8 
ROOT
HETATM    1  N2  UNL     1      33.370  36.837  30.292  1.00  0.00    -0.373 N 
ATOM      2  H2  UNL     1      33.867  35.953  30.187  1.00  0.00     0.161 HD
HETATM    3  C5  UNL     1      32.905  37.497  29.279  1.00  0.00     0.134 A 
HETATM    4  N3  UNL     1      32.897  37.297  27.873  1.00  0.00    -0.325 N 
ATOM      5  H3  UNL     1      33.258  36.572  27.253  1.00  0.00     0.169 HD
HETATM    6  C6  UNL     1      32.189  38.505  27.679  1.00  0.00     0.139 A 
HETATM    7  N4  UNL     1      31.549  39.528  27.036  1.00  0.00    -0.337 N 
ATOM      8  H4  UNL     1      31.404  39.631  26.031  1.00  0.00     0.168 HD
HETATM    9  C7  UNL     1      31.148  40.370  28.007  1.00  0.00     0.182 A 
HETATM   10  N5  UNL     1      31.527  39.892  29.205  1.00  0.00    -0.346 N 
ATOM     11  H5  UNL     1      31.349  40.340  30.104  1.00  0.00     0.167 HD
HETATM   12  C8  UNL     1      32.177  38.731  29.029  1.00  0.00     0.122 A 
ENDROOT
BRANCH   1  13
HETATM   13  C4  UNL     1      33.134  37.449  31.590  1.00  0.00     0.148 C 
BRANCH  13  14
HETATM   14  C3  UNL     1      33.090  36.336  32.611  1.00  0.00     0.251 C 
BRANCH  14  15
HETATM   15  N1  UNL     1      34.366  36.110  33.198  1.00  0.00    -0.074 N 
ATOM     16  H12 UNL     1      34.787  36.981  33.520  1.00  0.00     0.277 HD
ATOM     17  H11 UNL     1      35.058  35.850  32.495  1.00  0.00     0.277 HD
BRANCH  15  18
HETATM   18  C2  UNL     1      34.301  35.144  34.246  1.00  0.00     0.228 C 
HETATM   19  C1  UNL     1      35.342  34.037  34.034  1.00  0.00     0.034 C 
ENDBRANCH  15  18
ENDBRANCH  14  15
ENDBRANCH  13  14
ENDBRANCH   1  13
TORSDOF 4
ENDMDL
MODEL 4
REMARK VINA RESULT: -6.129528054      3.115      8.046
REMARK  4 active torsions:
REMARK  status: ('A' for Active; 'I' for Inactive)
REMARK    1  A    between atoms: C2_2  and  N1_3 
REMARK    2  A    between atoms: N1_3  and  C3_6 
REMARK    3  A    between atoms: C3_6  and  C4_7 
REMARK    4  A    between atoms: C4_7  and  N2_8 
ROOT
HETATM    1  N2  UNL     1      33.476  37.979  30.615  1.00  0.00    -0.373 N 
ATOM      2  H2  UNL     1      34.450  37.742  30.428  1.00  0.00     0.161 HD
HETATM    3  C5  UNL     1      32.812  38.816  29.882  1.00  0.00     0.134 A 
HETATM    4  N3  UNL     1      33.112  39.599  28.737  1.00  0.00    -0.325 N 
ATOM      5  H3  UNL     1      33.941  39.728  28.156  1.00  0.00     0.169 HD
HETATM    6  C6  UNL     1      31.801  40.127  28.722  1.00  0.00     0.139 A 
HETATM    7  N4  UNL     1      30.718  40.864  28.328  1.00  0.00    -0.337 N 
ATOM      8  H4  UNL     1      30.664  41.508  27.538  1.00  0.00     0.168 HD
HETATM    9  C7  UNL     1      29.738  40.562  29.201  1.00  0.00     0.182 A 
HETATM   10  N5  UNL     1      30.193  39.674  30.102  1.00  0.00    -0.346 N 
ATOM     11  H5  UNL     1      29.652  39.283  30.872  1.00  0.00     0.167 HD
HETATM   12  C8  UNL     1      31.476  39.386  29.827  1.00  0.00     0.122 A 
ENDROOT
BRANCH   1  13
HETATM   13  C4  UNL     1      32.733  37.401  31.723  1.00  0.00     0.148 C 
BRANCH  13  14
HETATM   14  C3  UNL     1      33.393  36.089  32.073  1.00  0.00     0.251 C 
BRANCH  14  15
HETATM   15  N1  UNL     1      34.155  36.185  33.270  1.00  0.00    -0.074 N 
ATOM     16  H12 UNL     1      33.936  37.040  33.782  1.00  0.00     0.277 HD
ATOM     17  H11 UNL     1      35.139  36.368  33.071  1.00  0.00     0.277 HD
BRANCH  15  18
HETATM   18  C2  UNL     1      33.997  35.029  34.091  1.00  0.00     0.228 C 
HETATM   19  C1  UNL     1      35.241  34.135  34.021  1.00  0.00     0.034 C 
ENDBRANCH  15  18
ENDBRANCH  14  15
ENDBRANCH  13  14
ENDBRANCH   1  13
TORSDOF 4
ENDMDL
MODEL 5
REMARK VINA RESULT: -5.950721186      2.096      3.273
REMARK  4 active torsions:
REMARK  status: ('A' for Active; 'I' for Inactive)
REMARK    1  A    between atoms: C2_2  and  N1_3 
REMARK    2  A    between atoms: N1_3  and  C3_6 
REMARK    3  A    between atoms: C3_6  and  C4_7 
REMARK    4  A    between atoms: C4_7  and  N2_8 
ROOT
HETATM    1  N2  UNL     1      34.684  34.547  33.796  1.00  0.00    -0.373 N 
ATOM      2  H2  UNL     1      35.416  35.130  33.389  1.00  0.00     0.161 HD
HETATM    3  C5  UNL     1      34.935  33.405  34.352  1.00  0.00     0.134 A 
HETATM    4  N3  UNL     1      36.109  32.639  34.579  1.00  0.00    -0.325 N 
ATOM      5  H3  UNL     1      37.099  32.769  34.369  1.00  0.00     0.169 HD
HETATM    6  C6  UNL     1      35.356  31.624  35.213  1.00  0.00     0.139 A 
HETATM    7  N4  UNL     1      35.068  30.455  35.860  1.00  0.00    -0.337 N 
ATOM      8  H4  UNL     1      35.725  29.727  36.141  1.00  0.00     0.168 HD
HETATM    9  C7  UNL     1      33.735  30.466  36.050  1.00  0.00     0.182 A 
HETATM   10  N5  UNL     1      33.215  31.595  35.539  1.00  0.00    -0.346 N 
ATOM     11  H5  UNL     1      32.227  31.849  35.549  1.00  0.00     0.167 HD
HETATM   12  C8  UNL     1      34.204  32.335  35.011  1.00  0.00     0.122 A 
ENDROOT
BRANCH   1  13
HETATM   13  C4  UNL     1      33.285  34.941  33.794  1.00  0.00     0.148 C 
BRANCH  13  14
HETATM   14  C3  UNL     1      33.027  35.696  35.077  1.00  0.00     0.251 C 
BRANCH  14  15
HETATM   15  N1  UNL     1      31.820  35.276  35.701  1.00  0.00    -0.074 N 
ATOM     16  H12 UNL     1      31.881  34.308  36.016  1.00  0.00     0.277 HD
ATOM     17  H11 UNL     1      31.066  35.174  35.022  1.00  0.00     0.277 HD
BRANCH  15  18
HETATM   18  C2  UNL     1      31.446  36.148  36.767  1.00  0.00     0.228 C 
HETATM   19  C1  UNL     1      30.857  35.355  37.940  1.00  0.00     0.034 C 
ENDBRANCH  15  18
ENDBRANCH  14  15
ENDBRANCH  13  14
ENDBRANCH   1  13
TORSDOF 4
ENDMDL
