MODEL 1
REMARK VINA RESULT: -6.888685203      0.000      0.000
REMARK  5 active torsions:
REMARK  status: ('A' for Active; 'I' for Inactive)
REMARK    1  A    between atoms: C2_2  and  N1_3 
REMARK    2  A    between atoms: N1_3  and  C4_5 
REMARK    3  A    between atoms: C4_5  and  C5_6 
REMARK    4  A    between atoms: C5_6  and  S1_7 
REMARK    5  A    between atoms: S1_7  and  C6_8 
ROOT
HETATM    1  C6  UNL     1      18.431  27.098   9.491  1.00  0.00     0.147 A 
HETATM    2  N2  UNL     1      19.741  26.987   9.793  1.00  0.00    -0.323 N 
ATOM      3  H2  UNL     1      20.346  26.514   9.122  1.00  0.00     0.169 HD
HETATM    4  C7  UNL     1      20.300  27.457  10.918  1.00  0.00     0.149 A 
HETATM    5  N3  UNL     1      21.694  27.314  11.200  1.00  0.00    -0.080 NA
HETATM    6  C8  UNL     1      19.447  28.088  11.797  1.00  0.00     0.125 A 
HETATM    7  C9  UNL     1      18.103  28.222  11.524  1.00  0.00     0.176 A 
HETATM    8  N4  UNL     1      17.620  27.716  10.362  1.00  0.00    -0.315 N 
ATOM      9  H4  UNL     1      16.627  27.807  10.149  1.00  0.00     0.170 HD
HETATM   10  O1  UNL     1      17.156  28.831  12.325  1.00  0.00    -0.319 OA
HETATM   11  C10 UNL     1      17.079  28.966  13.744  1.00  0.00     0.081 C 
HETATM   12  C11 UNL     1      16.712  27.606  14.332  1.00  0.00     0.051 C 
HETATM   13  C12 UNL     1      15.991  29.940  14.067  1.00  0.00     0.051 C 
HETATM   14  C13 UNL     1      18.332  29.405  14.365  1.00  0.00     0.027 C 
HETATM   15  C14 UNL     1      19.622  29.244  14.057  1.00  0.00     0.087 C 
HETATM   16  N5  UNL     1      20.145  28.550  12.957  1.00  0.00    -0.360 N 
ATOM     17  H5  UNL     1      21.144  28.351  12.986  1.00  0.00     0.165 HD
ENDROOT
BRANCH   1  18
HETATM   18  S1  UNL     1      17.919  26.404   7.934  1.00  0.00    -0.089 SA
BRANCH  18  19
HETATM   19  C5  UNL     1      18.660  24.762   7.756  1.00  0.00     0.127 C 
BRANCH  19  20
HETATM   20  C4  UNL     1      19.804  24.785   6.764  1.00  0.00     0.073 C 
BRANCH  20  21
HETATM   21  N1  UNL     1      20.916  24.017   7.154  1.00  0.00    -0.378 N 
HETATM   22  C3  UNL     1      21.621  23.260   6.216  1.00  0.00     0.154 C 
BRANCH  21  23
HETATM   23  C2  UNL     1      21.335  24.049   8.498  1.00  0.00     0.058 C 
HETATM   24  C1  UNL     1      22.631  24.808   8.653  1.00  0.00     0.055 C 
ENDBRANCH  21  23
ENDBRANCH  20  21
ENDBRANCH  19  20
ENDBRANCH  18  19
ENDBRANCH   1  18
TORSDOF 5
ENDMDL
MODEL 2
REMARK VINA RESULT: -6.771011320      2.414      7.756
REMARK  5 active torsions:
REMARK  status: ('A' for Active; 'I' for Inactive)
REMARK    1  A    between atoms: C2_2  and  N1_3 
REMARK    2  A    between atoms: N1_3  and  C4_5 
REMARK    3  A    between atoms: C4_5  and  C5_6 
REMARK    4  A    between atoms: C5_6  and  S1_7 
REMARK    5  A    between atoms: S1_7  and  C6_8 
ROOT
HETATM    1  C6  UNL     1      19.325  27.691  10.470  1.00  0.00     0.147 A 
HETATM    2  N2  UNL     1      18.133  27.747   9.841  1.00  0.00    -0.323 N 
ATOM      3  H2  UNL     1      17.401  28.322  10.258  1.00  0.00     0.169 HD
HETATM    4  C7  UNL     1      17.846  27.096   8.705  1.00  0.00     0.149 A 
HETATM    5  N3  UNL     1      16.567  27.180   8.073  1.00  0.00    -0.080 NA
HETATM    6  C8  UNL     1      18.864  26.330   8.176  1.00  0.00     0.125 A 
HETATM    7  C9  UNL     1      20.094  26.248   8.788  1.00  0.00     0.176 A 
HETATM    8  N4  UNL     1      20.299  26.939   9.937  1.00  0.00    -0.315 N 
ATOM      9  H4  UNL     1      21.205  26.886  10.401  1.00  0.00     0.170 HD
HETATM   10  O1  UNL     1      21.184  25.516   8.354  1.00  0.00    -0.319 OA
HETATM   11  C10 UNL     1      21.257  24.300   7.610  1.00  0.00     0.081 C 
HETATM   12  C11 UNL     1      20.845  23.154   8.532  1.00  0.00     0.051 C 
HETATM   13  C12 UNL     1      22.675  24.091   7.186  1.00  0.00     0.051 C 
HETATM   14  C13 UNL     1      20.382  24.273   6.434  1.00  0.00     0.027 C 
HETATM   15  C14 UNL     1      19.208  24.840   6.142  1.00  0.00     0.087 C 
HETATM   16  N5  UNL     1      18.453  25.684   6.967  1.00  0.00    -0.360 N 
ATOM     17  H5  UNL     1      17.493  25.859   6.670  1.00  0.00     0.165 HD
ENDROOT
BRANCH   1  18
HETATM   18  S1  UNL     1      19.475  28.649  11.963  1.00  0.00    -0.089 SA
BRANCH  18  19
HETATM   19  C5  UNL     1      17.860  28.710  12.780  1.00  0.00     0.127 C 
BRANCH  19  20
HETATM   20  C4  UNL     1      17.957  29.396  14.126  1.00  0.00     0.073 C 
BRANCH  20  21
HETATM   21  N1  UNL     1      16.727  29.520  14.796  1.00  0.00    -0.378 N 
HETATM   22  C3  UNL     1      15.913  28.403  15.000  1.00  0.00     0.154 C 
BRANCH  21  23
HETATM   23  C2  UNL     1      16.340  30.779  15.295  1.00  0.00     0.058 C 
HETATM   24  C1  UNL     1      15.415  31.492  14.337  1.00  0.00     0.055 C 
ENDBRANCH  21  23
ENDBRANCH  20  21
ENDBRANCH  19  20
ENDBRANCH  18  19
ENDBRANCH   1  18
TORSDOF 5
ENDMDL
MODEL 3
REMARK VINA RESULT: -6.696656326      2.492      4.128
REMARK  5 active torsions:
REMARK  status: ('A' for Active; 'I' for Inactive)
REMARK    1  A    between atoms: C2_2  and  N1_3 
REMARK    2  A    between atoms: N1_3  and  C4_5 
REMARK    3  A    between atoms: C4_5  and  C5_6 
REMARK    4  A    between atoms: C5_6  and  S1_7 
REMARK    5  A    between atoms: S1_7  and  C6_8 
ROOT
HETATM    1  C6  UNL     1      20.056  24.945   7.694  1.00  0.00     0.147 A 
HETATM    2  N2  UNL     1      18.948  25.596   7.284  1.00  0.00    -0.323 N 
ATOM      3  H2  UNL     1      18.599  25.398   6.346  1.00  0.00     0.169 HD
HETATM    4  C7  UNL     1      18.274  26.486   8.028  1.00  0.00     0.149 A 
HETATM    5  N3  UNL     1      17.105  27.156   7.552  1.00  0.00    -0.080 NA
HETATM    6  C8  UNL     1      18.780  26.723   9.288  1.00  0.00     0.125 A 
HETATM    7  C9  UNL     1      19.909  26.079   9.743  1.00  0.00     0.176 A 
HETATM    8  N4  UNL     1      20.529  25.194   8.925  1.00  0.00    -0.315 N 
ATOM      9  H4  UNL     1      21.367  24.711   9.248  1.00  0.00     0.170 HD
HETATM   10  O1  UNL     1      20.506  26.235  10.980  1.00  0.00    -0.319 OA
HETATM   11  C10 UNL     1      20.561  27.362  11.855  1.00  0.00     0.081 C 
HETATM   12  C11 UNL     1      21.521  28.385  11.254  1.00  0.00     0.051 C 
HETATM   13  C12 UNL     1      21.103  26.909  13.173  1.00  0.00     0.051 C 
HETATM   14  C13 UNL     1      19.265  28.019  12.055  1.00  0.00     0.027 C 
HETATM   15  C14 UNL     1      18.177  28.168  11.294  1.00  0.00     0.087 C 
HETATM   16  N5  UNL     1      17.988  27.683   9.993  1.00  0.00    -0.360 N 
ATOM     17  H5  UNL     1      17.187  28.061   9.487  1.00  0.00     0.165 HD
ENDROOT
BRANCH   1  18
HETATM   18  S1  UNL     1      20.774  23.801   6.535  1.00  0.00    -0.089 SA
BRANCH  18  19
HETATM   19  C5  UNL     1      22.573  24.000   6.559  1.00  0.00     0.127 C 
BRANCH  19  20
HETATM   20  C4  UNL     1      23.183  23.287   7.748  1.00  0.00     0.073 C 
BRANCH  20  21
HETATM   21  N1  UNL     1      24.227  23.997   8.367  1.00  0.00    -0.378 N 
HETATM   22  C3  UNL     1      23.955  25.112   9.162  1.00  0.00     0.154 C 
BRANCH  21  23
HETATM   23  C2  UNL     1      25.552  23.546   8.209  1.00  0.00     0.058 C 
HETATM   24  C1  UNL     1      25.683  22.083   8.558  1.00  0.00     0.055 C 
ENDBRANCH  21  23
ENDBRANCH  20  21
ENDBRANCH  19  20
ENDBRANCH  18  19
ENDBRANCH   1  18
TORSDOF 5
ENDMDL
MODEL 4
REMARK VINA RESULT: -6.670994359      2.565      4.083
REMARK  5 active torsions:
REMARK  status: ('A' for Active; 'I' for Inactive)
REMARK    1  A    between atoms: C2_2  and  N1_3 
REMARK    2  A    between atoms: N1_3  and  C4_5 
REMARK    3  A    between atoms: C4_5  and  C5_6 
REMARK    4  A    between atoms: C5_6  and  S1_7 
REMARK    5  A    between atoms: S1_7  and  C6_8 
ROOT
HETATM    1  C6  UNL     1      19.942  24.881   7.481  1.00  0.00     0.147 A 
HETATM    2  N2  UNL     1      18.839  25.567   7.118  1.00  0.00    -0.323 N 
ATOM      3  H2  UNL     1      18.455  25.394   6.189  1.00  0.00     0.169 HD
HETATM    4  C7  UNL     1      18.213  26.461   7.898  1.00  0.00     0.149 A 
HETATM    5  N3  UNL     1      17.047  27.170   7.471  1.00  0.00    -0.080 NA
HETATM    6  C8  UNL     1      18.765  26.664   9.145  1.00  0.00     0.125 A 
HETATM    7  C9  UNL     1      19.891  25.983   9.552  1.00  0.00     0.176 A 
HETATM    8  N4  UNL     1      20.461  25.095   8.699  1.00  0.00    -0.315 N 
ATOM      9  H4  UNL     1      21.295  24.585   8.988  1.00  0.00     0.170 HD
HETATM   10  O1  UNL     1      20.531  26.102  10.771  1.00  0.00    -0.319 OA
HETATM   11  C10 UNL     1      20.644  27.211  11.663  1.00  0.00     0.081 C 
HETATM   12  C11 UNL     1      21.612  28.219  11.047  1.00  0.00     0.051 C 
HETATM   13  C12 UNL     1      21.216  26.722  12.954  1.00  0.00     0.051 C 
HETATM   14  C13 UNL     1      19.374  27.899  11.915  1.00  0.00     0.027 C 
HETATM   15  C14 UNL     1      18.266  28.089  11.193  1.00  0.00     0.087 C 
HETATM   16  N5  UNL     1      18.022  27.632   9.890  1.00  0.00    -0.360 N 
ATOM     17  H5  UNL     1      17.216  28.039   9.417  1.00  0.00     0.165 HD
ENDROOT
BRANCH   1  18
HETATM   18  S1  UNL     1      20.591  23.739   6.280  1.00  0.00    -0.089 SA
BRANCH  18  19
HETATM   19  C5  UNL     1      22.399  23.774   6.362  1.00  0.00     0.127 C 
BRANCH  19  20
HETATM   20  C4  UNL     1      22.906  22.970   7.541  1.00  0.00     0.073 C 
BRANCH  20  21
HETATM   21  N1  UNL     1      24.117  23.443   8.078  1.00  0.00    -0.378 N 
HETATM   22  C3  UNL     1      25.163  22.561   8.358  1.00  0.00     0.154 C 
BRANCH  21  23
HETATM   23  C2  UNL     1      24.278  24.825   8.294  1.00  0.00     0.058 C 
HETATM   24  C1  UNL     1      23.891  25.212   9.701  1.00  0.00     0.055 C 
ENDBRANCH  21  23
ENDBRANCH  20  21
ENDBRANCH  19  20
ENDBRANCH  18  19
ENDBRANCH   1  18
TORSDOF 5
ENDMDL
MODEL 5
REMARK VINA RESULT: -6.655145176      3.166      5.142
REMARK  5 active torsions:
REMARK  status: ('A' for Active; 'I' for Inactive)
REMARK    1  A    between atoms: C2_2  and  N1_3 
REMARK    2  A    between atoms: N1_3  and  C4_5 
REMARK    3  A    between atoms: C4_5  and  C5_6 
REMARK    4  A    between atoms: C5_6  and  S1_7 
REMARK    5  A    between atoms: S1_7  and  C6_8 
ROOT
HETATM    1  C6  UNL     1      21.472  24.373   7.917  1.00  0.00     0.147 A 
HETATM    2  N2  UNL     1      20.548  24.558   6.952  1.00  0.00    -0.323 N 
ATOM      3  H2  UNL     1      20.692  24.088   6.059  1.00  0.00     0.169 HD
HETATM    4  C7  UNL     1      19.452  25.319   7.090  1.00  0.00     0.149 A 
HETATM    5  N3  UNL     1      18.499  25.491   6.038  1.00  0.00    -0.080 NA
HETATM    6  C8  UNL     1      19.297  25.936   8.313  1.00  0.00     0.125 A 
HETATM    7  C9  UNL     1      20.218  25.772   9.323  1.00  0.00     0.176 A 
HETATM    8  N4  UNL     1      21.299  24.984   9.099  1.00  0.00    -0.315 N 
ATOM      9  H4  UNL     1      21.989  24.855   9.838  1.00  0.00     0.170 HD
HETATM   10  O1  UNL     1      20.170  26.337  10.584  1.00  0.00    -0.319 OA
HETATM   11  C10 UNL     1      19.607  27.570  11.034  1.00  0.00     0.081 C 
HETATM   12  C11 UNL     1      20.504  28.706  10.551  1.00  0.00     0.051 C 
HETATM   13  C12 UNL     1      19.598  27.565  12.529  1.00  0.00     0.051 C 
HETATM   14  C13 UNL     1      18.252  27.819  10.534  1.00  0.00     0.027 C 
HETATM   15  C14 UNL     1      17.600  27.476   9.420  1.00  0.00     0.087 C 
HETATM   16  N5  UNL     1      18.100  26.719   8.351  1.00  0.00    -0.360 N 
ATOM     17  H5  UNL     1      17.543  26.726   7.498  1.00  0.00     0.165 HD
ENDROOT
BRANCH   1  18
HETATM   18  S1  UNL     1      22.839  23.309   7.507  1.00  0.00    -0.089 SA
BRANCH  18  19
HETATM   19  C5  UNL     1      24.356  24.023   8.189  1.00  0.00     0.127 C 
BRANCH  19  20
HETATM   20  C4  UNL     1      25.469  22.997   8.233  1.00  0.00     0.073 C 
BRANCH  20  21
HETATM   21  N1  UNL     1      26.290  23.091   9.370  1.00  0.00    -0.378 N 
HETATM   22  C3  UNL     1      26.324  24.264  10.127  1.00  0.00     0.154 C 
BRANCH  21  23
HETATM   23  C2  UNL     1      27.051  21.973   9.763  1.00  0.00     0.058 C 
HETATM   24  C1  UNL     1      26.216  20.715   9.778  1.00  0.00     0.055 C 
ENDBRANCH  21  23
ENDBRANCH  20  21
ENDBRANCH  19  20
ENDBRANCH  18  19
ENDBRANCH   1  18
TORSDOF 5
ENDMDL
