MODEL 1
REMARK VINA RESULT: -7.852915945      0.000      0.000
REMARK  5 active torsions:
REMARK  status: ('A' for Active; 'I' for Inactive)
REMARK    1  A    between atoms: C2_2  and  C3_3 
REMARK    2  A    between atoms: C3_3  and  C6_6 
REMARK    3  A    between atoms: C6_6  and  N1_7 
REMARK       I    between atoms: N1_7  and  C7_9 
REMARK    4  A    between atoms: C7_9  and  C8_11 
REMARK    5  A    between atoms: N2_14  and  C11_15 
ROOT
HETATM    1  C8  UNL     1       8.714  24.283  -6.106  1.00  0.00     0.081 C 
HETATM    2  C9  UNL     1       9.381  22.947  -5.981  1.00  0.00     0.033 C 
HETATM    3  C10 UNL     1      10.630  22.993  -6.866  1.00  0.00     0.118 C 
HETATM    4  N2  UNL     1      10.965  24.339  -7.162  1.00  0.00    -0.408 N 
HETATM    5  C19 UNL     1      10.940  25.249  -6.082  1.00  0.00     0.118 C 
HETATM    6  C20 UNL     1       9.590  25.279  -5.368  1.00  0.00     0.033 C 
ENDROOT
BRANCH   1   7
HETATM    7  C7  UNL     1       7.317  24.301  -5.586  1.00  0.00     0.221 C 
HETATM    8  N1  UNL     1       6.503  23.170  -5.725  1.00  0.00    -0.360 N 
ATOM      9  H1  UNL     1       6.950  22.390  -6.207  1.00  0.00     0.162 HD
HETATM   10  O1  UNL     1       6.944  25.354  -5.043  1.00  0.00    -0.273 OA
BRANCH   8  11
HETATM   11  C6  UNL     1       5.168  22.910  -5.317  1.00  0.00     0.131 C 
BRANCH  11  12
HETATM   12  C3  UNL     1       4.888  21.823  -4.360  1.00  0.00    -0.032 C 
HETATM   13  C4  UNL     1       4.707  22.392  -2.977  1.00  0.00     0.016 C 
HETATM   14  C5  UNL     1       3.798  20.844  -4.719  1.00  0.00     0.016 C 
BRANCH  12  15
HETATM   15  C2  UNL     1       6.166  20.933  -4.333  1.00  0.00     0.006 C 
HETATM   16  C1  UNL     1       5.875  19.588  -3.751  1.00  0.00     0.006 C 
ENDBRANCH  12  15
ENDBRANCH  11  12
ENDBRANCH   8  11
ENDBRANCH   1   7
BRANCH   4  17
HETATM   17  C11 UNL     1      11.904  24.540  -8.207  1.00  0.00     0.079 C 
HETATM   18  C12 UNL     1      12.555  23.309  -8.699  1.00  0.00     0.025 C 
HETATM   19  C13 UNL     1      14.037  23.208  -8.441  1.00  0.00     0.002 C 
HETATM   20  C14 UNL     1      14.866  23.426  -9.669  1.00  0.00     0.000 C 
HETATM   21  C15 UNL     1      15.096  24.810 -10.105  1.00  0.00     0.000 C 
HETATM   22  C16 UNL     1      14.843  25.910  -9.143  1.00  0.00     0.000 C 
HETATM   23  C17 UNL     1      13.370  26.269  -9.157  1.00  0.00     0.002 C 
HETATM   24  C18 UNL     1      12.778  25.699  -7.879  1.00  0.00     0.025 C 
ENDBRANCH   4  17
TORSDOF 5
ENDMDL
MODEL 2
REMARK VINA RESULT: -7.751929908      2.244      8.710
REMARK  5 active torsions:
REMARK  status: ('A' for Active; 'I' for Inactive)
REMARK    1  A    between atoms: C2_2  and  C3_3 
REMARK    2  A    between atoms: C3_3  and  C6_6 
REMARK    3  A    between atoms: C6_6  and  N1_7 
REMARK       I    between atoms: N1_7  and  C7_9 
REMARK    4  A    between atoms: C7_9  and  C8_11 
REMARK    5  A    between atoms: N2_14  and  C11_15 
ROOT
HETATM    1  C8  UNL     1      10.881  23.845  -7.240  1.00  0.00     0.081 C 
HETATM    2  C9  UNL     1       9.708  23.168  -7.880  1.00  0.00     0.033 C 
HETATM    3  C10 UNL     1       8.622  23.059  -6.806  1.00  0.00     0.118 C 
HETATM    4  N2  UNL     1       8.897  23.958  -5.744  1.00  0.00    -0.408 N 
HETATM    5  C19 UNL     1       9.275  25.270  -6.108  1.00  0.00     0.118 C 
HETATM    6  C20 UNL     1      10.489  25.297  -7.034  1.00  0.00     0.033 C 
ENDROOT
BRANCH   1   7
HETATM    7  C7  UNL     1      12.140  23.731  -8.031  1.00  0.00     0.221 C 
HETATM    8  N1  UNL     1      12.585  24.815  -8.798  1.00  0.00    -0.360 N 
ATOM      9  H1  UNL     1      11.974  25.631  -8.761  1.00  0.00     0.162 HD
HETATM   10  O1  UNL     1      12.738  22.645  -7.963  1.00  0.00    -0.273 OA
BRANCH   8  11
HETATM   11  C6  UNL     1      13.731  24.985  -9.618  1.00  0.00     0.131 C 
BRANCH  11  12
HETATM   12  C3  UNL     1      14.934  25.645  -9.074  1.00  0.00    -0.032 C 
HETATM   13  C4  UNL     1      15.792  26.156 -10.202  1.00  0.00     0.016 C 
HETATM   14  C5  UNL     1      14.730  26.684  -8.000  1.00  0.00     0.016 C 
BRANCH  12  15
HETATM   15  C2  UNL     1      15.741  24.534  -8.341  1.00  0.00     0.006 C 
HETATM   16  C1  UNL     1      17.200  24.854  -8.316  1.00  0.00     0.006 C 
ENDBRANCH  12  15
ENDBRANCH  11  12
ENDBRANCH   8  11
ENDBRANCH   1   7
BRANCH   4  17
HETATM   17  C11 UNL     1       8.162  23.764  -4.546  1.00  0.00     0.079 C 
HETATM   18  C12 UNL     1       7.229  22.619  -4.571  1.00  0.00     0.025 C 
HETATM   19  C13 UNL     1       5.765  22.970  -4.493  1.00  0.00     0.002 C 
HETATM   20  C14 UNL     1       5.157  22.671  -3.157  1.00  0.00     0.000 C 
HETATM   21  C15 UNL     1       5.385  23.632  -2.069  1.00  0.00     0.000 C 
HETATM   22  C16 UNL     1       5.857  24.996  -2.411  1.00  0.00     0.000 C 
HETATM   23  C17 UNL     1       7.365  24.988  -2.569  1.00  0.00     0.002 C 
HETATM   24  C18 UNL     1       7.639  25.070  -4.062  1.00  0.00     0.025 C 
ENDBRANCH   4  17
TORSDOF 5
ENDMDL
MODEL 3
REMARK VINA RESULT: -7.721229066      1.785      8.485
REMARK  5 active torsions:
REMARK  status: ('A' for Active; 'I' for Inactive)
REMARK    1  A    between atoms: C2_2  and  C3_3 
REMARK    2  A    between atoms: C3_3  and  C6_6 
REMARK    3  A    between atoms: C6_6  and  N1_7 
REMARK       I    between atoms: N1_7  and  C7_9 
REMARK    4  A    between atoms: C7_9  and  C8_11 
REMARK    5  A    between atoms: N2_14  and  C11_15 
ROOT
HETATM    1  C8  UNL     1       9.482  24.740  -6.678  1.00  0.00     0.081 C 
HETATM    2  C9  UNL     1       9.090  25.560  -5.487  1.00  0.00     0.033 C 
HETATM    3  C10 UNL     1       8.124  24.704  -4.661  1.00  0.00     0.118 C 
HETATM    4  N2  UNL     1       8.239  23.342  -5.039  1.00  0.00    -0.408 N 
HETATM    5  C19 UNL     1       9.550  22.833  -5.179  1.00  0.00     0.118 C 
HETATM    6  C20 UNL     1      10.391  23.635  -6.169  1.00  0.00     0.033 C 
ENDROOT
BRANCH   1   7
HETATM    7  C7  UNL     1      10.143  25.532  -7.754  1.00  0.00     0.221 C 
HETATM    8  N1  UNL     1      11.163  26.436  -7.432  1.00  0.00    -0.360 N 
ATOM      9  H1  UNL     1      11.371  26.492  -6.435  1.00  0.00     0.162 HD
HETATM   10  O1  UNL     1       9.737  25.337  -8.912  1.00  0.00    -0.273 OA
BRANCH   8  11
HETATM   11  C6  UNL     1      11.959  27.290  -8.240  1.00  0.00     0.131 C 
BRANCH  11  12
HETATM   12  C3  UNL     1      13.418  27.084  -8.314  1.00  0.00    -0.032 C 
HETATM   13  C4  UNL     1      13.950  27.648  -9.605  1.00  0.00     0.016 C 
HETATM   14  C5  UNL     1      14.242  27.512  -7.125  1.00  0.00     0.016 C 
BRANCH  12  15
HETATM   15  C2  UNL     1      13.634  25.542  -8.355  1.00  0.00     0.006 C 
HETATM   16  C1  UNL     1      15.086  25.202  -8.441  1.00  0.00     0.006 C 
ENDBRANCH  12  15
ENDBRANCH  11  12
ENDBRANCH   8  11
ENDBRANCH   1   7
BRANCH   4  17
HETATM   17  C11 UNL     1       7.211  22.473  -4.589  1.00  0.00     0.079 C 
HETATM   18  C12 UNL     1       7.204  21.142  -5.227  1.00  0.00     0.025 C 
HETATM   19  C13 UNL     1       6.007  20.841  -6.094  1.00  0.00     0.002 C 
HETATM   20  C14 UNL     1       5.044  19.884  -5.460  1.00  0.00     0.000 C 
HETATM   21  C15 UNL     1       4.111  20.415  -4.458  1.00  0.00     0.000 C 
HETATM   22  C16 UNL     1       3.894  21.880  -4.392  1.00  0.00     0.000 C 
HETATM   23  C17 UNL     1       4.983  22.519  -3.551  1.00  0.00     0.002 C 
HETATM   24  C18 UNL     1       5.922  23.214  -4.524  1.00  0.00     0.025 C 
ENDBRANCH   4  17
TORSDOF 5
ENDMDL
MODEL 4
REMARK VINA RESULT: -7.716776138      1.576      8.545
REMARK  5 active torsions:
REMARK  status: ('A' for Active; 'I' for Inactive)
REMARK    1  A    between atoms: C2_2  and  C3_3 
REMARK    2  A    between atoms: C3_3  and  C6_6 
REMARK    3  A    between atoms: C6_6  and  N1_7 
REMARK       I    between atoms: N1_7  and  C7_9 
REMARK    4  A    between atoms: C7_9  and  C8_11 
REMARK    5  A    between atoms: N2_14  and  C11_15 
ROOT
HETATM    1  C8  UNL     1       9.860  24.974  -6.840  1.00  0.00     0.081 C 
HETATM    2  C9  UNL     1       9.596  25.376  -5.421  1.00  0.00     0.033 C 
HETATM    3  C10 UNL     1       8.325  24.641  -4.984  1.00  0.00     0.118 C 
HETATM    4  N2  UNL     1       8.065  23.557  -5.861  1.00  0.00    -0.408 N 
HETATM    5  C19 UNL     1       9.167  22.738  -6.198  1.00  0.00     0.118 C 
HETATM    6  C20 UNL     1      10.324  23.528  -6.805  1.00  0.00     0.033 C 
ENDROOT
BRANCH   1   7
HETATM    7  C7  UNL     1      10.855  25.844  -7.530  1.00  0.00     0.221 C 
HETATM    8  N1  UNL     1      12.197  25.450  -7.605  1.00  0.00    -0.360 N 
ATOM      9  H1  UNL     1      12.397  24.562  -7.147  1.00  0.00     0.162 HD
HETATM   10  O1  UNL     1      10.420  26.903  -8.012  1.00  0.00    -0.273 OA
BRANCH   8  11
HETATM   11  C6  UNL     1      13.329  26.064  -8.203  1.00  0.00     0.131 C 
BRANCH  11  12
HETATM   12  C3  UNL     1      14.281  25.250  -8.983  1.00  0.00    -0.032 C 
HETATM   13  C4  UNL     1      14.358  25.767 -10.396  1.00  0.00     0.016 C 
HETATM   14  C5  UNL     1      15.647  25.018  -8.389  1.00  0.00     0.016 C 
BRANCH  12  15
HETATM   15  C2  UNL     1      13.675  23.817  -9.043  1.00  0.00     0.006 C 
HETATM   16  C1  UNL     1      14.715  22.779  -8.772  1.00  0.00     0.006 C 
ENDBRANCH  12  15
ENDBRANCH  11  12
ENDBRANCH   8  11
ENDBRANCH   1   7
BRANCH   4  17
HETATM   17  C11 UNL     1       6.776  22.971  -5.776  1.00  0.00     0.079 C 
HETATM   18  C12 UNL     1       5.930  23.493  -4.684  1.00  0.00     0.025 C 
HETATM   19  C13 UNL     1       5.595  22.509  -3.592  1.00  0.00     0.002 C 
HETATM   20  C14 UNL     1       4.180  22.020  -3.651  1.00  0.00     0.000 C 
HETATM   21  C15 UNL     1       3.861  20.964  -4.620  1.00  0.00     0.000 C 
HETATM   22  C16 UNL     1       4.972  20.176  -5.208  1.00  0.00     0.000 C 
HETATM   23  C17 UNL     1       5.558  20.925  -6.388  1.00  0.00     0.002 C 
HETATM   24  C18 UNL     1       6.886  21.494  -5.917  1.00  0.00     0.025 C 
ENDBRANCH   4  17
TORSDOF 5
ENDMDL
MODEL 5
REMARK VINA RESULT: -7.707777690      1.579      8.386
REMARK  5 active torsions:
REMARK  status: ('A' for Active; 'I' for Inactive)
REMARK    1  A    between atoms: C2_2  and  C3_3 
REMARK    2  A    between atoms: C3_3  and  C6_6 
REMARK    3  A    between atoms: C6_6  and  N1_7 
REMARK       I    between atoms: N1_7  and  C7_9 
REMARK    4  A    between atoms: C7_9  and  C8_11 
REMARK    5  A    between atoms: N2_14  and  C11_15 
ROOT
HETATM    1  C8  UNL     1       9.719  24.519  -6.532  1.00  0.00     0.081 C 
HETATM    2  C9  UNL     1       9.264  25.389  -5.400  1.00  0.00     0.033 C 
HETATM    3  C10 UNL     1       8.211  24.590  -4.626  1.00  0.00     0.118 C 
HETATM    4  N2  UNL     1       8.310  23.213  -4.952  1.00  0.00    -0.408 N 
HETATM    5  C19 UNL     1       9.611  22.661  -4.974  1.00  0.00     0.118 C 
HETATM    6  C20 UNL     1      10.550  23.405  -5.920  1.00  0.00     0.033 C 
ENDROOT
BRANCH   1   7
HETATM    7  C7  UNL     1      10.486  25.255  -7.577  1.00  0.00     0.221 C 
HETATM    8  N1  UNL     1      11.850  24.992  -7.760  1.00  0.00    -0.360 N 
ATOM      9  H1  UNL     1      12.230  24.293  -7.122  1.00  0.00     0.162 HD
HETATM   10  O1  UNL     1       9.850  26.086  -8.246  1.00  0.00    -0.273 OA
BRANCH   8  11
HETATM   11  C6  UNL     1      12.800  25.522  -8.672  1.00  0.00     0.131 C 
BRANCH  11  12
HETATM   12  C3  UNL     1      13.483  24.628  -9.627  1.00  0.00    -0.032 C 
HETATM   13  C4  UNL     1      12.464  23.855 -10.423  1.00  0.00     0.016 C 
HETATM   14  C5  UNL     1      14.548  25.233 -10.506  1.00  0.00     0.016 C 
BRANCH  12  15
HETATM   15  C2  UNL     1      14.277  23.602  -8.766  1.00  0.00     0.006 C 
HETATM   16  C1  UNL     1      15.627  24.131  -8.405  1.00  0.00     0.006 C 
ENDBRANCH  12  15
ENDBRANCH  11  12
ENDBRANCH   8  11
ENDBRANCH   1   7
BRANCH   4  17
HETATM   17  C11 UNL     1       7.223  22.391  -4.557  1.00  0.00     0.079 C 
HETATM   18  C12 UNL     1       7.178  21.069  -5.214  1.00  0.00     0.025 C 
HETATM   19  C13 UNL     1       6.005  20.838  -6.133  1.00  0.00     0.002 C 
HETATM   20  C14 UNL     1       4.971  19.922  -5.552  1.00  0.00     0.000 C 
HETATM   21  C15 UNL     1       4.024  20.486  -4.582  1.00  0.00     0.000 C 
HETATM   22  C16 UNL     1       3.877  21.960  -4.504  1.00  0.00     0.000 C 
HETATM   23  C17 UNL     1       4.959  22.533  -3.611  1.00  0.00     0.002 C 
HETATM   24  C18 UNL     1       5.970  23.193  -4.534  1.00  0.00     0.025 C 
ENDBRANCH   4  17
TORSDOF 5
ENDMDL
