MODEL 1
REMARK VINA RESULT: -6.880463547      0.000      0.000
REMARK  5 active torsions:
REMARK  status: ('A' for Active; 'I' for Inactive)
REMARK    1  A    between atoms: C4_4  and  C5_5 
REMARK    2  A    between atoms: C6_6  and  C7_7 
REMARK    3  A    between atoms: N2_15  and  C12_16 
REMARK    4  A    between atoms: C12_16  and  C14_18 
REMARK    5  A    between atoms: C14_18  and  O2_20 
ROOT
HETATM    1  C1  UNL     1      23.061  27.369   7.053  1.00  0.00     0.017 C 
HETATM    2  C2  UNL     1      24.140  27.003   7.466  1.00  0.00    -0.089 C 
HETATM    3  C3  UNL     1      25.407  26.549   7.958  1.00  0.00     0.072 C 
HETATM    4  C4  UNL     1      26.520  26.976   7.413  1.00  0.00     0.073 C 
ENDROOT
BRANCH   4   5
HETATM    5  C5  UNL     1      27.819  26.569   7.848  1.00  0.00    -0.075 C 
HETATM    6  C6  UNL     1      28.928  26.204   8.223  1.00  0.00    -0.059 C 
BRANCH   6   7
HETATM    7  C7  UNL     1      30.237  25.763   8.695  1.00  0.00     0.355 C 
HETATM    8  N1  UNL     1      30.194  25.623  10.111  1.00  0.00    -0.052 N 
HETATM    9  C8  UNL     1      29.081  24.790  10.517  1.00  0.00     0.236 C 
ATOM     10  H12 UNL     1      31.079  25.275  10.482  1.00  0.00     0.279 HD
ATOM     11  H11 UNL     1      30.177  26.529  10.579  1.00  0.00     0.279 HD
HETATM   12  C9  UNL     1      29.593  23.386  10.644  1.00  0.00     0.052 C 
HETATM   13  C10 UNL     1      29.551  22.592   9.367  1.00  0.00     0.085 C 
HETATM   14  C11 UNL     1      28.136  22.620   8.848  1.00  0.00     0.032 C 
HETATM   15  N2  UNL     1      30.531  23.120   8.436  1.00  0.00    -0.332 N 
HETATM   16  C16 UNL     1      30.581  24.482   7.996  1.00  0.00     0.264 C 
HETATM   17  O3  UNL     1      30.990  24.591   6.803  1.00  0.00    -0.270 OA
BRANCH  15  18
HETATM   18  C12 UNL     1      31.546  22.283   7.906  1.00  0.00     0.183 C 
HETATM   19  C13 UNL     1      32.473  21.833   9.054  1.00  0.00     0.043 C 
BRANCH  18  20
HETATM   20  C14 UNL     1      31.133  21.060   7.230  1.00  0.00     0.281 C 
HETATM   21  O1  UNL     1      31.250  19.953   7.789  1.00  0.00    -0.263 OA
BRANCH  20  22
HETATM   22  O2  UNL     1      30.607  21.115   5.963  1.00  0.00    -0.325 OA
HETATM   23  C15 UNL     1      31.343  21.524   4.818  1.00  0.00     0.213 C 
ENDBRANCH  20  22
ENDBRANCH  18  20
ENDBRANCH  15  18
ENDBRANCH   6   7
ENDBRANCH   4   5
TORSDOF 5
ENDMDL
MODEL 2
REMARK VINA RESULT: -6.527180159      3.155      6.716
REMARK  5 active torsions:
REMARK  status: ('A' for Active; 'I' for Inactive)
REMARK    1  A    between atoms: C4_4  and  C5_5 
REMARK    2  A    between atoms: C6_6  and  C7_7 
REMARK    3  A    between atoms: N2_15  and  C12_16 
REMARK    4  A    between atoms: C12_16  and  C14_18 
REMARK    5  A    between atoms: C14_18  and  O2_20 
ROOT
HETATM    1  C1  UNL     1      32.616  20.676   5.333  1.00  0.00     0.017 C 
HETATM    2  C2  UNL     1      31.727  21.092   6.044  1.00  0.00    -0.089 C 
HETATM    3  C3  UNL     1      30.669  21.563   6.888  1.00  0.00     0.072 C 
HETATM    4  C4  UNL     1      30.884  22.538   7.736  1.00  0.00     0.073 C 
ENDROOT
BRANCH   4   5
HETATM    5  C5  UNL     1      29.880  23.061   8.609  1.00  0.00    -0.075 C 
HETATM    6  C6  UNL     1      29.014  23.493   9.362  1.00  0.00    -0.059 C 
BRANCH   6   7
HETATM    7  C7  UNL     1      27.965  23.996  10.243  1.00  0.00     0.355 C 
HETATM    8  N1  UNL     1      28.422  25.187  10.875  1.00  0.00    -0.052 N 
HETATM    9  C8  UNL     1      28.913  26.137   9.897  1.00  0.00     0.236 C 
ATOM     10  H12 UNL     1      27.703  25.597  11.470  1.00  0.00     0.279 HD
ATOM     11  H11 UNL     1      29.121  24.989  11.591  1.00  0.00     0.279 HD
HETATM   12  C9  UNL     1      27.778  27.053   9.552  1.00  0.00     0.052 C 
HETATM   13  C10 UNL     1      26.897  26.559   8.437  1.00  0.00     0.085 C 
HETATM   14  C11 UNL     1      27.773  26.288   7.239  1.00  0.00     0.032 C 
HETATM   15  N2  UNL     1      26.143  25.405   8.890  1.00  0.00    -0.332 N 
HETATM   16  C16 UNL     1      26.728  24.212   9.423  1.00  0.00     0.264 C 
HETATM   17  O3  UNL     1      26.062  23.175   9.136  1.00  0.00    -0.270 OA
BRANCH  15  18
HETATM   18  C12 UNL     1      24.726  25.407   8.842  1.00  0.00     0.183 C 
HETATM   19  C13 UNL     1      24.229  26.867   8.819  1.00  0.00     0.043 C 
BRANCH  18  20
HETATM   20  C14 UNL     1      24.083  24.753   7.710  1.00  0.00     0.281 C 
HETATM   21  O1  UNL     1      24.741  24.430   6.704  1.00  0.00    -0.263 OA
BRANCH  20  22
HETATM   22  O2  UNL     1      22.737  24.484   7.741  1.00  0.00    -0.325 OA
HETATM   23  C15 UNL     1      22.132  23.396   7.056  1.00  0.00     0.213 C 
ENDBRANCH  20  22
ENDBRANCH  18  20
ENDBRANCH  15  18
ENDBRANCH   6   7
ENDBRANCH   4   5
TORSDOF 5
ENDMDL
MODEL 3
REMARK VINA RESULT: -6.274005687      2.862      4.250
REMARK  5 active torsions:
REMARK  status: ('A' for Active; 'I' for Inactive)
REMARK    1  A    between atoms: C4_4  and  C5_5 
REMARK    2  A    between atoms: C6_6  and  C7_7 
REMARK    3  A    between atoms: N2_15  and  C12_16 
REMARK    4  A    between atoms: C12_16  and  C14_18 
REMARK    5  A    between atoms: C14_18  and  O2_20 
ROOT
HETATM    1  C1  UNL     1      23.167  27.635   7.201  1.00  0.00     0.017 C 
HETATM    2  C2  UNL     1      24.023  26.803   7.407  1.00  0.00    -0.089 C 
HETATM    3  C3  UNL     1      25.041  25.818   7.630  1.00  0.00     0.072 C 
HETATM    4  C4  UNL     1      25.824  25.901   8.678  1.00  0.00     0.073 C 
ENDROOT
BRANCH   4   5
HETATM    5  C5  UNL     1      26.859  24.958   8.967  1.00  0.00    -0.075 C 
HETATM    6  C6  UNL     1      27.743  24.141   9.199  1.00  0.00    -0.059 C 
BRANCH   6   7
HETATM    7  C7  UNL     1      28.777  23.149   9.476  1.00  0.00     0.355 C 
HETATM    8  N1  UNL     1      29.529  22.921   8.289  1.00  0.00    -0.052 N 
HETATM    9  C8  UNL     1      30.007  24.169   7.729  1.00  0.00     0.236 C 
ATOM     10  H12 UNL     1      30.292  22.263   8.447  1.00  0.00     0.279 HD
ATOM     11  H11 UNL     1      28.999  22.381   7.605  1.00  0.00     0.279 HD
HETATM   12  C9  UNL     1      31.389  24.400   8.261  1.00  0.00     0.052 C 
HETATM   13  C10 UNL     1      31.435  25.125   9.579  1.00  0.00     0.085 C 
HETATM   14  C11 UNL     1      30.679  26.421   9.422  1.00  0.00     0.032 C 
HETATM   15  N2  UNL     1      30.917  24.263  10.625  1.00  0.00    -0.332 N 
HETATM   16  C16 UNL     1      29.621  23.655  10.608  1.00  0.00     0.264 C 
HETATM   17  O3  UNL     1      29.125  23.538  11.767  1.00  0.00    -0.270 OA
BRANCH  15  18
HETATM   18  C12 UNL     1      31.711  23.948  11.757  1.00  0.00     0.183 C 
HETATM   19  C13 UNL     1      32.338  22.553  11.555  1.00  0.00     0.043 C 
BRANCH  18  20
HETATM   20  C14 UNL     1      32.821  24.837  12.077  1.00  0.00     0.281 C 
HETATM   21  O1  UNL     1      32.655  25.815  12.830  1.00  0.00    -0.263 OA
BRANCH  20  22
HETATM   22  O2  UNL     1      34.066  24.603  11.551  1.00  0.00    -0.325 OA
HETATM   23  C15 UNL     1      34.878  25.609  10.962  1.00  0.00     0.213 C 
ENDBRANCH  20  22
ENDBRANCH  18  20
ENDBRANCH  15  18
ENDBRANCH   6   7
ENDBRANCH   4   5
TORSDOF 5
ENDMDL
MODEL 4
REMARK VINA RESULT: -6.217044253      3.079      7.031
REMARK  5 active torsions:
REMARK  status: ('A' for Active; 'I' for Inactive)
REMARK    1  A    between atoms: C4_4  and  C5_5 
REMARK    2  A    between atoms: C6_6  and  C7_7 
REMARK    3  A    between atoms: N2_15  and  C12_16 
REMARK    4  A    between atoms: C12_16  and  C14_18 
REMARK    5  A    between atoms: C14_18  and  O2_20 
ROOT
HETATM    1  C1  UNL     1      35.202  18.941   8.140  1.00  0.00     0.017 C 
HETATM    2  C2  UNL     1      34.691  19.923   8.633  1.00  0.00    -0.089 C 
HETATM    3  C3  UNL     1      34.091  21.096   9.198  1.00  0.00     0.072 C 
HETATM    4  C4  UNL     1      33.031  20.994   9.962  1.00  0.00     0.073 C 
ENDROOT
BRANCH   4   5
HETATM    5  C5  UNL     1      32.377  22.116  10.560  1.00  0.00    -0.075 C 
HETATM    6  C6  UNL     1      31.812  23.084  11.056  1.00  0.00    -0.059 C 
BRANCH   6   7
HETATM    7  C7  UNL     1      31.155  24.252  11.634  1.00  0.00     0.355 C 
HETATM    8  N1  UNL     1      31.853  25.424  11.225  1.00  0.00    -0.052 N 
HETATM    9  C8  UNL     1      32.014  25.456   9.786  1.00  0.00     0.236 C 
ATOM     10  H12 UNL     1      31.402  26.271  11.572  1.00  0.00     0.279 HD
ATOM     11  H11 UNL     1      32.747  25.517  11.706  1.00  0.00     0.279 HD
HETATM   12  C9  UNL     1      30.870  26.245   9.223  1.00  0.00     0.052 C 
HETATM   13  C10 UNL     1      29.638  25.431   8.935  1.00  0.00     0.085 C 
HETATM   14  C11 UNL     1      30.031  24.299   8.020  1.00  0.00     0.032 C 
HETATM   15  N2  UNL     1      29.038  25.000  10.184  1.00  0.00    -0.332 N 
HETATM   16  C16 UNL     1      29.721  24.249  11.194  1.00  0.00     0.264 C 
HETATM   17  O3  UNL     1      28.953  23.451  11.807  1.00  0.00    -0.270 OA
BRANCH  15  18
HETATM   18  C12 UNL     1      27.694  25.331  10.491  1.00  0.00     0.183 C 
HETATM   19  C13 UNL     1      27.490  26.845  10.272  1.00  0.00     0.043 C 
BRANCH  18  20
HETATM   20  C14 UNL     1      26.641  24.676   9.725  1.00  0.00     0.281 C 
HETATM   21  O1  UNL     1      26.616  23.436   9.609  1.00  0.00    -0.263 OA
BRANCH  20  22
HETATM   22  O2  UNL     1      25.660  25.422   9.121  1.00  0.00    -0.325 OA
HETATM   23  C15 UNL     1      24.372  24.919   8.794  1.00  0.00     0.213 C 
ENDBRANCH  20  22
ENDBRANCH  18  20
ENDBRANCH  15  18
ENDBRANCH   6   7
ENDBRANCH   4   5
TORSDOF 5
ENDMDL
MODEL 5
REMARK VINA RESULT: -6.176226889      3.233      6.816
REMARK  5 active torsions:
REMARK  status: ('A' for Active; 'I' for Inactive)
REMARK    1  A    between atoms: C4_4  and  C5_5 
REMARK    2  A    between atoms: C6_6  and  C7_7 
REMARK    3  A    between atoms: N2_15  and  C12_16 
REMARK    4  A    between atoms: C12_16  and  C14_18 
REMARK    5  A    between atoms: C14_18  and  O2_20 
ROOT
HETATM    1  C1  UNL     1      34.879  18.971   7.761  1.00  0.00     0.017 C 
HETATM    2  C2  UNL     1      34.330  19.943   8.232  1.00  0.00    -0.089 C 
HETATM    3  C3  UNL     1      33.675  21.100   8.768  1.00  0.00     0.072 C 
HETATM    4  C4  UNL     1      33.029  21.026   9.906  1.00  0.00     0.073 C 
ENDROOT
BRANCH   4   5
HETATM    5  C5  UNL     1      32.353  22.134  10.504  1.00  0.00    -0.075 C 
HETATM    6  C6  UNL     1      31.776  23.095  11.002  1.00  0.00    -0.059 C 
BRANCH   6   7
HETATM    7  C7  UNL     1      31.114  24.252  11.595  1.00  0.00     0.355 C 
HETATM    8  N1  UNL     1      31.820  25.431  11.222  1.00  0.00    -0.052 N 
HETATM    9  C8  UNL     1      32.002  25.494   9.787  1.00  0.00     0.236 C 
ATOM     10  H12 UNL     1      31.367  26.271  11.582  1.00  0.00     0.279 HD
ATOM     11  H11 UNL     1      32.708  25.510  11.718  1.00  0.00     0.279 HD
HETATM   12  C9  UNL     1      30.868  26.298   9.225  1.00  0.00     0.052 C 
HETATM   13  C10 UNL     1      29.638  25.494   8.902  1.00  0.00     0.085 C 
HETATM   14  C11 UNL     1      30.042  24.381   7.968  1.00  0.00     0.032 C 
HETATM   15  N2  UNL     1      29.020  25.037  10.133  1.00  0.00    -0.332 N 
HETATM   16  C16 UNL     1      29.686  24.262  11.136  1.00  0.00     0.264 C 
HETATM   17  O3  UNL     1      28.908  23.452  11.719  1.00  0.00    -0.270 OA
BRANCH  15  18
HETATM   18  C12 UNL     1      27.672  25.365  10.427  1.00  0.00     0.183 C 
HETATM   19  C13 UNL     1      27.483  26.888  10.272  1.00  0.00     0.043 C 
BRANCH  18  20
HETATM   20  C14 UNL     1      26.630  24.753   9.612  1.00  0.00     0.281 C 
HETATM   21  O1  UNL     1      25.806  25.456   8.999  1.00  0.00    -0.263 OA
BRANCH  20  22
HETATM   22  O2  UNL     1      26.547  23.386   9.510  1.00  0.00    -0.325 OA
HETATM   23  C15 UNL     1      26.753  22.669   8.301  1.00  0.00     0.213 C 
ENDBRANCH  20  22
ENDBRANCH  18  20
ENDBRANCH  15  18
ENDBRANCH   6   7
ENDBRANCH   4   5
TORSDOF 5
ENDMDL
