MODEL 1
REMARK VINA RESULT: -7.057812820      0.000      0.000
REMARK  4 active torsions:
REMARK  status: ('A' for Active; 'I' for Inactive)
REMARK       I    between atoms: N1_2  and  C2_4 
REMARK    1  A    between atoms: C2_4  and  C3_6 
REMARK    2  A    between atoms: N2_13  and  C10_15 
REMARK    3  A    between atoms: C10_15  and  C11_16 
REMARK    4  A    between atoms: C12_17  and  C13_18 
ROOT
HETATM    1  C3  UNL     1      32.161  24.409   9.766  1.00  0.00     0.214 C 
HETATM    2  C4  UNL     1      31.468  25.298   8.755  1.00  0.00     0.044 C 
HETATM    3  C5  UNL     1      30.132  25.764   9.271  1.00  0.00     0.042 C 
HETATM    4  C6  UNL     1      29.664  25.020  10.484  1.00  0.00     0.255 C 
HETATM    5  C7  UNL     1      30.100  23.569  10.474  1.00  0.00     0.182 C 
HETATM    6  C8  UNL     1      29.114  23.027   9.428  1.00  0.00     0.242 C 
HETATM    7  O2  UNL     1      28.186  24.031   9.225  1.00  0.00    -0.199 OA
HETATM    8  N2  UNL     1      28.208  24.818  10.340  1.00  0.00     0.060 N 
HETATM    9  C9  UNL     1      27.723  24.062  11.453  1.00  0.00     0.313 C 
HETATM   10  O3  UNL     1      31.395  23.348  10.158  1.00  0.00    -0.367 OA
ENDROOT
BRANCH   8  11
HETATM   11  C10 UNL     1      27.601  26.086  10.162  1.00  0.00     0.366 C 
BRANCH  11  12
HETATM   12  C11 UNL     1      26.318  26.018   9.420  1.00  0.00    -0.075 C 
HETATM   13  C12 UNL     1      25.285  25.963   8.799  1.00  0.00    -0.096 C 
BRANCH  13  14
HETATM   14  C13 UNL     1      24.029  25.871   8.045  1.00  0.00     0.013 C 
HETATM   15  C14 UNL     1      22.860  25.551   8.961  1.00  0.00     0.028 C 
HETATM   16  C15 UNL     1      24.170  24.743   7.058  1.00  0.00     0.028 C 
HETATM   17  C16 UNL     1      23.738  27.169   7.324  1.00  0.00     0.028 C 
ENDBRANCH  13  14
ENDBRANCH  11  12
ENDBRANCH   8  11
BRANCH   1  18
HETATM   18  C2  UNL     1      32.765  25.157  10.887  1.00  0.00     0.246 C 
HETATM   19  N1  UNL     1      33.092  24.467  12.086  1.00  0.00    -0.363 N 
HETATM   20  C1  UNL     1      33.689  25.174  13.209  1.00  0.00     0.149 C 
ATOM     21  H1  UNL     1      32.908  23.467  12.159  1.00  0.00     0.162 HD
HETATM   22  O1  UNL     1      32.991  26.409  10.781  1.00  0.00    -0.271 OA
ENDBRANCH   1  18
TORSDOF 4
ENDMDL
MODEL 2
REMARK VINA RESULT: -7.000623347      1.206      1.268
REMARK  4 active torsions:
REMARK  status: ('A' for Active; 'I' for Inactive)
REMARK       I    between atoms: N1_2  and  C2_4 
REMARK    1  A    between atoms: C2_4  and  C3_6 
REMARK    2  A    between atoms: N2_13  and  C10_15 
REMARK    3  A    between atoms: C10_15  and  C11_16 
REMARK    4  A    between atoms: C12_17  and  C13_18 
ROOT
HETATM    1  C3  UNL     1      31.770  24.064   9.405  1.00  0.00     0.214 C 
HETATM    2  C4  UNL     1      31.037  24.652   8.218  1.00  0.00     0.044 C 
HETATM    3  C5  UNL     1      29.872  25.495   8.665  1.00  0.00     0.042 C 
HETATM    4  C6  UNL     1      29.519  25.313  10.109  1.00  0.00     0.255 C 
HETATM    5  C7  UNL     1      29.764  23.897  10.589  1.00  0.00     0.182 C 
HETATM    6  C8  UNL     1      28.561  23.205   9.929  1.00  0.00     0.242 C 
HETATM    7  O2  UNL     1      27.744  24.222   9.471  1.00  0.00    -0.199 OA
HETATM    8  N2  UNL     1      28.045  25.331  10.207  1.00  0.00     0.060 N 
HETATM    9  C9  UNL     1      27.659  25.107  11.566  1.00  0.00     0.313 C 
HETATM   10  O3  UNL     1      30.952  23.357  10.240  1.00  0.00    -0.367 OA
ENDROOT
BRANCH   8  11
HETATM   11  C10 UNL     1      27.579  26.543   9.640  1.00  0.00     0.366 C 
BRANCH  11  12
HETATM   12  C11 UNL     1      26.229  26.423   9.038  1.00  0.00    -0.075 C 
HETATM   13  C12 UNL     1      25.137  26.310   8.537  1.00  0.00    -0.096 C 
BRANCH  13  14
HETATM   14  C13 UNL     1      23.802  26.157   7.946  1.00  0.00     0.013 C 
HETATM   15  C14 UNL     1      22.751  25.915   9.016  1.00  0.00     0.028 C 
HETATM   16  C15 UNL     1      23.836  24.952   7.045  1.00  0.00     0.028 C 
HETATM   17  C16 UNL     1      23.418  27.392   7.160  1.00  0.00     0.028 C 
ENDBRANCH  13  14
ENDBRANCH  11  12
ENDBRANCH   8  11
BRANCH   1  18
HETATM   18  C2  UNL     1      32.637  25.037  10.099  1.00  0.00     0.246 C 
HETATM   19  N1  UNL     1      33.206  26.110   9.362  1.00  0.00    -0.363 N 
HETATM   20  C1  UNL     1      34.064  27.086  10.015  1.00  0.00     0.149 C 
ATOM     21  H1  UNL     1      33.010  26.197   8.364  1.00  0.00     0.162 HD
HETATM   22  O1  UNL     1      32.872  24.916  11.349  1.00  0.00    -0.271 OA
ENDBRANCH   1  18
TORSDOF 4
ENDMDL
MODEL 3
REMARK VINA RESULT: -6.962968855      2.001      2.689
REMARK  4 active torsions:
REMARK  status: ('A' for Active; 'I' for Inactive)
REMARK       I    between atoms: N1_2  and  C2_4 
REMARK    1  A    between atoms: C2_4  and  C3_6 
REMARK    2  A    between atoms: N2_13  and  C10_15 
REMARK    3  A    between atoms: C10_15  and  C11_16 
REMARK    4  A    between atoms: C12_17  and  C13_18 
ROOT
HETATM    1  C3  UNL     1      32.824  23.537  11.402  1.00  0.00     0.214 C 
HETATM    2  C4  UNL     1      31.763  24.221  12.238  1.00  0.00     0.044 C 
HETATM    3  C5  UNL     1      30.391  24.005  11.654  1.00  0.00     0.042 C 
HETATM    4  C6  UNL     1      30.412  23.454  10.261  1.00  0.00     0.255 C 
HETATM    5  C7  UNL     1      31.596  23.956   9.460  1.00  0.00     0.182 C 
HETATM    6  C8  UNL     1      31.109  25.385   9.177  1.00  0.00     0.242 C 
HETATM    7  O2  UNL     1      29.778  25.412   9.547  1.00  0.00    -0.199 OA
HETATM    8  N2  UNL     1      29.332  24.123   9.508  1.00  0.00     0.060 N 
HETATM    9  C9  UNL     1      29.347  23.666   8.152  1.00  0.00     0.313 C 
HETATM   10  O3  UNL     1      32.791  23.909  10.088  1.00  0.00    -0.367 OA
ENDROOT
BRANCH   8  11
HETATM   11  C10 UNL     1      28.114  23.913  10.201  1.00  0.00     0.366 C 
BRANCH  11  12
HETATM   12  C11 UNL     1      26.924  24.347   9.431  1.00  0.00    -0.075 C 
HETATM   13  C12 UNL     1      25.967  24.711   8.790  1.00  0.00    -0.096 C 
BRANCH  13  14
HETATM   14  C13 UNL     1      24.804  25.130   7.999  1.00  0.00     0.013 C 
HETATM   15  C14 UNL     1      23.569  25.278   8.871  1.00  0.00     0.028 C 
HETATM   16  C15 UNL     1      24.531  24.053   6.983  1.00  0.00     0.028 C 
HETATM   17  C16 UNL     1      25.072  26.449   7.308  1.00  0.00     0.028 C 
ENDBRANCH  13  14
ENDBRANCH  11  12
ENDBRANCH   8  11
BRANCH   1  18
HETATM   18  C2  UNL     1      32.879  22.075  11.608  1.00  0.00     0.246 C 
HETATM   19  N1  UNL     1      32.753  21.554  12.923  1.00  0.00    -0.363 N 
HETATM   20  C1  UNL     1      32.803  20.120  13.161  1.00  0.00     0.149 C 
ATOM     21  H1  UNL     1      32.627  22.192  13.709  1.00  0.00     0.162 HD
HETATM   22  O1  UNL     1      33.036  21.289  10.614  1.00  0.00    -0.271 OA
ENDBRANCH   1  18
TORSDOF 4
ENDMDL
MODEL 4
REMARK VINA RESULT: -6.905960759      2.372      3.610
REMARK  4 active torsions:
REMARK  status: ('A' for Active; 'I' for Inactive)
REMARK       I    between atoms: N1_2  and  C2_4 
REMARK    1  A    between atoms: C2_4  and  C3_6 
REMARK    2  A    between atoms: N2_13  and  C10_15 
REMARK    3  A    between atoms: C10_15  and  C11_16 
REMARK    4  A    between atoms: C12_17  and  C13_18 
ROOT
HETATM    1  C3  UNL     1      31.598  23.370   8.846  1.00  0.00     0.214 C 
HETATM    2  C4  UNL     1      30.639  22.931   9.932  1.00  0.00     0.044 C 
HETATM    3  C5  UNL     1      29.214  23.230   9.547  1.00  0.00     0.042 C 
HETATM    4  C6  UNL     1      29.089  24.144   8.367  1.00  0.00     0.255 C 
HETATM    5  C7  UNL     1      30.206  25.166   8.309  1.00  0.00     0.182 C 
HETATM    6  C8  UNL     1      29.733  26.106   9.429  1.00  0.00     0.242 C 
HETATM    7  O2  UNL     1      28.443  25.713   9.733  1.00  0.00    -0.199 OA
HETATM    8  N2  UNL     1      27.962  25.059   8.637  1.00  0.00     0.060 N 
HETATM    9  C9  UNL     1      27.838  25.989   7.557  1.00  0.00     0.313 C 
HETATM   10  O3  UNL     1      31.453  24.684   8.503  1.00  0.00    -0.367 OA
ENDROOT
BRANCH   8  11
HETATM   11  C10 UNL     1      26.809  24.276   8.893  1.00  0.00     0.366 C 
BRANCH  11  12
HETATM   12  C11 UNL     1      25.543  24.985   8.585  1.00  0.00    -0.075 C 
HETATM   13  C12 UNL     1      24.503  25.547   8.344  1.00  0.00    -0.096 C 
BRANCH  13  14
HETATM   14  C13 UNL     1      23.241  26.245   8.072  1.00  0.00     0.013 C 
HETATM   15  C14 UNL     1      23.397  27.245   6.939  1.00  0.00     0.028 C 
HETATM   16  C15 UNL     1      22.861  27.004   9.315  1.00  0.00     0.028 C 
HETATM   17  C16 UNL     1      22.152  25.261   7.703  1.00  0.00     0.028 C 
ENDBRANCH  13  14
ENDBRANCH  11  12
ENDBRANCH   8  11
BRANCH   1  18
HETATM   18  C2  UNL     1      31.634  22.451   7.690  1.00  0.00     0.246 C 
HETATM   19  N1  UNL     1      31.919  22.970   6.399  1.00  0.00    -0.363 N 
HETATM   20  C1  UNL     1      31.962  22.093   5.239  1.00  0.00     0.149 C 
ATOM     21  H1  UNL     1      32.096  23.969   6.284  1.00  0.00     0.162 HD
HETATM   22  O1  UNL     1      31.411  21.203   7.849  1.00  0.00    -0.271 OA
ENDBRANCH   1  18
TORSDOF 4
ENDMDL
MODEL 5
REMARK VINA RESULT: -6.889864099      2.482      3.341
REMARK  4 active torsions:
REMARK  status: ('A' for Active; 'I' for Inactive)
REMARK       I    between atoms: N1_2  and  C2_4 
REMARK    1  A    between atoms: C2_4  and  C3_6 
REMARK    2  A    between atoms: N2_13  and  C10_15 
REMARK    3  A    between atoms: C10_15  and  C11_16 
REMARK    4  A    between atoms: C12_17  and  C13_18 
ROOT
HETATM    1  C3  UNL     1      29.877  22.701   9.351  1.00  0.00     0.214 C 
HETATM    2  C4  UNL     1      28.555  22.700   8.614  1.00  0.00     0.044 C 
HETATM    3  C5  UNL     1      28.242  24.067   8.062  1.00  0.00     0.042 C 
HETATM    4  C6  UNL     1      29.115  25.151   8.614  1.00  0.00     0.255 C 
HETATM    5  C7  UNL     1      29.509  24.898  10.055  1.00  0.00     0.182 C 
HETATM    6  C8  UNL     1      28.177  25.252  10.735  1.00  0.00     0.242 C 
HETATM    7  O2  UNL     1      27.404  25.856   9.762  1.00  0.00    -0.199 OA
HETATM    8  N2  UNL     1      28.264  26.340   8.819  1.00  0.00     0.060 N 
HETATM    9  C9  UNL     1      29.046  27.388   9.398  1.00  0.00     0.313 C 
HETATM   10  O3  UNL     1      29.940  23.648  10.334  1.00  0.00    -0.367 OA
ENDROOT
BRANCH   8  11
HETATM   11  C10 UNL     1      27.645  26.659   7.585  1.00  0.00     0.366 C 
BRANCH  11  12
HETATM   12  C11 UNL     1      26.165  26.588   7.641  1.00  0.00    -0.075 C 
HETATM   13  C12 UNL     1      24.961  26.510   7.690  1.00  0.00    -0.096 C 
BRANCH  13  14
HETATM   14  C13 UNL     1      23.498  26.424   7.775  1.00  0.00     0.013 C 
HETATM   15  C14 UNL     1      22.832  27.363   6.784  1.00  0.00     0.028 C 
HETATM   16  C15 UNL     1      23.095  26.847   9.162  1.00  0.00     0.028 C 
HETATM   17  C16 UNL     1      23.027  25.013   7.498  1.00  0.00     0.028 C 
ENDBRANCH  13  14
ENDBRANCH  11  12
ENDBRANCH   8  11
BRANCH   1  18
HETATM   18  C2  UNL     1      31.049  22.694   8.453  1.00  0.00     0.246 C 
HETATM   19  N1  UNL     1      30.899  22.226   7.119  1.00  0.00    -0.363 N 
HETATM   20  C1  UNL     1      32.032  22.206   6.208  1.00  0.00     0.149 C 
ATOM     21  H1  UNL     1      29.987  21.901   6.798  1.00  0.00     0.162 HD
HETATM   22  O1  UNL     1      32.184  23.105   8.869  1.00  0.00    -0.271 OA
ENDBRANCH   1  18
TORSDOF 4
ENDMDL
