MODEL 1
REMARK VINA RESULT: -7.001856650      0.000      0.000
REMARK  11 active torsions:
REMARK  status: ('A' for Active; 'I' for Inactive)
REMARK    1  A    between atoms: C2_2  and  C5_7 
REMARK    2  A    between atoms: C3_3  and  C4_4 
REMARK    3  A    between atoms: C5_7  and  C6_8 
REMARK    4  A    between atoms: C7_9  and  C8_10 
REMARK    5  A    between atoms: C7_9  and  C22_33 
REMARK    6  A    between atoms: C8_10  and  C9_11 
REMARK    7  A    between atoms: C9_11  and  O2_12 
REMARK    8  A    between atoms: C9_11  and  C10_14 
REMARK    9  A    between atoms: C10_14  and  O3_15 
REMARK   10  A    between atoms: C17_24  and  O5_25 
REMARK   11  A    between atoms: C18_27  and  O6_28 
ROOT
HETATM    1  C10 UNL     1      11.779  24.533  22.906  1.00  0.00     0.120 C 
HETATM    2  C11 UNL     1      10.923  24.643  24.121  1.00  0.00     0.188 A 
HETATM    3  O4  UNL     1      10.853  23.988  25.252  1.00  0.00    -0.372 OA
HETATM    4  C12 UNL     1      10.469  23.177  24.287  1.00  0.00     0.154 A 
HETATM    5  C13 UNL     1       9.310  23.159  23.366  1.00  0.00     0.040 C 
HETATM    6  C14 UNL     1       9.532  23.793  22.033  1.00  0.00     0.005 C 
HETATM    7  C15 UNL     1       9.125  22.750  21.010  1.00  0.00     0.018 C 
HETATM    8  C16 UNL     1       9.683  21.385  21.266  1.00  0.00     0.013 C 
HETATM    9  C17 UNL     1       9.349  23.138  19.593  1.00  0.00     0.151 C 
HETATM   10  C18 UNL     1      10.762  23.503  19.390  1.00  0.00     0.148 C 
HETATM   11  C19 UNL     1      11.580  23.677  20.631  1.00  0.00     0.047 C 
HETATM   12  C20 UNL     1      10.850  24.454  21.738  1.00  0.00    -0.001 C 
HETATM   13  C21 UNL     1      10.526  25.807  21.120  1.00  0.00     0.019 C 
ENDROOT
BRANCH   1  14
HETATM   14  C9  UNL     1      12.802  25.611  22.975  1.00  0.00     0.160 C 
BRANCH  14  15
HETATM   15  C8  UNL     1      14.123  25.295  22.397  1.00  0.00     0.069 C 
BRANCH  15  16
HETATM   16  C7  UNL     1      14.584  26.235  21.269  1.00  0.00    -0.077 C 
HETATM   17  C6  UNL     1      14.145  25.950  20.064  1.00  0.00    -0.019 C 
BRANCH  17  18
HETATM   18  C5  UNL     1      14.291  26.509  18.749  1.00  0.00     0.061 C 
BRANCH  18  19
HETATM   19  C2  UNL     1      15.588  26.103  18.084  1.00  0.00    -0.075 C 
HETATM   20  C1  UNL     1      16.746  26.955  18.288  1.00  0.00     0.044 C 
HETATM   21  C3  UNL     1      15.598  25.018  17.368  1.00  0.00     0.073 C 
BRANCH  21  22
HETATM   22  C4  UNL     1      16.750  24.508  16.679  1.00  0.00     0.254 C 
HETATM   23  N1  UNL     1      17.068  24.739  15.314  1.00  0.00    -0.058 NA
HETATM   24  O1  UNL     1      17.570  23.776  17.355  1.00  0.00    -0.272 OA
ENDBRANCH  21  22
ENDBRANCH  18  19
ENDBRANCH  17  18
BRANCH  16  25
HETATM   25  C22 UNL     1      15.507  27.294  21.692  1.00  0.00     0.006 C 
HETATM   26  C23 UNL     1      14.720  28.634  21.775  1.00  0.00     0.014 C 
HETATM   27  C24 UNL     1      16.191  27.092  23.033  1.00  0.00     0.014 C 
ENDBRANCH  16  25
ENDBRANCH  15  16
ENDBRANCH  14  15
BRANCH  14  28
HETATM   28  O2  UNL     1      12.865  26.403  24.057  1.00  0.00    -0.392 OA
ATOM     29  H2  UNL     1      12.050  26.855  24.245  1.00  0.00     0.210 HD
ENDBRANCH  14  28
ENDBRANCH   1  14
BRANCH   1  30
HETATM   30  O3  UNL     1      12.519  23.318  22.903  1.00  0.00    -0.384 OA
ATOM     31  H3  UNL     1      11.970  22.691  23.360  1.00  0.00     0.210 HD
ENDBRANCH   1  30
BRANCH  10  32
HETATM   32  O6  UNL     1      10.822  24.614  18.534  1.00  0.00    -0.393 OA
ATOM     33  H6  UNL     1      10.534  24.348  17.668  1.00  0.00     0.210 HD
ENDBRANCH  10  32
BRANCH   9  34
HETATM   34  O5  UNL     1       9.026  21.987  18.828  1.00  0.00    -0.393 OA
ATOM     35  H5  UNL     1       8.731  22.315  17.987  1.00  0.00     0.210 HD
ENDBRANCH   9  34
TORSDOF 11
ENDMDL
MODEL 2
REMARK VINA RESULT: -6.772182094      1.789      2.602
REMARK  11 active torsions:
REMARK  status: ('A' for Active; 'I' for Inactive)
REMARK    1  A    between atoms: C2_2  and  C5_7 
REMARK    2  A    between atoms: C3_3  and  C4_4 
REMARK    3  A    between atoms: C5_7  and  C6_8 
REMARK    4  A    between atoms: C7_9  and  C8_10 
REMARK    5  A    between atoms: C7_9  and  C22_33 
REMARK    6  A    between atoms: C8_10  and  C9_11 
REMARK    7  A    between atoms: C9_11  and  O2_12 
REMARK    8  A    between atoms: C9_11  and  C10_14 
REMARK    9  A    between atoms: C10_14  and  O3_15 
REMARK   10  A    between atoms: C17_24  and  O5_25 
REMARK   11  A    between atoms: C18_27  and  O6_28 
ROOT
HETATM    1  C10 UNL     1      11.882  24.750  21.642  1.00  0.00     0.120 C 
HETATM    2  C11 UNL     1      11.647  25.347  22.987  1.00  0.00     0.188 A 
HETATM    3  O4  UNL     1      12.164  25.156  24.175  1.00  0.00    -0.372 OA
HETATM    4  C12 UNL     1      11.490  24.073  23.844  1.00  0.00     0.154 A 
HETATM    5  C13 UNL     1      10.054  23.788  23.625  1.00  0.00     0.040 C 
HETATM    6  C14 UNL     1       9.585  23.877  22.210  1.00  0.00     0.005 C 
HETATM    7  C15 UNL     1       8.892  22.559  21.924  1.00  0.00     0.018 C 
HETATM    8  C16 UNL     1       9.661  21.352  22.359  1.00  0.00     0.013 C 
HETATM    9  C17 UNL     1       8.416  22.389  20.527  1.00  0.00     0.151 C 
HETATM   10  C18 UNL     1       9.538  22.570  19.589  1.00  0.00     0.148 C 
HETATM   11  C19 UNL     1      10.796  23.136  20.171  1.00  0.00     0.047 C 
HETATM   12  C20 UNL     1      10.547  24.306  21.138  1.00  0.00    -0.001 C 
HETATM   13  C21 UNL     1       9.825  25.356  20.305  1.00  0.00     0.019 C 
ENDROOT
BRANCH   1  14
HETATM   14  C9  UNL     1      12.694  25.717  20.855  1.00  0.00     0.160 C 
BRANCH  14  15
HETATM   15  C8  UNL     1      13.838  25.153  20.111  1.00  0.00     0.069 C 
BRANCH  15  16
HETATM   16  C7  UNL     1      13.823  25.414  18.595  1.00  0.00    -0.077 C 
HETATM   17  C6  UNL     1      14.788  24.853  17.903  1.00  0.00    -0.019 C 
BRANCH  17  18
HETATM   18  C5  UNL     1      15.180  24.803  16.521  1.00  0.00     0.061 C 
BRANCH  18  19
HETATM   19  C2  UNL     1      16.682  24.816  16.340  1.00  0.00    -0.075 C 
HETATM   20  C1  UNL     1      17.495  25.208  17.477  1.00  0.00     0.044 C 
HETATM   21  C3  UNL     1      17.163  24.477  15.181  1.00  0.00     0.073 C 
BRANCH  21  22
HETATM   22  C4  UNL     1      18.563  24.442  14.859  1.00  0.00     0.254 C 
HETATM   23  N1  UNL     1      19.349  25.555  14.461  1.00  0.00    -0.058 NA
HETATM   24  O1  UNL     1      19.161  23.302  14.939  1.00  0.00    -0.272 OA
ENDBRANCH  21  22
ENDBRANCH  18  19
ENDBRANCH  17  18
BRANCH  16  25
HETATM   25  C22 UNL     1      12.756  26.312  18.137  1.00  0.00     0.006 C 
HETATM   26  C23 UNL     1      13.402  27.640  17.647  1.00  0.00     0.014 C 
HETATM   27  C24 UNL     1      11.882  25.795  17.008  1.00  0.00     0.014 C 
ENDBRANCH  16  25
ENDBRANCH  15  16
ENDBRANCH  14  15
BRANCH  14  28
HETATM   28  O2  UNL     1      12.922  26.947  21.340  1.00  0.00    -0.392 OA
ATOM     29  H2  UNL     1      13.372  26.948  22.177  1.00  0.00     0.210 HD
ENDBRANCH  14  28
ENDBRANCH   1  14
BRANCH   1  30
HETATM   30  O3  UNL     1      12.680  23.576  21.730  1.00  0.00    -0.384 OA
ATOM     31  H3  UNL     1      12.944  23.521  22.641  1.00  0.00     0.210 HD
ENDBRANCH   1  30
BRANCH  10  32
HETATM   32  O6  UNL     1       9.081  23.286  18.472  1.00  0.00    -0.393 OA
ATOM     33  H6  UNL     1       9.635  23.079  17.729  1.00  0.00     0.210 HD
ENDBRANCH  10  32
BRANCH   9  34
HETATM   34  O5  UNL     1       7.926  21.060  20.452  1.00  0.00    -0.393 OA
ATOM     35  H5  UNL     1       8.193  20.643  21.263  1.00  0.00     0.210 HD
ENDBRANCH   9  34
TORSDOF 11
ENDMDL
MODEL 3
REMARK VINA RESULT: -6.771421769      1.092      1.165
REMARK  11 active torsions:
REMARK  status: ('A' for Active; 'I' for Inactive)
REMARK    1  A    between atoms: C2_2  and  C5_7 
REMARK    2  A    between atoms: C3_3  and  C4_4 
REMARK    3  A    between atoms: C5_7  and  C6_8 
REMARK    4  A    between atoms: C7_9  and  C8_10 
REMARK    5  A    between atoms: C7_9  and  C22_33 
REMARK    6  A    between atoms: C8_10  and  C9_11 
REMARK    7  A    between atoms: C9_11  and  O2_12 
REMARK    8  A    between atoms: C9_11  and  C10_14 
REMARK    9  A    between atoms: C10_14  and  O3_15 
REMARK   10  A    between atoms: C17_24  and  O5_25 
REMARK   11  A    between atoms: C18_27  and  O6_28 
ROOT
HETATM    1  C10 UNL     1      11.781  24.754  22.773  1.00  0.00     0.120 C 
HETATM    2  C11 UNL     1      11.141  25.199  24.043  1.00  0.00     0.188 A 
HETATM    3  O4  UNL     1      11.295  24.883  25.304  1.00  0.00    -0.372 OA
HETATM    4  C12 UNL     1      10.788  23.839  24.680  1.00  0.00     0.154 A 
HETATM    5  C13 UNL     1       9.490  23.572  24.019  1.00  0.00     0.040 C 
HETATM    6  C14 UNL     1       9.453  23.812  22.546  1.00  0.00     0.005 C 
HETATM    7  C15 UNL     1       8.923  22.529  21.935  1.00  0.00     0.018 C 
HETATM    8  C16 UNL     1       9.576  21.286  22.451  1.00  0.00     0.013 C 
HETATM    9  C17 UNL     1       8.884  22.510  20.450  1.00  0.00     0.151 C 
HETATM   10  C18 UNL     1      10.224  22.798  19.908  1.00  0.00     0.148 C 
HETATM   11  C19 UNL     1      11.234  23.304  20.890  1.00  0.00     0.047 C 
HETATM   12  C20 UNL     1      10.670  24.360  21.855  1.00  0.00    -0.001 C 
HETATM   13  C21 UNL     1      10.185  25.492  20.958  1.00  0.00     0.019 C 
ENDROOT
BRANCH   1  14
HETATM   14  C9  UNL     1      12.752  25.805  22.364  1.00  0.00     0.160 C 
BRANCH  14  15
HETATM   15  C8  UNL     1      13.984  25.332  21.704  1.00  0.00     0.069 C 
BRANCH  15  16
HETATM   16  C7  UNL     1      14.190  25.839  20.265  1.00  0.00    -0.077 C 
HETATM   17  C6  UNL     1      13.635  25.120  19.315  1.00  0.00    -0.019 C 
BRANCH  17  18
HETATM   18  C5  UNL     1      13.549  25.185  17.883  1.00  0.00     0.061 C 
BRANCH  18  19
HETATM   19  C2  UNL     1      14.890  25.437  17.229  1.00  0.00    -0.075 C 
HETATM   20  C1  UNL     1      15.034  26.637  16.425  1.00  0.00     0.044 C 
HETATM   21  C3  UNL     1      15.838  24.568  17.421  1.00  0.00     0.073 C 
BRANCH  21  22
HETATM   22  C4  UNL     1      17.160  24.671  16.867  1.00  0.00     0.254 C 
HETATM   23  N1  UNL     1      17.599  24.073  15.656  1.00  0.00    -0.058 NA
HETATM   24  O1  UNL     1      18.025  25.366  17.523  1.00  0.00    -0.272 OA
ENDBRANCH  21  22
ENDBRANCH  18  19
ENDBRANCH  17  18
BRANCH  16  25
HETATM   25  C22 UNL     1      15.036  27.032  20.150  1.00  0.00     0.006 C 
HETATM   26  C23 UNL     1      14.117  28.279  20.009  1.00  0.00     0.014 C 
HETATM   27  C24 UNL     1      15.981  27.299  21.308  1.00  0.00     0.014 C 
ENDBRANCH  16  25
ENDBRANCH  15  16
ENDBRANCH  14  15
BRANCH  14  28
HETATM   28  O2  UNL     1      12.939  26.881  23.144  1.00  0.00    -0.392 OA
ATOM     29  H2  UNL     1      12.251  27.008  23.787  1.00  0.00     0.210 HD
ENDBRANCH  14  28
ENDBRANCH   1  14
BRANCH   1  30
HETATM   30  O3  UNL     1      12.562  23.582  22.971  1.00  0.00    -0.384 OA
ATOM     31  H3  UNL     1      12.576  23.146  22.127  1.00  0.00     0.210 HD
ENDBRANCH   1  30
BRANCH  10  32
HETATM   32  O6  UNL     1      10.087  23.629  18.785  1.00  0.00    -0.393 OA
ATOM     33  H6  UNL     1       9.204  23.541  18.446  1.00  0.00     0.210 HD
ENDBRANCH  10  32
BRANCH   9  34
HETATM   34  O5  UNL     1       8.486  21.194  20.097  1.00  0.00    -0.393 OA
ATOM     35  H5  UNL     1       8.199  21.249  19.194  1.00  0.00     0.210 HD
ENDBRANCH   9  34
TORSDOF 11
ENDMDL
MODEL 4
REMARK VINA RESULT: -6.554385668      1.543      1.988
REMARK  11 active torsions:
REMARK  status: ('A' for Active; 'I' for Inactive)
REMARK    1  A    between atoms: C2_2  and  C5_7 
REMARK    2  A    between atoms: C3_3  and  C4_4 
REMARK    3  A    between atoms: C5_7  and  C6_8 
REMARK    4  A    between atoms: C7_9  and  C8_10 
REMARK    5  A    between atoms: C7_9  and  C22_33 
REMARK    6  A    between atoms: C8_10  and  C9_11 
REMARK    7  A    between atoms: C9_11  and  O2_12 
REMARK    8  A    between atoms: C9_11  and  C10_14 
REMARK    9  A    between atoms: C10_14  and  O3_15 
REMARK   10  A    between atoms: C17_24  and  O5_25 
REMARK   11  A    between atoms: C18_27  and  O6_28 
ROOT
HETATM    1  C10 UNL     1      11.800  24.839  22.452  1.00  0.00     0.120 C 
HETATM    2  C11 UNL     1      11.268  25.320  23.758  1.00  0.00     0.188 A 
HETATM    3  O4  UNL     1      11.533  25.048  25.010  1.00  0.00    -0.372 OA
HETATM    4  C12 UNL     1      10.986  23.979  24.466  1.00  0.00     0.154 A 
HETATM    5  C13 UNL     1       9.639  23.679  23.929  1.00  0.00     0.040 C 
HETATM    6  C14 UNL     1       9.472  23.870  22.458  1.00  0.00     0.005 C 
HETATM    7  C15 UNL     1       8.906  22.563  21.937  1.00  0.00     0.018 C 
HETATM    8  C16 UNL     1       9.615  21.343  22.434  1.00  0.00     0.013 C 
HETATM    9  C17 UNL     1       8.738  22.494  20.462  1.00  0.00     0.151 C 
HETATM   10  C18 UNL     1      10.023  22.776  19.798  1.00  0.00     0.148 C 
HETATM   11  C19 UNL     1      11.108  23.323  20.671  1.00  0.00     0.047 C 
HETATM   12  C20 UNL     1      10.618  24.405  21.646  1.00  0.00    -0.001 C 
HETATM   13  C21 UNL     1      10.045  25.502  20.760  1.00  0.00     0.019 C 
ENDROOT
BRANCH   1  14
HETATM   14  C9  UNL     1      12.719  25.884  21.926  1.00  0.00     0.160 C 
BRANCH  14  15
HETATM   15  C8  UNL     1      13.796  25.415  21.032  1.00  0.00     0.069 C 
BRANCH  15  16
HETATM   16  C7  UNL     1      13.636  25.810  19.554  1.00  0.00    -0.077 C 
HETATM   17  C6  UNL     1      13.939  24.884  18.672  1.00  0.00    -0.019 C 
BRANCH  17  18
HETATM   18  C5  UNL     1      13.948  24.781  17.239  1.00  0.00     0.061 C 
BRANCH  18  19
HETATM   19  C2  UNL     1      15.336  24.919  16.653  1.00  0.00    -0.075 C 
HETATM   20  C1  UNL     1      16.465  24.806  17.559  1.00  0.00     0.044 C 
HETATM   21  C3  UNL     1      15.445  25.131  15.375  1.00  0.00     0.073 C 
BRANCH  21  22
HETATM   22  C4  UNL     1      16.692  25.283  14.678  1.00  0.00     0.254 C 
HETATM   23  N1  UNL     1      17.211  26.502  14.167  1.00  0.00    -0.058 NA
HETATM   24  O1  UNL     1      17.404  24.223  14.500  1.00  0.00    -0.272 OA
ENDBRANCH  21  22
ENDBRANCH  18  19
ENDBRANCH  17  18
BRANCH  16  25
HETATM   25  C22 UNL     1      13.221  27.200  19.332  1.00  0.00     0.006 C 
HETATM   26  C23 UNL     1      14.460  28.019  18.868  1.00  0.00     0.014 C 
HETATM   27  C24 UNL     1      12.127  27.417  18.301  1.00  0.00     0.014 C 
ENDBRANCH  16  25
ENDBRANCH  15  16
ENDBRANCH  14  15
BRANCH  14  28
HETATM   28  O2  UNL     1      13.082  26.910  22.712  1.00  0.00    -0.392 OA
ATOM     29  H2  UNL     1      12.385  27.538  22.863  1.00  0.00     0.210 HD
ENDBRANCH  14  28
ENDBRANCH   1  14
BRANCH   1  30
HETATM   30  O3  UNL     1      12.608  23.680  22.619  1.00  0.00    -0.384 OA
ATOM     31  H3  UNL     1      12.075  22.958  22.310  1.00  0.00     0.210 HD
ENDBRANCH   1  30
BRANCH  10  32
HETATM   32  O6  UNL     1       9.780  23.568  18.665  1.00  0.00    -0.393 OA
ATOM     33  H6  UNL     1       9.631  22.997  17.920  1.00  0.00     0.210 HD
ENDBRANCH  10  32
BRANCH   9  34
HETATM   34  O5  UNL     1       8.327  21.164  20.188  1.00  0.00    -0.393 OA
ATOM     35  H5  UNL     1       7.408  21.225  19.955  1.00  0.00     0.210 HD
ENDBRANCH   9  34
TORSDOF 11
ENDMDL
MODEL 5
REMARK VINA RESULT: -6.429895430      0.915      1.109
REMARK  11 active torsions:
REMARK  status: ('A' for Active; 'I' for Inactive)
REMARK    1  A    between atoms: C2_2  and  C5_7 
REMARK    2  A    between atoms: C3_3  and  C4_4 
REMARK    3  A    between atoms: C5_7  and  C6_8 
REMARK    4  A    between atoms: C7_9  and  C8_10 
REMARK    5  A    between atoms: C7_9  and  C22_33 
REMARK    6  A    between atoms: C8_10  and  C9_11 
REMARK    7  A    between atoms: C9_11  and  O2_12 
REMARK    8  A    between atoms: C9_11  and  C10_14 
REMARK    9  A    between atoms: C10_14  and  O3_15 
REMARK   10  A    between atoms: C17_24  and  O5_25 
REMARK   11  A    between atoms: C18_27  and  O6_28 
ROOT
HETATM    1  C10 UNL     1      11.690  24.697  22.367  1.00  0.00     0.120 C 
HETATM    2  C11 UNL     1      10.912  24.378  23.596  1.00  0.00     0.188 A 
HETATM    3  O4  UNL     1      10.917  23.385  24.449  1.00  0.00    -0.372 OA
HETATM    4  C12 UNL     1      10.478  22.928  23.294  1.00  0.00     0.154 A 
HETATM    5  C13 UNL     1       9.263  23.184  22.487  1.00  0.00     0.040 C 
HETATM    6  C14 UNL     1       9.397  24.228  21.429  1.00  0.00     0.005 C 
HETATM    7  C15 UNL     1       8.932  23.570  20.143  1.00  0.00     0.018 C 
HETATM    8  C16 UNL     1       9.512  22.213  19.901  1.00  0.00     0.013 C 
HETATM    9  C17 UNL     1       9.063  24.410  18.925  1.00  0.00     0.151 C 
HETATM   10  C18 UNL     1      10.458  24.859  18.773  1.00  0.00     0.148 C 
HETATM   11  C19 UNL     1      11.352  24.635  19.952  1.00  0.00     0.047 C 
HETATM   12  C20 UNL     1      10.689  24.984  21.294  1.00  0.00    -0.001 C 
HETATM   13  C21 UNL     1      10.318  26.456  21.178  1.00  0.00     0.019 C 
ENDROOT
BRANCH   1  14
HETATM   14  C9  UNL     1      12.708  25.719  22.729  1.00  0.00     0.160 C 
BRANCH  14  15
HETATM   15  C8  UNL     1      14.104  25.408  22.363  1.00  0.00     0.069 C 
BRANCH  15  16
HETATM   16  C7  UNL     1      14.729  26.347  21.316  1.00  0.00    -0.077 C 
HETATM   17  C6  UNL     1      14.418  26.103  20.063  1.00  0.00    -0.019 C 
BRANCH  17  18
HETATM   18  C5  UNL     1      14.735  26.679  18.786  1.00  0.00     0.061 C 
BRANCH  18  19
HETATM   19  C2  UNL     1      15.137  25.640  17.761  1.00  0.00    -0.075 C 
HETATM   20  C1  UNL     1      14.116  24.716  17.302  1.00  0.00     0.044 C 
HETATM   21  C3  UNL     1      16.370  25.630  17.349  1.00  0.00     0.073 C 
BRANCH  21  22
HETATM   22  C4  UNL     1      16.897  24.706  16.383  1.00  0.00     0.254 C 
HETATM   23  N1  UNL     1      16.630  24.725  14.988  1.00  0.00    -0.058 NA
HETATM   24  O1  UNL     1      17.682  23.780  16.817  1.00  0.00    -0.272 OA
ENDBRANCH  21  22
ENDBRANCH  18  19
ENDBRANCH  17  18
BRANCH  16  25
HETATM   25  C22 UNL     1      15.643  27.355  21.865  1.00  0.00     0.006 C 
HETATM   26  C23 UNL     1      14.891  28.716  21.940  1.00  0.00     0.014 C 
HETATM   27  C24 UNL     1      16.201  27.074  23.249  1.00  0.00     0.014 C 
ENDBRANCH  16  25
ENDBRANCH  15  16
ENDBRANCH  14  15
BRANCH  14  28
HETATM   28  O2  UNL     1      12.594  26.395  23.884  1.00  0.00    -0.392 OA
ATOM     29  H2  UNL     1      12.341  25.849  24.620  1.00  0.00     0.210 HD
ENDBRANCH  14  28
ENDBRANCH   1  14
BRANCH   1  30
HETATM   30  O3  UNL     1      12.435  23.571  21.919  1.00  0.00    -0.384 OA
ATOM     31  H3  UNL     1      11.786  22.905  21.725  1.00  0.00     0.210 HD
ENDBRANCH   1  30
BRANCH  10  32
HETATM   32  O6  UNL     1      10.457  26.191  18.330  1.00  0.00    -0.393 OA
ATOM     33  H6  UNL     1      10.638  26.759  19.070  1.00  0.00     0.210 HD
ENDBRANCH  10  32
BRANCH   9  34
HETATM   34  O5  UNL     1       8.700  23.568  17.842  1.00  0.00    -0.393 OA
ATOM     35  H5  UNL     1       9.125  22.736  18.013  1.00  0.00     0.210 HD
ENDBRANCH   9  34
TORSDOF 11
ENDMDL
