MODEL 1
REMARK VINA RESULT: -6.646233438      0.000      0.000
REMARK  9 active torsions:
REMARK  status: ('A' for Active; 'I' for Inactive)
REMARK    1  A    between atoms: N1_1  and  C1_5 
REMARK    2  A    between atoms: C1_5  and  C2_6 
REMARK    3  A    between atoms: C2_6  and  C3_7 
REMARK    4  A    between atoms: C3_7  and  C4_8 
REMARK    5  A    between atoms: C9_13  and  S1_14 
REMARK    6  A    between atoms: S1_14  and  C10_15 
REMARK    7  A    between atoms: C10_15  and  C11_16 
REMARK    8  A    between atoms: C11_16  and  N2_17 
REMARK    9  A    between atoms: N2_17  and  C12_19 
ROOT
HETATM    1  C4  UNL     1     186.770 125.194  31.566  1.00  0.00    -0.041 A 
HETATM    2  C5  UNL     1     186.532 124.926  32.917  1.00  0.00     0.008 A 
HETATM    3  C6  UNL     1     186.269 126.007  33.734  1.00  0.00     0.001 A 
HETATM    4  C7  UNL     1     186.237 127.297  33.258  1.00  0.00     0.001 A 
HETATM    5  C8  UNL     1     186.480 127.524  31.906  1.00  0.00     0.019 A 
HETATM    6  C9  UNL     1     186.745 126.471  31.082  1.00  0.00     0.006 A 
ENDROOT
BRANCH   6   7
HETATM    7  S1  UNL     1     187.149 126.805  29.385  1.00  0.00    -0.128 SA
BRANCH   7   8
HETATM    8  C10 UNL     1     188.863 126.393  29.062  1.00  0.00     0.099 C 
BRANCH   8   9
HETATM    9  C11 UNL     1     189.855 127.054  29.994  1.00  0.00     0.130 C 
BRANCH   9  10
HETATM   10  N2  UNL     1     190.816 126.084  30.422  1.00  0.00    -0.388 N 
ATOM     11  H2  UNL     1     191.727 126.079  29.964  1.00  0.00     0.159 HD
BRANCH  10  12
HETATM   12  C12 UNL     1     190.578 125.126  31.447  1.00  0.00     0.052 A 
HETATM   13  C13 UNL     1     190.207 125.464  32.727  1.00  0.00     0.031 A 
HETATM   14  C14 UNL     1     190.008 124.512  33.720  1.00  0.00     0.002 A 
HETATM   15  C15 UNL     1     190.183 123.178  33.436  1.00  0.00     0.002 A 
HETATM   16  C16 UNL     1     190.555 122.816  32.161  1.00  0.00     0.029 A 
HETATM   17  C17 UNL     1     190.744 123.782  31.199  1.00  0.00     0.072 A 
HETATM   18  N3  UNL     1     191.128 123.392  29.876  1.00  0.00    -0.100 NA
ENDBRANCH  10  12
ENDBRANCH   9  10
ENDBRANCH   8   9
ENDBRANCH   7   8
ENDBRANCH   6   7
BRANCH   1  19
HETATM   19  C3  UNL     1     186.906 124.007  30.695  1.00  0.00     0.041 C 
BRANCH  19  20
HETATM   20  C2  UNL     1     186.639 122.745  31.444  1.00  0.00     0.032 C 
BRANCH  20  21
HETATM   21  C1  UNL     1     185.570 121.872  30.891  1.00  0.00     0.230 C 
BRANCH  21  22
HETATM   22  N1  UNL     1     184.462 121.886  31.874  1.00  0.00    -0.079 N 
ATOM     23  H13 UNL     1     183.628 122.366  31.534  1.00  0.00     0.274 HD
ATOM     24  H12 UNL     1     184.035 120.971  32.013  1.00  0.00     0.274 HD
ATOM     25  H11 UNL     1     184.839 122.291  32.731  1.00  0.00     0.274 HD
ENDBRANCH  21  22
ENDBRANCH  20  21
ENDBRANCH  19  20
ENDBRANCH   1  19
TORSDOF 9
ENDMDL
MODEL 2
REMARK VINA RESULT: -6.598429300      0.756      1.470
REMARK  9 active torsions:
REMARK  status: ('A' for Active; 'I' for Inactive)
REMARK    1  A    between atoms: N1_1  and  C1_5 
REMARK    2  A    between atoms: C1_5  and  C2_6 
REMARK    3  A    between atoms: C2_6  and  C3_7 
REMARK    4  A    between atoms: C3_7  and  C4_8 
REMARK    5  A    between atoms: C9_13  and  S1_14 
REMARK    6  A    between atoms: S1_14  and  C10_15 
REMARK    7  A    between atoms: C10_15  and  C11_16 
REMARK    8  A    between atoms: C11_16  and  N2_17 
REMARK    9  A    between atoms: N2_17  and  C12_19 
ROOT
HETATM    1  C4  UNL     1     186.787 125.182  31.536  1.00  0.00    -0.041 A 
HETATM    2  C5  UNL     1     186.496 124.913  32.877  1.00  0.00     0.008 A 
HETATM    3  C6  UNL     1     186.260 125.998  33.696  1.00  0.00     0.001 A 
HETATM    4  C7  UNL     1     186.303 127.292  33.233  1.00  0.00     0.001 A 
HETATM    5  C8  UNL     1     186.598 127.520  31.892  1.00  0.00     0.019 A 
HETATM    6  C9  UNL     1     186.837 126.462  31.065  1.00  0.00     0.006 A 
ENDROOT
BRANCH   6   7
HETATM    7  S1  UNL     1     187.308 126.792  29.384  1.00  0.00    -0.128 SA
BRANCH   7   8
HETATM    8  C10 UNL     1     189.066 126.521  29.167  1.00  0.00     0.099 C 
BRANCH   8   9
HETATM    9  C11 UNL     1     189.932 127.095  30.268  1.00  0.00     0.130 C 
BRANCH   9  10
HETATM   10  N2  UNL     1     190.904 126.119  30.657  1.00  0.00    -0.388 N 
ATOM     11  H2  UNL     1     191.883 126.306  30.439  1.00  0.00     0.159 HD
BRANCH  10  12
HETATM   12  C12 UNL     1     190.589 124.905  31.330  1.00  0.00     0.052 A 
HETATM   13  C13 UNL     1     190.568 123.680  30.707  1.00  0.00     0.031 A 
HETATM   14  C14 UNL     1     190.229 122.510  31.378  1.00  0.00     0.002 A 
HETATM   15  C15 UNL     1     189.901 122.556  32.713  1.00  0.00     0.002 A 
HETATM   16  C16 UNL     1     189.915 123.773  33.356  1.00  0.00     0.029 A 
HETATM   17  C17 UNL     1     190.254 124.914  32.665  1.00  0.00     0.072 A 
HETATM   18  N3  UNL     1     190.268 126.172  33.346  1.00  0.00    -0.100 NA
ENDBRANCH  10  12
ENDBRANCH   9  10
ENDBRANCH   8   9
ENDBRANCH   7   8
ENDBRANCH   6   7
BRANCH   1  19
HETATM   19  C3  UNL     1     186.893 123.998  30.656  1.00  0.00     0.041 C 
BRANCH  19  20
HETATM   20  C2  UNL     1     186.491 122.750  31.368  1.00  0.00     0.032 C 
BRANCH  20  21
HETATM   21  C1  UNL     1     185.402 121.959  30.735  1.00  0.00     0.230 C 
BRANCH  21  22
HETATM   22  N1  UNL     1     184.264 121.973  31.683  1.00  0.00    -0.079 N 
ATOM     23  H13 UNL     1     183.482 121.392  31.381  1.00  0.00     0.274 HD
ATOM     24  H12 UNL     1     184.460 121.482  32.555  1.00  0.00     0.274 HD
ATOM     25  H11 UNL     1     184.011 122.952  31.818  1.00  0.00     0.274 HD
ENDBRANCH  21  22
ENDBRANCH  20  21
ENDBRANCH  19  20
ENDBRANCH   1  19
TORSDOF 9
ENDMDL
MODEL 3
REMARK VINA RESULT: -6.524377285      3.828      6.038
REMARK  9 active torsions:
REMARK  status: ('A' for Active; 'I' for Inactive)
REMARK    1  A    between atoms: N1_1  and  C1_5 
REMARK    2  A    between atoms: C1_5  and  C2_6 
REMARK    3  A    between atoms: C2_6  and  C3_7 
REMARK    4  A    between atoms: C3_7  and  C4_8 
REMARK    5  A    between atoms: C9_13  and  S1_14 
REMARK    6  A    between atoms: S1_14  and  C10_15 
REMARK    7  A    between atoms: C10_15  and  C11_16 
REMARK    8  A    between atoms: C11_16  and  N2_17 
REMARK    9  A    between atoms: N2_17  and  C12_19 
ROOT
HETATM    1  C4  UNL     1     186.774 125.374  31.504  1.00  0.00    -0.041 A 
HETATM    2  C5  UNL     1     186.606 125.173  32.878  1.00  0.00     0.008 A 
HETATM    3  C6  UNL     1     186.338 126.289  33.645  1.00  0.00     0.001 A 
HETATM    4  C7  UNL     1     186.237 127.548  33.101  1.00  0.00     0.001 A 
HETATM    5  C8  UNL     1     186.412 127.707  31.729  1.00  0.00     0.019 A 
HETATM    6  C9  UNL     1     186.680 126.619  30.953  1.00  0.00     0.006 A 
ENDROOT
BRANCH   6   7
HETATM    7  S1  UNL     1     186.996 126.871  29.223  1.00  0.00    -0.128 SA
BRANCH   7   8
HETATM    8  C10 UNL     1     188.413 127.945  29.001  1.00  0.00     0.099 C 
BRANCH   8   9
HETATM    9  C11 UNL     1     188.445 128.681  27.680  1.00  0.00     0.130 C 
BRANCH   9  10
HETATM   10  N2  UNL     1     187.578 129.817  27.754  1.00  0.00    -0.388 N 
ATOM     11  H2  UNL     1     187.830 130.570  28.394  1.00  0.00     0.159 HD
BRANCH  10  12
HETATM   12  C12 UNL     1     186.386 129.961  26.990  1.00  0.00     0.052 A 
HETATM   13  C13 UNL     1     186.373 130.040  25.618  1.00  0.00     0.031 A 
HETATM   14  C14 UNL     1     185.198 130.210  24.894  1.00  0.00     0.002 A 
HETATM   15  C15 UNL     1     183.994 130.305  25.552  1.00  0.00     0.002 A 
HETATM   16  C16 UNL     1     183.985 130.230  26.927  1.00  0.00     0.029 A 
HETATM   17  C17 UNL     1     185.164 130.061  27.616  1.00  0.00     0.072 A 
HETATM   18  N3  UNL     1     185.139 129.981  29.045  1.00  0.00    -0.100 NA
ENDBRANCH  10  12
ENDBRANCH   9  10
ENDBRANCH   8   9
ENDBRANCH   7   8
ENDBRANCH   6   7
BRANCH   1  19
HETATM   19  C3  UNL     1     186.916 124.145  30.694  1.00  0.00     0.041 C 
BRANCH  19  20
HETATM   20  C2  UNL     1     186.440 122.941  31.437  1.00  0.00     0.032 C 
BRANCH  20  21
HETATM   21  C1  UNL     1     185.467 122.074  30.721  1.00  0.00     0.230 C 
BRANCH  21  22
HETATM   22  N1  UNL     1     184.299 121.921  31.616  1.00  0.00    -0.079 N 
ATOM     23  H13 UNL     1     183.851 122.807  31.851  1.00  0.00     0.274 HD
ATOM     24  H12 UNL     1     183.495 121.489  31.160  1.00  0.00     0.274 HD
ATOM     25  H11 UNL     1     184.625 121.405  32.434  1.00  0.00     0.274 HD
ENDBRANCH  21  22
ENDBRANCH  20  21
ENDBRANCH  19  20
ENDBRANCH   1  19
TORSDOF 9
ENDMDL
MODEL 4
REMARK VINA RESULT: -6.508191424      4.050      6.171
REMARK  9 active torsions:
REMARK  status: ('A' for Active; 'I' for Inactive)
REMARK    1  A    between atoms: N1_1  and  C1_5 
REMARK    2  A    between atoms: C1_5  and  C2_6 
REMARK    3  A    between atoms: C2_6  and  C3_7 
REMARK    4  A    between atoms: C3_7  and  C4_8 
REMARK    5  A    between atoms: C9_13  and  S1_14 
REMARK    6  A    between atoms: S1_14  and  C10_15 
REMARK    7  A    between atoms: C10_15  and  C11_16 
REMARK    8  A    between atoms: C11_16  and  N2_17 
REMARK    9  A    between atoms: N2_17  and  C12_19 
ROOT
HETATM    1  C4  UNL     1     186.808 125.331  31.587  1.00  0.00    -0.041 A 
HETATM    2  C5  UNL     1     186.588 125.134  32.953  1.00  0.00     0.008 A 
HETATM    3  C6  UNL     1     186.292 126.251  33.707  1.00  0.00     0.001 A 
HETATM    4  C7  UNL     1     186.213 127.509  33.157  1.00  0.00     0.001 A 
HETATM    5  C8  UNL     1     186.440 127.665  31.793  1.00  0.00     0.019 A 
HETATM    6  C9  UNL     1     186.737 126.575  31.030  1.00  0.00     0.006 A 
ENDROOT
BRANCH   6   7
HETATM    7  S1  UNL     1     187.118 126.822  29.312  1.00  0.00    -0.128 SA
BRANCH   7   8
HETATM    8  C10 UNL     1     188.403 128.059  29.135  1.00  0.00     0.099 C 
BRANCH   8   9
HETATM    9  C11 UNL     1     188.446 128.732  27.780  1.00  0.00     0.130 C 
BRANCH   9  10
HETATM   10  N2  UNL     1     187.630 129.907  27.814  1.00  0.00    -0.388 N 
ATOM     11  H2  UNL     1     187.926 130.678  28.413  1.00  0.00     0.159 HD
BRANCH  10  12
HETATM   12  C12 UNL     1     186.432 130.066  27.063  1.00  0.00     0.052 A 
HETATM   13  C13 UNL     1     185.212 129.588  27.477  1.00  0.00     0.031 A 
HETATM   14  C14 UNL     1     184.059 129.730  26.713  1.00  0.00     0.002 A 
HETATM   15  C15 UNL     1     184.117 130.370  25.496  1.00  0.00     0.002 A 
HETATM   16  C16 UNL     1     185.329 130.856  25.062  1.00  0.00     0.029 A 
HETATM   17  C17 UNL     1     186.453 130.699  25.841  1.00  0.00     0.072 A 
HETATM   18  N3  UNL     1     187.707 131.212  25.379  1.00  0.00    -0.100 NA
ENDBRANCH  10  12
ENDBRANCH   9  10
ENDBRANCH   8   9
ENDBRANCH   7   8
ENDBRANCH   6   7
BRANCH   1  19
HETATM   19  C3  UNL     1     186.980 124.100  30.785  1.00  0.00     0.041 C 
BRANCH  19  20
HETATM   20  C2  UNL     1     187.286 122.922  31.649  1.00  0.00     0.032 C 
BRANCH  20  21
HETATM   21  C1  UNL     1     188.664 122.375  31.543  1.00  0.00     0.230 C 
BRANCH  21  22
HETATM   22  N1  UNL     1     188.878 121.533  32.741  1.00  0.00    -0.079 N 
ATOM     23  H13 UNL     1     189.829 121.587  33.107  1.00  0.00     0.274 HD
ATOM     24  H12 UNL     1     188.401 121.885  33.571  1.00  0.00     0.274 HD
ATOM     25  H11 UNL     1     188.597 120.586  32.486  1.00  0.00     0.274 HD
ENDBRANCH  21  22
ENDBRANCH  20  21
ENDBRANCH  19  20
ENDBRANCH   1  19
TORSDOF 9
ENDMDL
MODEL 5
REMARK VINA RESULT: -6.413926321      3.951      6.073
REMARK  9 active torsions:
REMARK  status: ('A' for Active; 'I' for Inactive)
REMARK    1  A    between atoms: N1_1  and  C1_5 
REMARK    2  A    between atoms: C1_5  and  C2_6 
REMARK    3  A    between atoms: C2_6  and  C3_7 
REMARK    4  A    between atoms: C3_7  and  C4_8 
REMARK    5  A    between atoms: C9_13  and  S1_14 
REMARK    6  A    between atoms: S1_14  and  C10_15 
REMARK    7  A    between atoms: C10_15  and  C11_16 
REMARK    8  A    between atoms: C11_16  and  N2_17 
REMARK    9  A    between atoms: N2_17  and  C12_19 
ROOT
HETATM    1  C4  UNL     1     186.793 125.262  31.528  1.00  0.00    -0.041 A 
HETATM    2  C5  UNL     1     186.596 125.001  32.888  1.00  0.00     0.008 A 
HETATM    3  C6  UNL     1     186.307 126.080  33.698  1.00  0.00     0.001 A 
HETATM    4  C7  UNL     1     186.211 127.362  33.208  1.00  0.00     0.001 A 
HETATM    5  C8  UNL     1     186.415 127.583  31.848  1.00  0.00     0.019 A 
HETATM    6  C9  UNL     1     186.705 126.530  31.031  1.00  0.00     0.006 A 
ENDROOT
BRANCH   6   7
HETATM    7  S1  UNL     1     187.057 126.860  29.321  1.00  0.00    -0.128 SA
BRANCH   7   8
HETATM    8  C10 UNL     1     188.315 128.128  29.179  1.00  0.00     0.099 C 
BRANCH   8   9
HETATM    9  C11 UNL     1     188.411 128.770  27.813  1.00  0.00     0.130 C 
BRANCH   9  10
HETATM   10  N2  UNL     1     187.618 129.962  27.799  1.00  0.00    -0.388 N 
ATOM     11  H2  UNL     1     187.938 130.756  28.354  1.00  0.00     0.159 HD
BRANCH  10  12
HETATM   12  C12 UNL     1     186.412 130.107  27.058  1.00  0.00     0.052 A 
HETATM   13  C13 UNL     1     185.200 129.616  27.484  1.00  0.00     0.031 A 
HETATM   14  C14 UNL     1     184.039 129.745  26.730  1.00  0.00     0.002 A 
HETATM   15  C15 UNL     1     184.079 130.383  25.512  1.00  0.00     0.002 A 
HETATM   16  C16 UNL     1     185.282 130.881  25.066  1.00  0.00     0.029 A 
HETATM   17  C17 UNL     1     186.415 130.738  25.835  1.00  0.00     0.072 A 
HETATM   18  N3  UNL     1     187.659 131.264  25.361  1.00  0.00    -0.100 NA
ENDBRANCH  10  12
ENDBRANCH   9  10
ENDBRANCH   8   9
ENDBRANCH   7   8
ENDBRANCH   6   7
BRANCH   1  19
HETATM   19  C3  UNL     1     186.958 124.071  30.668  1.00  0.00     0.041 C 
BRANCH  19  20
HETATM   20  C2  UNL     1     186.413 122.844  31.320  1.00  0.00     0.032 C 
BRANCH  20  21
HETATM   21  C1  UNL     1     185.483 122.026  30.499  1.00  0.00     0.230 C 
BRANCH  21  22
HETATM   22  N1  UNL     1     184.191 122.003  31.221  1.00  0.00    -0.079 N 
ATOM     23  H13 UNL     1     183.570 122.769  30.960  1.00  0.00     0.274 HD
ATOM     24  H12 UNL     1     183.581 121.239  30.931  1.00  0.00     0.274 HD
ATOM     25  H11 UNL     1     184.414 121.985  32.216  1.00  0.00     0.274 HD
ENDBRANCH  21  22
ENDBRANCH  20  21
ENDBRANCH  19  20
ENDBRANCH   1  19
TORSDOF 9
ENDMDL
