MODEL 1
REMARK VINA RESULT: -7.569566895      0.000      0.000
REMARK  8 active torsions:
REMARK  status: ('A' for Active; 'I' for Inactive)
REMARK       I    between atoms: C2_2  and  N1_4 
REMARK    1  A    between atoms: N1_4  and  C4_6 
REMARK    2  A    between atoms: C4_6  and  C5_7 
REMARK    3  A    between atoms: C5_7  and  C7_9 
REMARK       I    between atoms: C7_9  and  N2_11 
REMARK    4  A    between atoms: N2_11  and  C8_13 
REMARK    5  A    between atoms: C8_13  and  C9_14 
REMARK       I    between atoms: C9_14  and  N3_16 
REMARK    6  A    between atoms: N3_16  and  C10_18 
REMARK    7  A    between atoms: C10_18  and  C11_19 
REMARK    8  A    between atoms: C10_18  and  C12_22 
ROOT
HETATM    1  C8  UNL     1      15.901 -13.967  20.010  1.00  0.00     0.113 C 
HETATM    2  C15 UNL     1      15.233 -15.236  19.530  1.00  0.00     0.041 C 
HETATM    3  C16 UNL     1      14.599 -15.101  18.177  1.00  0.00     0.003 C 
HETATM    4  C17 UNL     1      15.636 -14.696  17.180  1.00  0.00     0.000 C 
HETATM    5  C18 UNL     1      16.400 -13.491  17.658  1.00  0.00     0.003 C 
HETATM    6  C19 UNL     1      15.703 -12.946  18.878  1.00  0.00     0.041 C 
ENDROOT
BRANCH   1   7
HETATM    7  N2  UNL     1      17.282 -14.199  20.258  1.00  0.00    -0.343 N 
HETATM    8  C7  UNL     1      18.256 -13.211  20.589  1.00  0.00     0.224 C 
HETATM    9  O2  UNL     1      17.911 -12.002  20.684  1.00  0.00    -0.273 OA
ATOM     10  H2  UNL     1      17.607 -15.163  20.193  1.00  0.00     0.163 HD
BRANCH   8  11
HETATM   11  C5  UNL     1      19.673 -13.533  20.835  1.00  0.00     0.092 C 
HETATM   12  C6  UNL     1      20.461 -13.299  19.593  1.00  0.00     0.021 C 
BRANCH  11  13
HETATM   13  C4  UNL     1      19.855 -14.938  21.364  1.00  0.00     0.139 C 
BRANCH  13  14
HETATM   14  N1  UNL     1      19.742 -14.892  22.808  1.00  0.00    -0.356 N 
HETATM   15  C2  UNL     1      18.622 -15.474  23.429  1.00  0.00     0.215 C 
HETATM   16  C1  UNL     1      18.488 -15.439  24.894  1.00  0.00     0.117 C 
HETATM   17  O1  UNL     1      17.737 -16.021  22.745  1.00  0.00    -0.274 OA
HETATM   18  C3  UNL     1      20.751 -14.264  23.643  1.00  0.00     0.152 C 
ENDBRANCH  13  14
ENDBRANCH  11  13
ENDBRANCH   8  11
ENDBRANCH   1   7
BRANCH   1  19
HETATM   19  C9  UNL     1      15.147 -13.477  21.171  1.00  0.00     0.246 C 
HETATM   20  O3  UNL     1      15.603 -13.685  22.323  1.00  0.00    -0.271 OA
HETATM   21  N3  UNL     1      13.923 -12.774  21.087  1.00  0.00    -0.346 N 
ATOM     22  H3  UNL     1      13.544 -12.601  20.155  1.00  0.00     0.163 HD
BRANCH  21  23
HETATM   23  C10 UNL     1      13.165 -12.283  22.212  1.00  0.00     0.177 C 
BRANCH  23  24
HETATM   24  C11 UNL     1      12.093 -13.205  22.620  1.00  0.00     0.254 C 
HETATM   25  N4  UNL     1      10.955 -12.836  23.365  1.00  0.00    -0.060 NA
HETATM   26  O4  UNL     1      12.184 -14.433  22.284  1.00  0.00    -0.275 OA
ENDBRANCH  23  24
BRANCH  23  27
HETATM   27  C12 UNL     1      12.644 -10.878  21.951  1.00  0.00     0.009 C 
HETATM   28  C13 UNL     1      12.898  -9.944  23.091  1.00  0.00     0.012 C 
HETATM   29  C14 UNL     1      13.294 -10.298  20.718  1.00  0.00     0.012 C 
ENDBRANCH  23  27
ENDBRANCH  21  23
ENDBRANCH   1  19
TORSDOF 8
ENDMDL
MODEL 2
REMARK VINA RESULT: -7.496528806      1.906      2.902
REMARK  8 active torsions:
REMARK  status: ('A' for Active; 'I' for Inactive)
REMARK       I    between atoms: C2_2  and  N1_4 
REMARK    1  A    between atoms: N1_4  and  C4_6 
REMARK    2  A    between atoms: C4_6  and  C5_7 
REMARK    3  A    between atoms: C5_7  and  C7_9 
REMARK       I    between atoms: C7_9  and  N2_11 
REMARK    4  A    between atoms: N2_11  and  C8_13 
REMARK    5  A    between atoms: C8_13  and  C9_14 
REMARK       I    between atoms: C9_14  and  N3_16 
REMARK    6  A    between atoms: N3_16  and  C10_18 
REMARK    7  A    between atoms: C10_18  and  C11_19 
REMARK    8  A    between atoms: C10_18  and  C12_22 
ROOT
HETATM    1  C8  UNL     1      16.063 -13.326  17.927  1.00  0.00     0.113 C 
HETATM    2  C15 UNL     1      15.744 -14.440  16.956  1.00  0.00     0.041 C 
HETATM    3  C16 UNL     1      15.683 -13.987  15.527  1.00  0.00     0.003 C 
HETATM    4  C17 UNL     1      16.992 -13.373  15.144  1.00  0.00     0.000 C 
HETATM    5  C18 UNL     1      17.406 -12.323  16.139  1.00  0.00     0.003 C 
HETATM    6  C19 UNL     1      16.243 -12.067  17.063  1.00  0.00     0.041 C 
ENDROOT
BRANCH   1   7
HETATM    7  N2  UNL     1      17.249 -13.627  18.651  1.00  0.00    -0.343 N 
HETATM    8  C7  UNL     1      17.728 -12.941  19.806  1.00  0.00     0.224 C 
HETATM    9  O2  UNL     1      17.074 -11.967  20.269  1.00  0.00    -0.273 OA
ATOM     10  H2  UNL     1      17.811 -14.408  18.313  1.00  0.00     0.163 HD
BRANCH   8  11
HETATM   11  C5  UNL     1      18.970 -13.316  20.504  1.00  0.00     0.092 C 
HETATM   12  C6  UNL     1      20.131 -13.145  19.586  1.00  0.00     0.021 C 
BRANCH  11  13
HETATM   13  C4  UNL     1      18.903 -14.714  21.076  1.00  0.00     0.139 C 
BRANCH  13  14
HETATM   14  N1  UNL     1      18.969 -14.613  22.520  1.00  0.00    -0.356 N 
HETATM   15  C2  UNL     1      20.225 -14.515  23.146  1.00  0.00     0.215 C 
HETATM   16  C1  UNL     1      20.314 -14.411  24.611  1.00  0.00     0.117 C 
HETATM   17  O1  UNL     1      21.268 -14.516  22.467  1.00  0.00    -0.274 OA
HETATM   18  C3  UNL     1      17.777 -14.609  23.350  1.00  0.00     0.152 C 
ENDBRANCH  13  14
ENDBRANCH  11  13
ENDBRANCH   8  11
ENDBRANCH   1   7
BRANCH   1  19
HETATM   19  C9  UNL     1      14.876 -13.110  18.764  1.00  0.00     0.246 C 
HETATM   20  O3  UNL     1      14.213 -12.053  18.617  1.00  0.00    -0.271 OA
HETATM   21  N3  UNL     1      14.415 -14.021  19.743  1.00  0.00    -0.346 N 
ATOM     22  H3  UNL     1      14.947 -14.882  19.870  1.00  0.00     0.163 HD
BRANCH  21  23
HETATM   23  C10 UNL     1      13.253 -13.830  20.576  1.00  0.00     0.177 C 
BRANCH  23  24
HETATM   24  C11 UNL     1      13.580 -13.219  21.875  1.00  0.00     0.254 C 
HETATM   25  N4  UNL     1      12.644 -12.616  22.738  1.00  0.00    -0.060 NA
HETATM   26  O4  UNL     1      14.796 -13.227  22.263  1.00  0.00    -0.275 OA
ENDBRANCH  23  24
BRANCH  23  27
HETATM   27  C12 UNL     1      12.473 -15.126  20.733  1.00  0.00     0.009 C 
HETATM   28  C13 UNL     1      12.427 -15.932  19.474  1.00  0.00     0.012 C 
HETATM   29  C14 UNL     1      13.088 -15.983  21.813  1.00  0.00     0.012 C 
ENDBRANCH  23  27
ENDBRANCH  21  23
ENDBRANCH   1  19
TORSDOF 8
ENDMDL
MODEL 3
REMARK VINA RESULT: -7.191953190      1.585      6.293
REMARK  8 active torsions:
REMARK  status: ('A' for Active; 'I' for Inactive)
REMARK       I    between atoms: C2_2  and  N1_4 
REMARK    1  A    between atoms: N1_4  and  C4_6 
REMARK    2  A    between atoms: C4_6  and  C5_7 
REMARK    3  A    between atoms: C5_7  and  C7_9 
REMARK       I    between atoms: C7_9  and  N2_11 
REMARK    4  A    between atoms: N2_11  and  C8_13 
REMARK    5  A    between atoms: C8_13  and  C9_14 
REMARK       I    between atoms: C9_14  and  N3_16 
REMARK    6  A    between atoms: N3_16  and  C10_18 
REMARK    7  A    between atoms: C10_18  and  C11_19 
REMARK    8  A    between atoms: C10_18  and  C12_22 
ROOT
HETATM    1  C8  UNL     1      15.966 -14.406  19.767  1.00  0.00     0.113 C 
HETATM    2  C15 UNL     1      16.449 -13.003  19.475  1.00  0.00     0.041 C 
HETATM    3  C16 UNL     1      16.739 -12.763  18.023  1.00  0.00     0.003 C 
HETATM    4  C17 UNL     1      15.507 -13.025  17.219  1.00  0.00     0.000 C 
HETATM    5  C18 UNL     1      14.927 -14.375  17.547  1.00  0.00     0.003 C 
HETATM    6  C19 UNL     1      15.921 -15.116  18.404  1.00  0.00     0.041 C 
ENDROOT
BRANCH   1   7
HETATM    7  N2  UNL     1      14.679 -14.370  20.372  1.00  0.00    -0.343 N 
HETATM    8  C7  UNL     1      14.376 -13.886  21.678  1.00  0.00     0.224 C 
HETATM    9  O2  UNL     1      15.302 -13.435  22.407  1.00  0.00    -0.273 OA
ATOM     10  H2  UNL     1      13.899 -14.724  19.818  1.00  0.00     0.163 HD
BRANCH   8  11
HETATM   11  C5  UNL     1      13.011 -13.880  22.234  1.00  0.00     0.092 C 
HETATM   12  C6  UNL     1      12.346 -15.180  21.941  1.00  0.00     0.021 C 
BRANCH  11  13
HETATM   13  C4  UNL     1      12.199 -12.705  21.739  1.00  0.00     0.139 C 
BRANCH  13  14
HETATM   14  N1  UNL     1      11.891 -11.859  22.875  1.00  0.00    -0.356 N 
HETATM   15  C2  UNL     1      12.540 -10.619  23.005  1.00  0.00     0.215 C 
HETATM   16  C1  UNL     1      12.243  -9.746  24.151  1.00  0.00     0.117 C 
HETATM   17  O1  UNL     1      13.371 -10.251  22.153  1.00  0.00    -0.274 OA
HETATM   18  C3  UNL     1      10.931 -12.250  23.891  1.00  0.00     0.152 C 
ENDBRANCH  13  14
ENDBRANCH  11  13
ENDBRANCH   8  11
ENDBRANCH   1   7
BRANCH   1  19
HETATM   19  C9  UNL     1      16.998 -15.076  20.569  1.00  0.00     0.246 C 
HETATM   20  O3  UNL     1      17.031 -16.332  20.591  1.00  0.00    -0.271 OA
HETATM   21  N3  UNL     1      17.976 -14.399  21.334  1.00  0.00    -0.346 N 
ATOM     22  H3  UNL     1      17.958 -13.379  21.322  1.00  0.00     0.163 HD
BRANCH  21  23
HETATM   23  C10 UNL     1      18.999 -15.035  22.129  1.00  0.00     0.177 C 
BRANCH  23  24
HETATM   24  C11 UNL     1      18.475 -15.589  23.388  1.00  0.00     0.254 C 
HETATM   25  N4  UNL     1      18.551 -16.946  23.763  1.00  0.00    -0.060 NA
HETATM   26  O4  UNL     1      17.906 -14.798  24.212  1.00  0.00    -0.275 OA
ENDBRANCH  23  24
BRANCH  23  27
HETATM   27  C12 UNL     1      20.174 -14.098  22.361  1.00  0.00     0.009 C 
HETATM   28  C13 UNL     1      21.303 -14.753  23.091  1.00  0.00     0.012 C 
HETATM   29  C14 UNL     1      20.706 -13.585  21.044  1.00  0.00     0.012 C 
ENDBRANCH  23  27
ENDBRANCH  21  23
ENDBRANCH   1  19
TORSDOF 8
ENDMDL
MODEL 4
REMARK VINA RESULT: -7.181680005      2.355      3.776
REMARK  8 active torsions:
REMARK  status: ('A' for Active; 'I' for Inactive)
REMARK       I    between atoms: C2_2  and  N1_4 
REMARK    1  A    between atoms: N1_4  and  C4_6 
REMARK    2  A    between atoms: C4_6  and  C5_7 
REMARK    3  A    between atoms: C5_7  and  C7_9 
REMARK       I    between atoms: C7_9  and  N2_11 
REMARK    4  A    between atoms: N2_11  and  C8_13 
REMARK    5  A    between atoms: C8_13  and  C9_14 
REMARK       I    between atoms: C9_14  and  N3_16 
REMARK    6  A    between atoms: N3_16  and  C10_18 
REMARK    7  A    between atoms: C10_18  and  C11_19 
REMARK    8  A    between atoms: C10_18  and  C12_22 
ROOT
HETATM    1  C8  UNL     1      13.706 -15.794  21.028  1.00  0.00     0.113 C 
HETATM    2  C15 UNL     1      12.650 -16.414  21.914  1.00  0.00     0.041 C 
HETATM    3  C16 UNL     1      11.965 -17.594  21.289  1.00  0.00     0.003 C 
HETATM    4  C17 UNL     1      12.981 -18.637  20.949  1.00  0.00     0.000 C 
HETATM    5  C18 UNL     1      14.111 -18.046  20.149  1.00  0.00     0.003 C 
HETATM    6  C19 UNL     1      13.721 -16.646  19.749  1.00  0.00     0.041 C 
ENDROOT
BRANCH   1   7
HETATM    7  N2  UNL     1      14.972 -15.819  21.677  1.00  0.00    -0.343 N 
HETATM    8  C7  UNL     1      16.207 -15.363  21.132  1.00  0.00     0.224 C 
HETATM    9  O2  UNL     1      16.236 -14.884  19.965  1.00  0.00    -0.273 OA
ATOM     10  H2  UNL     1      14.997 -16.198  22.624  1.00  0.00     0.163 HD
BRANCH   8  11
HETATM   11  C5  UNL     1      17.481 -15.420  21.872  1.00  0.00     0.092 C 
HETATM   12  C6  UNL     1      17.328 -16.304  23.061  1.00  0.00     0.021 C 
BRANCH  11  13
HETATM   13  C4  UNL     1      17.983 -14.045  22.250  1.00  0.00     0.139 C 
BRANCH  13  14
HETATM   14  N1  UNL     1      19.295 -13.867  21.660  1.00  0.00    -0.356 N 
HETATM   15  C2  UNL     1      19.429 -13.068  20.512  1.00  0.00     0.215 C 
HETATM   16  C1  UNL     1      20.752 -12.874  19.897  1.00  0.00     0.117 C 
HETATM   17  O1  UNL     1      18.432 -12.519  20.006  1.00  0.00    -0.274 OA
HETATM   18  C3  UNL     1      20.483 -14.490  22.217  1.00  0.00     0.152 C 
ENDBRANCH  13  14
ENDBRANCH  11  13
ENDBRANCH   8  11
ENDBRANCH   1   7
BRANCH   1  19
HETATM   19  C9  UNL     1      13.242 -14.454  20.649  1.00  0.00     0.246 C 
HETATM   20  O3  UNL     1      12.973 -14.222  19.444  1.00  0.00    -0.271 OA
HETATM   21  N3  UNL     1      13.071 -13.384  21.558  1.00  0.00    -0.346 N 
ATOM     22  H3  UNL     1      13.287 -13.563  22.539  1.00  0.00     0.163 HD
BRANCH  21  23
HETATM   23  C10 UNL     1      12.616 -12.060  21.209  1.00  0.00     0.177 C 
BRANCH  23  24
HETATM   24  C11 UNL     1      13.708 -11.189  20.744  1.00  0.00     0.254 C 
HETATM   25  N4  UNL     1      15.080 -11.454  20.924  1.00  0.00    -0.060 NA
HETATM   26  O4  UNL     1      13.409 -10.110  20.131  1.00  0.00    -0.275 OA
ENDBRANCH  23  24
BRANCH  23  27
HETATM   27  C12 UNL     1      11.831 -11.432  22.350  1.00  0.00     0.009 C 
HETATM   28  C13 UNL     1      11.297 -12.445  23.313  1.00  0.00     0.012 C 
HETATM   29  C14 UNL     1      12.701 -10.470  23.121  1.00  0.00     0.012 C 
ENDBRANCH  23  27
ENDBRANCH  21  23
ENDBRANCH   1  19
TORSDOF 8
ENDMDL
MODEL 5
REMARK VINA RESULT: -7.166830611      1.848      6.744
REMARK  8 active torsions:
REMARK  status: ('A' for Active; 'I' for Inactive)
REMARK       I    between atoms: C2_2  and  N1_4 
REMARK    1  A    between atoms: N1_4  and  C4_6 
REMARK    2  A    between atoms: C4_6  and  C5_7 
REMARK    3  A    between atoms: C5_7  and  C7_9 
REMARK       I    between atoms: C7_9  and  N2_11 
REMARK    4  A    between atoms: N2_11  and  C8_13 
REMARK    5  A    between atoms: C8_13  and  C9_14 
REMARK       I    between atoms: C9_14  and  N3_16 
REMARK    6  A    between atoms: N3_16  and  C10_18 
REMARK    7  A    between atoms: C10_18  and  C11_19 
REMARK    8  A    between atoms: C10_18  and  C12_22 
ROOT
HETATM    1  C8  UNL     1      16.741 -13.716  20.896  1.00  0.00     0.113 C 
HETATM    2  C15 UNL     1      16.743 -12.648  19.826  1.00  0.00     0.041 C 
HETATM    3  C16 UNL     1      16.912 -13.194  18.439  1.00  0.00     0.003 C 
HETATM    4  C17 UNL     1      15.813 -14.165  18.149  1.00  0.00     0.000 C 
HETATM    5  C18 UNL     1      15.702 -15.195  19.241  1.00  0.00     0.003 C 
HETATM    6  C19 UNL     1      16.898 -15.049  20.147  1.00  0.00     0.041 C 
ENDROOT
BRANCH   1   7
HETATM    7  N2  UNL     1      15.522 -13.678  21.629  1.00  0.00    -0.343 N 
HETATM    8  C7  UNL     1      14.527 -12.660  21.556  1.00  0.00     0.224 C 
HETATM    9  O2  UNL     1      14.695 -11.677  20.783  1.00  0.00    -0.273 OA
ATOM     10  H2  UNL     1      15.343 -14.453  22.267  1.00  0.00     0.163 HD
BRANCH   8  11
HETATM   11  C5  UNL     1      13.285 -12.693  22.350  1.00  0.00     0.092 C 
HETATM   12  C6  UNL     1      12.632 -14.024  22.198  1.00  0.00     0.021 C 
BRANCH  11  13
HETATM   13  C4  UNL     1      12.350 -11.560  21.993  1.00  0.00     0.139 C 
BRANCH  13  14
HETATM   14  N1  UNL     1      12.014 -10.854  23.213  1.00  0.00    -0.356 N 
HETATM   15  C2  UNL     1      12.724  -9.688  23.551  1.00  0.00     0.215 C 
HETATM   16  C1  UNL     1      12.398  -8.956  24.785  1.00  0.00     0.117 C 
HETATM   17  O1  UNL     1      13.632  -9.267  22.810  1.00  0.00    -0.274 OA
HETATM   18  C3  UNL     1      10.963 -11.310  24.105  1.00  0.00     0.152 C 
ENDBRANCH  13  14
ENDBRANCH  11  13
ENDBRANCH   8  11
ENDBRANCH   1   7
BRANCH   1  19
HETATM   19  C9  UNL     1      17.948 -13.534  21.712  1.00  0.00     0.246 C 
HETATM   20  O3  UNL     1      18.580 -12.451  21.629  1.00  0.00    -0.271 OA
HETATM   21  N3  UNL     1      18.462 -14.506  22.601  1.00  0.00    -0.346 N 
ATOM     22  H3  UNL     1      17.956 -15.388  22.676  1.00  0.00     0.163 HD
BRANCH  21  23
HETATM   23  C10 UNL     1      19.646 -14.349  23.412  1.00  0.00     0.177 C 
BRANCH  23  24
HETATM   24  C11 UNL     1      20.870 -14.781  22.719  1.00  0.00     0.254 C 
HETATM   25  N4  UNL     1      22.176 -14.386  23.072  1.00  0.00    -0.060 NA
HETATM   26  O4  UNL     1      20.760 -15.569  21.722  1.00  0.00    -0.275 OA
ENDBRANCH  23  24
BRANCH  23  27
HETATM   27  C12 UNL     1      19.480 -15.033  24.761  1.00  0.00     0.009 C 
HETATM   28  C13 UNL     1      20.094 -14.259  25.884  1.00  0.00     0.012 C 
HETATM   29  C14 UNL     1      18.016 -15.228  25.075  1.00  0.00     0.012 C 
ENDBRANCH  23  27
ENDBRANCH  21  23
ENDBRANCH   1  19
TORSDOF 8
ENDMDL
