MODEL 1
REMARK VINA RESULT: -8.685085591      0.000      0.000
REMARK  7 active torsions:
REMARK  status: ('A' for Active; 'I' for Inactive)
REMARK    1  A    between atoms: C7_7  and  N1_8 
REMARK    2  A    between atoms: N1_8  and  C8_10 
REMARK    3  A    between atoms: C8_10  and  N2_12 
REMARK    4  A    between atoms: N2_12  and  S2_14 
REMARK    5  A    between atoms: S2_14  and  C9_17 
REMARK    6  A    between atoms: C16_24  and  C17_25 
REMARK    7  A    between atoms: N3_31  and  C23_32 
ROOT
HETATM    1  C9  UNL     1      -0.775  13.756  13.569  1.00  0.00     0.080 A 
HETATM    2  C10 UNL     1      -0.511  14.002  12.247  1.00  0.00     0.027 A 
HETATM    3  C11 UNL     1       0.413  13.284  11.514  1.00  0.00     0.032 A 
HETATM    4  C12 UNL     1       1.119  12.267  12.109  1.00  0.00     0.050 A 
HETATM    5  C13 UNL     1       0.878  12.000  13.426  1.00  0.00    -0.005 A 
HETATM    6  C14 UNL     1      -0.046  12.715  14.165  1.00  0.00     0.039 A 
HETATM    7  C15 UNL     1       1.692  10.970  13.760  1.00  0.00     0.044 A 
HETATM    8  C16 UNL     1       2.434  10.618  12.617  1.00  0.00     0.051 A 
HETATM    9  N3  UNL     1       2.076  11.418  11.614  1.00  0.00    -0.310 N 
ENDROOT
BRANCH   1  10
HETATM   10  S2  UNL     1      -1.941  14.660  14.499  1.00  0.00     0.264 S 
HETATM   11  O1  UNL     1      -2.450  13.788  15.640  1.00  0.00    -0.200 OA
HETATM   12  O2  UNL     1      -3.143  14.838  13.596  1.00  0.00    -0.200 OA
BRANCH  10  13
HETATM   13  N2  UNL     1      -1.363  16.113  15.113  1.00  0.00    -0.256 N 
ATOM     14  H2  UNL     1      -1.861  16.449  15.937  1.00  0.00     0.181 HD
BRANCH  13  15
HETATM   15  C8  UNL     1      -0.306  16.955  14.687  1.00  0.00     0.186 C 
HETATM   16  S1  UNL     1      -0.759  18.281  13.800  1.00  0.00    -0.040 SA
BRANCH  15  17
HETATM   17  N1  UNL     1       1.025  16.669  14.980  1.00  0.00    -0.332 N 
ATOM     18  H1  UNL     1       1.367  17.147  15.813  1.00  0.00     0.168 HD
BRANCH  17  19
HETATM   19  C7  UNL     1       1.985  15.867  14.370  1.00  0.00     0.040 A 
HETATM   20  C2  UNL     1       2.585  14.812  15.070  1.00  0.00    -0.035 A 
HETATM   21  C1  UNL     1       2.127  14.566  16.476  1.00  0.00     0.050 C 
HETATM   22  C3  UNL     1       3.557  14.004  14.522  1.00  0.00     0.009 A 
HETATM   23  C4  UNL     1       3.976  14.216  13.239  1.00  0.00     0.001 A 
HETATM   24  C5  UNL     1       3.422  15.234  12.512  1.00  0.00     0.002 A 
HETATM   25  C6  UNL     1       2.433  16.042  13.095  1.00  0.00     0.030 A 
ENDBRANCH  17  19
ENDBRANCH  15  17
ENDBRANCH  13  15
ENDBRANCH  10  13
ENDBRANCH   1  10
BRANCH   9  26
HETATM   26  C23 UNL     1       2.526  11.516  10.270  1.00  0.00     0.042 A 
HETATM   27  C24 UNL     1       3.792  12.043   9.988  1.00  0.00     0.030 A 
HETATM   28  C25 UNL     1       4.269  12.103   8.699  1.00  0.00     0.004 A 
HETATM   29  C26 UNL     1       3.527  11.650   7.635  1.00  0.00     0.027 A 
HETATM   30  C27 UNL     1       2.276  11.129   7.908  1.00  0.00     0.048 A 
HETATM   31  N4  UNL     1       1.508  10.657   6.781  1.00  0.00    -0.102 NA
HETATM   32  C28 UNL     1       1.777  11.058   9.188  1.00  0.00     0.056 A 
ENDBRANCH   9  26
BRANCH   8  33
HETATM   33  C17 UNL     1       3.420   9.571  12.677  1.00  0.00    -0.009 A 
HETATM   34  C18 UNL     1       3.902   9.168  13.916  1.00  0.00     0.014 A 
HETATM   35  C19 UNL     1       4.826   8.139  14.040  1.00  0.00     0.001 A 
HETATM   36  C20 UNL     1       5.305   7.473  12.940  1.00  0.00     0.000 A 
HETATM   37  C21 UNL     1       4.834   7.864  11.716  1.00  0.00     0.001 A 
HETATM   38  C22 UNL     1       3.891   8.912  11.583  1.00  0.00     0.014 A 
ENDBRANCH   8  33
TORSDOF 7
ENDMDL
MODEL 2
REMARK VINA RESULT: -8.612928740      0.798      1.420
REMARK  7 active torsions:
REMARK  status: ('A' for Active; 'I' for Inactive)
REMARK    1  A    between atoms: C7_7  and  N1_8 
REMARK    2  A    between atoms: N1_8  and  C8_10 
REMARK    3  A    between atoms: C8_10  and  N2_12 
REMARK    4  A    between atoms: N2_12  and  S2_14 
REMARK    5  A    between atoms: S2_14  and  C9_17 
REMARK    6  A    between atoms: C16_24  and  C17_25 
REMARK    7  A    between atoms: N3_31  and  C23_32 
ROOT
HETATM    1  C9  UNL     1      -0.845  13.917  13.360  1.00  0.00     0.080 A 
HETATM    2  C10 UNL     1      -0.534  14.168  12.048  1.00  0.00     0.027 A 
HETATM    3  C11 UNL     1       0.403  13.441  11.341  1.00  0.00     0.032 A 
HETATM    4  C12 UNL     1       1.074  12.409  11.952  1.00  0.00     0.050 A 
HETATM    5  C13 UNL     1       0.786  12.138  13.259  1.00  0.00    -0.005 A 
HETATM    6  C14 UNL     1      -0.151  12.862  13.972  1.00  0.00     0.039 A 
HETATM    7  C15 UNL     1       1.574  11.094  13.613  1.00  0.00     0.044 A 
HETATM    8  C16 UNL     1       2.347  10.738  12.491  1.00  0.00     0.051 A 
HETATM    9  N3  UNL     1       2.035  11.549  11.483  1.00  0.00    -0.310 N 
ENDROOT
BRANCH   1  10
HETATM   10  S2  UNL     1      -2.027  14.832  14.257  1.00  0.00     0.264 S 
HETATM   11  O1  UNL     1      -2.976  13.867  14.957  1.00  0.00    -0.200 OA
HETATM   12  O2  UNL     1      -2.889  15.524  13.222  1.00  0.00    -0.200 OA
BRANCH  10  13
HETATM   13  N2  UNL     1      -1.374  15.898  15.380  1.00  0.00    -0.256 N 
ATOM     14  H2  UNL     1      -1.951  16.718  15.566  1.00  0.00     0.181 HD
BRANCH  13  15
HETATM   15  C8  UNL     1      -0.164  15.858  16.114  1.00  0.00     0.186 C 
HETATM   16  S1  UNL     1      -0.289  15.307  17.674  1.00  0.00    -0.040 SA
BRANCH  15  17
HETATM   17  N1  UNL     1       1.045  16.276  15.563  1.00  0.00    -0.332 N 
ATOM     18  H1  UNL     1       1.276  17.244  15.783  1.00  0.00     0.168 HD
BRANCH  17  19
HETATM   19  C7  UNL     1       2.003  15.645  14.775  1.00  0.00     0.040 A 
HETATM   20  C2  UNL     1       2.263  16.088  13.472  1.00  0.00    -0.035 A 
HETATM   21  C1  UNL     1       1.497  17.280  12.981  1.00  0.00     0.050 C 
HETATM   22  C3  UNL     1       3.183  15.485  12.643  1.00  0.00     0.009 A 
HETATM   23  C4  UNL     1       3.891  14.403  13.083  1.00  0.00     0.001 A 
HETATM   24  C5  UNL     1       3.675  13.930  14.349  1.00  0.00     0.002 A 
HETATM   25  C6  UNL     1       2.731  14.564  15.172  1.00  0.00     0.030 A 
ENDBRANCH  17  19
ENDBRANCH  15  17
ENDBRANCH  13  15
ENDBRANCH  10  13
ENDBRANCH   1  10
BRANCH   9  26
HETATM   26  C23 UNL     1       2.529  11.649  10.155  1.00  0.00     0.042 A 
HETATM   27  C24 UNL     1       3.781  12.226   9.911  1.00  0.00     0.030 A 
HETATM   28  C25 UNL     1       4.303  12.290   8.641  1.00  0.00     0.004 A 
HETATM   29  C26 UNL     1       3.621  11.792   7.556  1.00  0.00     0.027 A 
HETATM   30  C27 UNL     1       2.384  11.222   7.791  1.00  0.00     0.048 A 
HETATM   31  N4  UNL     1       1.679  10.702   6.643  1.00  0.00    -0.102 NA
HETATM   32  C28 UNL     1       1.842  11.146   9.053  1.00  0.00     0.056 A 
ENDBRANCH   9  26
BRANCH   8  33
HETATM   33  C17 UNL     1       3.315   9.676  12.577  1.00  0.00    -0.009 A 
HETATM   34  C18 UNL     1       3.673   9.187  13.827  1.00  0.00     0.014 A 
HETATM   35  C19 UNL     1       4.573   8.140  13.971  1.00  0.00     0.001 A 
HETATM   36  C20 UNL     1       5.152   7.541  12.880  1.00  0.00     0.000 A 
HETATM   37  C21 UNL     1       4.805   8.017  11.645  1.00  0.00     0.001 A 
HETATM   38  C22 UNL     1       3.886   9.084  11.492  1.00  0.00     0.014 A 
ENDBRANCH   8  33
TORSDOF 7
ENDMDL
MODEL 3
REMARK VINA RESULT: -8.529218386      5.438     10.148
REMARK  7 active torsions:
REMARK  status: ('A' for Active; 'I' for Inactive)
REMARK    1  A    between atoms: C7_7  and  N1_8 
REMARK    2  A    between atoms: N1_8  and  C8_10 
REMARK    3  A    between atoms: C8_10  and  N2_12 
REMARK    4  A    between atoms: N2_12  and  S2_14 
REMARK    5  A    between atoms: S2_14  and  C9_17 
REMARK    6  A    between atoms: C16_24  and  C17_25 
REMARK    7  A    between atoms: N3_31  and  C23_32 
ROOT
HETATM    1  C9  UNL     1      -0.178  14.005  16.579  1.00  0.00     0.080 A 
HETATM    2  C10 UNL     1      -0.920  12.866  16.760  1.00  0.00     0.027 A 
HETATM    3  C11 UNL     1      -2.093  12.835  17.487  1.00  0.00     0.032 A 
HETATM    4  C12 UNL     1      -2.569  13.985  18.070  1.00  0.00     0.050 A 
HETATM    5  C13 UNL     1      -1.851  15.135  17.906  1.00  0.00    -0.005 A 
HETATM    6  C14 UNL     1      -0.676  15.171  17.180  1.00  0.00     0.039 A 
HETATM    7  C15 UNL     1      -2.528  16.103  18.570  1.00  0.00     0.044 A 
HETATM    8  C16 UNL     1      -3.673  15.515  19.139  1.00  0.00     0.051 A 
HETATM    9  N3  UNL     1      -3.687  14.220  18.829  1.00  0.00    -0.310 N 
ENDROOT
BRANCH   1  10
HETATM   10  S2  UNL     1       1.304  14.048  15.662  1.00  0.00     0.264 S 
HETATM   11  O1  UNL     1       2.369  14.777  16.473  1.00  0.00    -0.200 OA
HETATM   12  O2  UNL     1       1.037  14.962  14.484  1.00  0.00    -0.200 OA
BRANCH  10  13
HETATM   13  N2  UNL     1       1.880  12.539  15.201  1.00  0.00    -0.256 N 
ATOM     14  H2  UNL     1       2.338  12.017  15.948  1.00  0.00     0.181 HD
BRANCH  13  15
HETATM   15  C8  UNL     1       1.841  11.862  13.957  1.00  0.00     0.186 C 
HETATM   16  S1  UNL     1       0.326  11.561  13.352  1.00  0.00    -0.040 SA
BRANCH  15  17
HETATM   17  N1  UNL     1       3.002  11.461  13.302  1.00  0.00    -0.332 N 
ATOM     18  H1  UNL     1       3.562  12.240  12.958  1.00  0.00     0.168 HD
BRANCH  17  19
HETATM   19  C7  UNL     1       3.557  10.216  13.019  1.00  0.00     0.040 A 
HETATM   20  C2  UNL     1       3.845   9.844  11.699  1.00  0.00    -0.035 A 
HETATM   21  C1  UNL     1       3.566  10.848  10.621  1.00  0.00     0.050 C 
HETATM   22  C3  UNL     1       4.371   8.616  11.363  1.00  0.00     0.009 A 
HETATM   23  C4  UNL     1       4.635   7.697  12.338  1.00  0.00     0.001 A 
HETATM   24  C5  UNL     1       4.371   8.010  13.644  1.00  0.00     0.002 A 
HETATM   25  C6  UNL     1       3.835   9.269  13.959  1.00  0.00     0.030 A 
ENDBRANCH  17  19
ENDBRANCH  15  17
ENDBRANCH  13  15
ENDBRANCH  10  13
ENDBRANCH   1  10
BRANCH   9  26
HETATM   26  C23 UNL     1      -4.584  13.172  19.167  1.00  0.00     0.042 A 
HETATM   27  C24 UNL     1      -4.459  12.507  20.393  1.00  0.00     0.030 A 
HETATM   28  C25 UNL     1      -5.345  11.522  20.764  1.00  0.00     0.004 A 
HETATM   29  C26 UNL     1      -6.388  11.147  19.951  1.00  0.00     0.027 A 
HETATM   30  C27 UNL     1      -6.515  11.800  18.739  1.00  0.00     0.048 A 
HETATM   31  N4  UNL     1      -7.615  11.398  17.896  1.00  0.00    -0.102 NA
HETATM   32  C28 UNL     1      -5.642  12.789  18.346  1.00  0.00     0.056 A 
ENDBRANCH   9  26
BRANCH   8  33
HETATM   33  C17 UNL     1      -4.574  16.298  19.944  1.00  0.00    -0.009 A 
HETATM   34  C18 UNL     1      -4.063  17.326  20.726  1.00  0.00     0.014 A 
HETATM   35  C19 UNL     1      -4.886  18.137  21.494  1.00  0.00     0.001 A 
HETATM   36  C20 UNL     1      -6.246  17.959  21.516  1.00  0.00     0.000 A 
HETATM   37  C21 UNL     1      -6.758  16.948  20.749  1.00  0.00     0.001 A 
HETATM   38  C22 UNL     1      -5.923  16.118  19.962  1.00  0.00     0.014 A 
ENDBRANCH   8  33
TORSDOF 7
ENDMDL
MODEL 4
REMARK VINA RESULT: -8.413968863      2.248      3.242
REMARK  7 active torsions:
REMARK  status: ('A' for Active; 'I' for Inactive)
REMARK    1  A    between atoms: C7_7  and  N1_8 
REMARK    2  A    between atoms: N1_8  and  C8_10 
REMARK    3  A    between atoms: C8_10  and  N2_12 
REMARK    4  A    between atoms: N2_12  and  S2_14 
REMARK    5  A    between atoms: S2_14  and  C9_17 
REMARK    6  A    between atoms: C16_24  and  C17_25 
REMARK    7  A    between atoms: N3_31  and  C23_32 
ROOT
HETATM    1  C9  UNL     1       0.088  14.337  15.801  1.00  0.00     0.080 A 
HETATM    2  C10 UNL     1      -0.904  13.925  14.949  1.00  0.00     0.027 A 
HETATM    3  C11 UNL     1      -0.745  12.889  14.050  1.00  0.00     0.032 A 
HETATM    4  C12 UNL     1       0.452  12.219  13.980  1.00  0.00     0.050 A 
HETATM    5  C13 UNL     1       1.458  12.608  14.816  1.00  0.00    -0.005 A 
HETATM    6  C14 UNL     1       1.306  13.644  15.718  1.00  0.00     0.039 A 
HETATM    7  C15 UNL     1       2.510  11.798  14.547  1.00  0.00     0.044 A 
HETATM    8  C16 UNL     1       2.120  10.908  13.529  1.00  0.00     0.051 A 
HETATM    9  N3  UNL     1       0.861  11.175  13.189  1.00  0.00    -0.310 N 
ENDROOT
BRANCH   1  10
HETATM   10  S2  UNL     1      -0.107  15.644  16.939  1.00  0.00     0.264 S 
HETATM   11  O1  UNL     1      -0.474  15.067  18.301  1.00  0.00    -0.200 OA
HETATM   12  O2  UNL     1      -1.347  16.394  16.501  1.00  0.00    -0.200 OA
BRANCH  10  13
HETATM   13  N2  UNL     1       1.239  16.639  17.090  1.00  0.00    -0.256 N 
ATOM     14  H2  UNL     1       1.882  16.366  17.833  1.00  0.00     0.181 HD
BRANCH  13  15
HETATM   15  C8  UNL     1       1.637  17.790  16.368  1.00  0.00     0.186 C 
HETATM   16  S1  UNL     1       2.491  18.919  17.233  1.00  0.00    -0.040 SA
BRANCH  15  17
HETATM   17  N1  UNL     1       1.312  17.966  15.026  1.00  0.00    -0.332 N 
ATOM     18  H1  UNL     1       1.033  18.920  14.799  1.00  0.00     0.168 HD
BRANCH  17  19
HETATM   19  C7  UNL     1       1.289  17.109  13.929  1.00  0.00     0.040 A 
HETATM   20  C2  UNL     1       0.156  17.027  13.108  1.00  0.00    -0.035 A 
HETATM   21  C1  UNL     1      -1.003  17.919  13.438  1.00  0.00     0.050 C 
HETATM   22  C3  UNL     1       0.073  16.179  12.026  1.00  0.00     0.009 A 
HETATM   23  C4  UNL     1       1.126  15.367  11.713  1.00  0.00     0.001 A 
HETATM   24  C5  UNL     1       2.257  15.408  12.484  1.00  0.00     0.002 A 
HETATM   25  C6  UNL     1       2.315  16.282  13.581  1.00  0.00     0.030 A 
ENDBRANCH  17  19
ENDBRANCH  15  17
ENDBRANCH  13  15
ENDBRANCH  10  13
ENDBRANCH   1  10
BRANCH   9  26
HETATM   26  C23 UNL     1       0.000  10.610  12.210  1.00  0.00     0.042 A 
HETATM   27  C24 UNL     1      -1.041   9.757  12.595  1.00  0.00     0.030 A 
HETATM   28  C25 UNL     1      -1.917   9.237  11.672  1.00  0.00     0.004 A 
HETATM   29  C26 UNL     1      -1.810   9.529  10.333  1.00  0.00     0.027 A 
HETATM   30  C27 UNL     1      -0.783  10.371   9.947  1.00  0.00     0.048 A 
HETATM   31  N4  UNL     1      -0.683  10.670   8.538  1.00  0.00    -0.102 NA
HETATM   32  C28 UNL     1       0.105  10.904  10.852  1.00  0.00     0.056 A 
ENDBRANCH   9  26
BRANCH   8  33
HETATM   33  C17 UNL     1       3.051   9.944  13.002  1.00  0.00    -0.009 A 
HETATM   34  C18 UNL     1       3.553   8.960  13.844  1.00  0.00     0.014 A 
HETATM   35  C19 UNL     1       4.425   7.982  13.385  1.00  0.00     0.001 A 
HETATM   36  C20 UNL     1       4.830   7.945  12.075  1.00  0.00     0.000 A 
HETATM   37  C21 UNL     1       4.340   8.911  11.239  1.00  0.00     0.001 A 
HETATM   38  C22 UNL     1       3.450   9.910  11.701  1.00  0.00     0.014 A 
ENDBRANCH   8  33
TORSDOF 7
ENDMDL
MODEL 5
REMARK VINA RESULT: -8.409593956      2.515      3.474
REMARK  7 active torsions:
REMARK  status: ('A' for Active; 'I' for Inactive)
REMARK    1  A    between atoms: C7_7  and  N1_8 
REMARK    2  A    between atoms: N1_8  and  C8_10 
REMARK    3  A    between atoms: C8_10  and  N2_12 
REMARK    4  A    between atoms: N2_12  and  S2_14 
REMARK    5  A    between atoms: S2_14  and  C9_17 
REMARK    6  A    between atoms: C16_24  and  C17_25 
REMARK    7  A    between atoms: N3_31  and  C23_32 
ROOT
HETATM    1  C9  UNL     1       0.552  14.392  16.055  1.00  0.00     0.080 A 
HETATM    2  C10 UNL     1      -0.496  14.070  15.231  1.00  0.00     0.027 A 
HETATM    3  C11 UNL     1      -0.429  13.074  14.278  1.00  0.00     0.032 A 
HETATM    4  C12 UNL     1       0.729  12.351  14.121  1.00  0.00     0.050 A 
HETATM    5  C13 UNL     1       1.789  12.651  14.927  1.00  0.00    -0.005 A 
HETATM    6  C14 UNL     1       1.729  13.647  15.883  1.00  0.00     0.039 A 
HETATM    7  C15 UNL     1       2.787  11.805  14.572  1.00  0.00     0.044 A 
HETATM    8  C16 UNL     1       2.308  10.986  13.532  1.00  0.00     0.051 A 
HETATM    9  N3  UNL     1       1.050  11.329  13.264  1.00  0.00    -0.310 N 
ENDROOT
BRANCH   1  10
HETATM   10  S2  UNL     1       0.473  15.650  17.260  1.00  0.00     0.264 S 
HETATM   11  O1  UNL     1       1.650  15.497  18.216  1.00  0.00    -0.200 OA
HETATM   12  O2  UNL     1      -0.743  15.337  18.107  1.00  0.00    -0.200 OA
BRANCH  10  13
HETATM   13  N2  UNL     1       0.450  17.209  16.636  1.00  0.00    -0.256 N 
ATOM     14  H2  UNL     1      -0.451  17.681  16.715  1.00  0.00     0.181 HD
BRANCH  13  15
HETATM   15  C8  UNL     1       1.462  17.986  16.020  1.00  0.00     0.186 C 
HETATM   16  S1  UNL     1       2.421  18.863  17.051  1.00  0.00    -0.040 SA
BRANCH  15  17
HETATM   17  N1  UNL     1       1.622  18.022  14.637  1.00  0.00    -0.332 N 
ATOM     18  H1  UNL     1       1.930  18.929  14.290  1.00  0.00     0.168 HD
BRANCH  17  19
HETATM   19  C7  UNL     1       1.448  17.076  13.631  1.00  0.00     0.040 A 
HETATM   20  C2  UNL     1       0.231  16.977  12.943  1.00  0.00    -0.035 A 
HETATM   21  C1  UNL     1      -0.851  17.948  13.310  1.00  0.00     0.050 C 
HETATM   22  C3  UNL     1      -0.001  16.043  11.958  1.00  0.00     0.009 A 
HETATM   23  C4  UNL     1       0.981  15.159  11.612  1.00  0.00     0.001 A 
HETATM   24  C5  UNL     1       2.189  15.212  12.253  1.00  0.00     0.002 A 
HETATM   25  C6  UNL     1       2.398  16.174  13.254  1.00  0.00     0.030 A 
ENDBRANCH  17  19
ENDBRANCH  15  17
ENDBRANCH  13  15
ENDBRANCH  10  13
ENDBRANCH   1  10
BRANCH   9  26
HETATM   26  C23 UNL     1       0.120  10.855  12.300  1.00  0.00     0.042 A 
HETATM   27  C24 UNL     1       0.274  11.188  10.949  1.00  0.00     0.030 A 
HETATM   28  C25 UNL     1      -0.584  10.701   9.991  1.00  0.00     0.004 A 
HETATM   29  C26 UNL     1      -1.628   9.867  10.316  1.00  0.00     0.027 A 
HETATM   30  C27 UNL     1      -1.785   9.536  11.649  1.00  0.00     0.048 A 
HETATM   31  N4  UNL     1      -2.884   8.660  11.976  1.00  0.00    -0.102 NA
HETATM   32  C28 UNL     1      -0.939  10.010  12.625  1.00  0.00     0.056 A 
ENDBRANCH   9  26
BRANCH   8  33
HETATM   33  C17 UNL     1       3.166  10.007  12.918  1.00  0.00    -0.009 A 
HETATM   34  C18 UNL     1       3.679   8.976  13.695  1.00  0.00     0.014 A 
HETATM   35  C19 UNL     1       4.481   7.982  13.152  1.00  0.00     0.001 A 
HETATM   36  C20 UNL     1       4.804   7.974  11.819  1.00  0.00     0.000 A 
HETATM   37  C21 UNL     1       4.302   8.986  11.046  1.00  0.00     0.001 A 
HETATM   38  C22 UNL     1       3.483  10.002  11.594  1.00  0.00     0.014 A 
ENDBRANCH   8  33
TORSDOF 7
ENDMDL
