MODEL 1
REMARK VINA RESULT: -5.646955718      0.000      0.000
REMARK  4 active torsions:
REMARK  status: ('A' for Active; 'I' for Inactive)
REMARK    1  A    between atoms: C4_4  and  N1_5 
REMARK    2  A    between atoms: N1_5  and  N2_7 
REMARK    3  A    between atoms: N2_7  and  C5_9 
REMARK    4  A    between atoms: N3_11  and  O2_12 
ROOT
HETATM    1  C1  UNL     1       6.174  -1.482  19.833  1.00  0.00     0.070 C 
HETATM    2  C2  UNL     1       7.465  -1.553  19.109  1.00  0.00     0.028 A 
HETATM    3  C3  UNL     1       7.706  -2.165  17.893  1.00  0.00     0.080 A 
HETATM    4  C4  UNL     1       9.055  -1.986  17.591  1.00  0.00     0.168 A 
HETATM    5  N3  UNL     1       9.572  -1.294  18.602  1.00  0.00    -0.145 N 
HETATM    6  N4  UNL     1       8.636  -1.029  19.514  1.00  0.00    -0.277 N 
ATOM      7  H4  UNL     1       8.783  -0.512  20.380  1.00  0.00     0.189 HD
ENDROOT
BRANCH   4   8
HETATM    8  N1  UNL     1       9.700  -2.466  16.422  1.00  0.00    -0.280 N 
ATOM      9  H1  UNL     1       9.919  -3.457  16.318  1.00  0.00     0.188 HD
BRANCH   8  10
HETATM   10  N2  UNL     1      10.029  -1.561  15.422  1.00  0.00    -0.276 N 
ATOM     11  H2  UNL     1      10.915  -1.055  15.443  1.00  0.00     0.189 HD
BRANCH  10  12
HETATM   12  C5  UNL     1       9.093  -1.357  14.365  1.00  0.00     0.368 C 
HETATM   13  O1  UNL     1       9.427  -1.369  13.161  1.00  0.00    -0.282 OA
ENDBRANCH  10  12
ENDBRANCH   8  10
ENDBRANCH   4   8
BRANCH   5  14
HETATM   14  O2  UNL     1      10.893  -0.918  18.664  1.00  0.00    -0.266 OA
ATOM     15  H2  UNL     1      11.398  -0.916  19.468  1.00  0.00     0.247 HD
ENDBRANCH   5  14
TORSDOF 4
ENDMDL
MODEL 2
REMARK VINA RESULT: -5.423455928      2.168      4.678
REMARK  4 active torsions:
REMARK  status: ('A' for Active; 'I' for Inactive)
REMARK    1  A    between atoms: C4_4  and  N1_5 
REMARK    2  A    between atoms: N1_5  and  N2_7 
REMARK    3  A    between atoms: N2_7  and  C5_9 
REMARK    4  A    between atoms: N3_11  and  O2_12 
ROOT
HETATM    1  C1  UNL     1       8.858  -3.160  14.876  1.00  0.00     0.070 C 
HETATM    2  C2  UNL     1       8.979  -2.534  16.214  1.00  0.00     0.028 A 
HETATM    3  C3  UNL     1       7.980  -2.384  17.158  1.00  0.00     0.080 A 
HETATM    4  C4  UNL     1       8.537  -1.745  18.264  1.00  0.00     0.168 A 
HETATM    5  N3  UNL     1       9.815  -1.535  17.966  1.00  0.00    -0.145 N 
HETATM    6  N4  UNL     1      10.092  -2.000  16.746  1.00  0.00    -0.277 N 
ATOM      7  H4  UNL     1      11.003  -1.958  16.290  1.00  0.00     0.189 HD
ENDROOT
BRANCH   4   8
HETATM    8  N1  UNL     1       7.836  -1.409  19.451  1.00  0.00    -0.280 N 
ATOM      9  H1  UNL     1       7.061  -1.986  19.779  1.00  0.00     0.188 HD
BRANCH   8  10
HETATM   10  N2  UNL     1       8.226  -0.280  20.160  1.00  0.00    -0.276 N 
ATOM     11  H2  UNL     1       8.826   0.426  19.732  1.00  0.00     0.189 HD
BRANCH  10  12
HETATM   12  C5  UNL     1       7.765  -0.135  21.502  1.00  0.00     0.368 C 
HETATM   13  O1  UNL     1       7.106   0.856  21.882  1.00  0.00    -0.282 OA
ENDBRANCH  10  12
ENDBRANCH   8  10
ENDBRANCH   4   8
BRANCH   5  14
HETATM   14  O2  UNL     1      10.701  -0.922  18.819  1.00  0.00    -0.266 OA
ATOM     15  H2  UNL     1      10.435  -0.458  19.604  1.00  0.00     0.247 HD
ENDBRANCH   5  14
TORSDOF 4
ENDMDL
MODEL 3
REMARK VINA RESULT: -5.308980179      2.225      3.053
REMARK  4 active torsions:
REMARK  status: ('A' for Active; 'I' for Inactive)
REMARK    1  A    between atoms: C4_4  and  N1_5 
REMARK    2  A    between atoms: N1_5  and  N2_7 
REMARK    3  A    between atoms: N2_7  and  C5_9 
REMARK    4  A    between atoms: N3_11  and  O2_12 
ROOT
HETATM    1  C1  UNL     1       6.352   0.059  23.134  1.00  0.00     0.070 C 
HETATM    2  C2  UNL     1       7.031  -0.226  21.848  1.00  0.00     0.028 A 
HETATM    3  C3  UNL     1       6.566  -1.024  20.819  1.00  0.00     0.080 A 
HETATM    4  C4  UNL     1       7.524  -1.006  19.806  1.00  0.00     0.168 A 
HETATM    5  N3  UNL     1       8.506  -0.223  20.239  1.00  0.00    -0.145 N 
HETATM    6  N4  UNL     1       8.226   0.248  21.455  1.00  0.00    -0.277 N 
ATOM      7  H4  UNL     1       8.823   0.870  22.001  1.00  0.00     0.189 HD
ENDROOT
BRANCH   4   8
HETATM    8  N1  UNL     1       7.421  -1.702  18.574  1.00  0.00    -0.280 N 
ATOM      9  H1  UNL     1       6.640  -1.527  17.941  1.00  0.00     0.188 HD
BRANCH   8  10
HETATM   10  N2  UNL     1       8.404  -2.627  18.246  1.00  0.00    -0.276 N 
ATOM     11  H2  UNL     1       8.558  -3.455  18.822  1.00  0.00     0.189 HD
BRANCH  10  12
HETATM   12  C5  UNL     1       9.192  -2.387  17.081  1.00  0.00     0.368 C 
HETATM   13  O1  UNL     1      10.183  -1.626  17.087  1.00  0.00    -0.282 OA
ENDBRANCH  10  12
ENDBRANCH   8  10
ENDBRANCH   4   8
BRANCH   5  14
HETATM   14  O2  UNL     1       9.639   0.043  19.508  1.00  0.00    -0.266 OA
ATOM     15  H2  UNL     1      10.365   0.560  19.838  1.00  0.00     0.247 HD
ENDBRANCH   5  14
TORSDOF 4
ENDMDL
MODEL 4
REMARK VINA RESULT: -5.240192114      1.365      1.553
REMARK  4 active torsions:
REMARK  status: ('A' for Active; 'I' for Inactive)
REMARK    1  A    between atoms: C4_4  and  N1_5 
REMARK    2  A    between atoms: N1_5  and  N2_7 
REMARK    3  A    between atoms: N2_7  and  C5_9 
REMARK    4  A    between atoms: N3_11  and  O2_12 
ROOT
HETATM    1  C1  UNL     1       7.393   0.122  21.449  1.00  0.00     0.070 C 
HETATM    2  C2  UNL     1       8.027  -0.519  20.273  1.00  0.00     0.028 A 
HETATM    3  C3  UNL     1       7.482  -1.498  19.463  1.00  0.00     0.080 A 
HETATM    4  C4  UNL     1       8.422  -1.805  18.481  1.00  0.00     0.168 A 
HETATM    5  N3  UNL     1       9.474  -1.028  18.719  1.00  0.00    -0.145 N 
HETATM    6  N4  UNL     1       9.252  -0.257  19.785  1.00  0.00    -0.277 N 
ATOM      7  H4  UNL     1       9.907   0.425  20.169  1.00  0.00     0.189 HD
ENDROOT
BRANCH   4   8
HETATM    8  N1  UNL     1       8.243  -2.765  17.452  1.00  0.00    -0.280 N 
ATOM      9  H1  UNL     1       7.441  -3.395  17.461  1.00  0.00     0.188 HD
BRANCH   8  10
HETATM   10  N2  UNL     1       9.182  -2.831  16.431  1.00  0.00    -0.276 N 
ATOM     11  H2  UNL     1      10.032  -3.387  16.535  1.00  0.00     0.189 HD
BRANCH  10  12
HETATM   12  C5  UNL     1       8.925  -2.100  15.232  1.00  0.00     0.368 C 
HETATM   13  O1  UNL     1       9.559  -1.067  14.928  1.00  0.00    -0.282 OA
ENDBRANCH  10  12
ENDBRANCH   8  10
ENDBRANCH   4   8
BRANCH   5  14
HETATM   14  O2  UNL     1      10.615  -1.042  17.953  1.00  0.00    -0.266 OA
ATOM     15  H2  UNL     1      11.483  -0.892  18.306  1.00  0.00     0.247 HD
ENDBRANCH   5  14
TORSDOF 4
ENDMDL
MODEL 5
REMARK VINA RESULT: -5.115605528      1.954      2.049
REMARK  4 active torsions:
REMARK  status: ('A' for Active; 'I' for Inactive)
REMARK    1  A    between atoms: C4_4  and  N1_5 
REMARK    2  A    between atoms: N1_5  and  N2_7 
REMARK    3  A    between atoms: N2_7  and  C5_9 
REMARK    4  A    between atoms: N3_11  and  O2_12 
ROOT
HETATM    1  C1  UNL     1       8.218   0.098  20.823  1.00  0.00     0.070 C 
HETATM    2  C2  UNL     1       8.362  -0.743  19.612  1.00  0.00     0.028 A 
HETATM    3  C3  UNL     1       9.477  -0.856  18.803  1.00  0.00     0.080 A 
HETATM    4  C4  UNL     1       9.169  -1.755  17.783  1.00  0.00     0.168 A 
HETATM    5  N3  UNL     1       7.917  -2.146  17.999  1.00  0.00    -0.145 N 
HETATM    6  N4  UNL     1       7.424  -1.550  19.086  1.00  0.00    -0.277 N 
ATOM      7  H4  UNL     1       6.484  -1.684  19.459  1.00  0.00     0.189 HD
ENDROOT
BRANCH   4   8
HETATM    8  N1  UNL     1      10.054  -2.145  16.744  1.00  0.00    -0.280 N 
ATOM      9  H1  UNL     1      10.677  -2.944  16.864  1.00  0.00     0.188 HD
BRANCH   8  10
HETATM   10  N2  UNL     1      10.055  -1.418  15.561  1.00  0.00    -0.276 N 
ATOM     11  H2  UNL     1      10.747  -0.687  15.396  1.00  0.00     0.189 HD
BRANCH  10  12
HETATM   12  C5  UNL     1       9.061  -1.722  14.584  1.00  0.00     0.368 C 
HETATM   13  O1  UNL     1       8.507  -2.839  14.515  1.00  0.00    -0.282 OA
ENDBRANCH  10  12
ENDBRANCH   8  10
ENDBRANCH   4   8
BRANCH   5  14
HETATM   14  O2  UNL     1       7.255  -3.042  17.195  1.00  0.00    -0.266 OA
ATOM     15  H2  UNL     1       6.403  -2.870  16.812  1.00  0.00     0.247 HD
ENDBRANCH   5  14
TORSDOF 4
ENDMDL
