MODEL 1
REMARK VINA RESULT: -4.739670153      0.000      0.000
REMARK  4 active torsions:
REMARK  status: ('A' for Active; 'I' for Inactive)
REMARK    1  A    between atoms: C2_2  and  N1_3 
REMARK    2  A    between atoms: C5_7  and  C6_8 
REMARK    3  A    between atoms: C6_8  and  C7_9 
REMARK    4  A    between atoms: C7_9  and  N2_10 
ROOT
HETATM    1  N1  UNL     1       6.606  -1.474  20.060  1.00  0.00    -0.377 N 
ATOM      2  H1  UNL     1       5.974  -2.151  19.635  1.00  0.00     0.161 HD
HETATM    3  C3  UNL     1       7.730  -1.312  19.478  1.00  0.00     0.103 A 
HETATM    4  C4  UNL     1       7.961  -2.079  18.329  1.00  0.00     0.073 A 
HETATM    5  C5  UNL     1       9.135  -1.987  17.620  1.00  0.00     0.015 A 
HETATM    6  N3  UNL     1      10.060  -1.127  18.075  1.00  0.00    -0.356 N 
ATOM      7  H3  UNL     1      10.945  -1.030  17.576  1.00  0.00     0.166 HD
HETATM    8  C8  UNL     1       9.835  -0.389  19.180  1.00  0.00     0.182 A 
HETATM    9  N4  UNL     1       8.691  -0.465  19.889  1.00  0.00    -0.339 N 
ATOM     10  H4  UNL     1       8.557   0.110  20.722  1.00  0.00     0.168 HD
ENDROOT
BRANCH   5  11
HETATM   11  C6  UNL     1       9.318  -2.828  16.410  1.00  0.00     0.084 C 
BRANCH  11  12
HETATM   12  C7  UNL     1       8.852  -2.099  15.174  1.00  0.00     0.235 C 
BRANCH  12  13
HETATM   13  N2  UNL     1       9.990  -1.282  14.724  1.00  0.00    -0.079 N 
ATOM     14  H23 UNL     1      10.680  -1.109  15.456  1.00  0.00     0.274 HD
ATOM     15  H22 UNL     1      10.612  -1.772  14.081  1.00  0.00     0.274 HD
ATOM     16  H21 UNL     1       9.592  -0.429  14.332  1.00  0.00     0.274 HD
ENDBRANCH  12  13
ENDBRANCH  11  12
ENDBRANCH   5  11
BRANCH   1  17
HETATM   17  C2  UNL     1       6.133  -0.826  21.227  1.00  0.00     0.116 C 
HETATM   18  C1  UNL     1       6.183  -1.801  22.394  1.00  0.00     0.026 C 
ENDBRANCH   1  17
TORSDOF 4
ENDMDL
MODEL 2
REMARK VINA RESULT: -4.564498065      1.384      5.127
REMARK  4 active torsions:
REMARK  status: ('A' for Active; 'I' for Inactive)
REMARK    1  A    between atoms: C2_2  and  N1_3 
REMARK    2  A    between atoms: C5_7  and  C6_8 
REMARK    3  A    between atoms: C6_8  and  C7_9 
REMARK    4  A    between atoms: C7_9  and  N2_10 
ROOT
HETATM    1  N1  UNL     1       8.267  -2.699  17.547  1.00  0.00    -0.377 N 
ATOM      2  H1  UNL     1       7.415  -3.259  17.574  1.00  0.00     0.161 HD
HETATM    3  C3  UNL     1       8.385  -1.812  18.457  1.00  0.00     0.103 A 
HETATM    4  C4  UNL     1       7.337  -1.712  19.380  1.00  0.00     0.073 A 
HETATM    5  C5  UNL     1       7.356  -0.794  20.402  1.00  0.00     0.015 A 
HETATM    6  N3  UNL     1       8.428   0.012  20.483  1.00  0.00    -0.356 N 
ATOM      7  H3  UNL     1       8.479   0.707  21.227  1.00  0.00     0.166 HD
HETATM    8  C8  UNL     1       9.435  -0.087  19.593  1.00  0.00     0.182 A 
HETATM    9  N4  UNL     1       9.436  -0.981  18.584  1.00  0.00    -0.339 N 
ATOM     10  H4  UNL     1      10.217  -1.026  17.930  1.00  0.00     0.168 HD
ENDROOT
BRANCH   5  11
HETATM   11  C6  UNL     1       6.213  -0.739  21.348  1.00  0.00     0.084 C 
BRANCH  11  12
HETATM   12  C7  UNL     1       6.623  -1.231  22.715  1.00  0.00     0.235 C 
BRANCH  12  13
HETATM   13  N2  UNL     1       6.189  -2.635  22.794  1.00  0.00    -0.079 N 
ATOM     14  H23 UNL     1       5.213  -2.743  23.070  1.00  0.00     0.274 HD
ATOM     15  H22 UNL     1       6.111  -3.087  21.883  1.00  0.00     0.274 HD
ATOM     16  H21 UNL     1       6.842  -3.101  23.423  1.00  0.00     0.274 HD
ENDBRANCH  12  13
ENDBRANCH  11  12
ENDBRANCH   5  11
BRANCH   1  17
HETATM   17  C2  UNL     1       9.177  -2.999  16.505  1.00  0.00     0.116 C 
HETATM   18  C1  UNL     1       8.817  -2.177  15.276  1.00  0.00     0.026 C 
ENDBRANCH   1  17
TORSDOF 4
ENDMDL
MODEL 3
REMARK VINA RESULT: -4.559145667      1.313      1.476
REMARK  4 active torsions:
REMARK  status: ('A' for Active; 'I' for Inactive)
REMARK    1  A    between atoms: C2_2  and  N1_3 
REMARK    2  A    between atoms: C5_7  and  C6_8 
REMARK    3  A    between atoms: C6_8  and  C7_9 
REMARK    4  A    between atoms: C7_9  and  N2_10 
ROOT
HETATM    1  N1  UNL     1       6.842  -0.403  21.293  1.00  0.00    -0.377 N 
ATOM      2  H1  UNL     1       6.008  -0.981  21.192  1.00  0.00     0.161 HD
HETATM    3  C3  UNL     1       7.745  -0.561  20.405  1.00  0.00     0.103 A 
HETATM    4  C4  UNL     1       7.486  -1.504  19.403  1.00  0.00     0.073 A 
HETATM    5  C5  UNL     1       8.386  -1.757  18.396  1.00  0.00     0.015 A 
HETATM    6  N3  UNL     1       9.533  -1.059  18.409  1.00  0.00    -0.356 N 
ATOM      7  H3  UNL     1      10.227  -1.218  17.679  1.00  0.00     0.166 HD
HETATM    8  C8  UNL     1       9.780  -0.152  19.375  1.00  0.00     0.182 A 
HETATM    9  N4  UNL     1       8.910   0.111  20.371  1.00  0.00    -0.339 N 
ATOM     10  H4  UNL     1       9.132   0.806  21.084  1.00  0.00     0.168 HD
ENDROOT
BRANCH   5  11
HETATM   11  C6  UNL     1       8.052  -2.769  17.363  1.00  0.00     0.084 C 
BRANCH  11  12
HETATM   12  C7  UNL     1       9.264  -3.106  16.529  1.00  0.00     0.235 C 
BRANCH  12  13
HETATM   13  N2  UNL     1       8.960  -2.659  15.161  1.00  0.00    -0.079 N 
ATOM     14  H23 UNL     1       8.328  -1.859  15.127  1.00  0.00     0.274 HD
ATOM     15  H22 UNL     1       9.750  -2.213  14.694  1.00  0.00     0.274 HD
ATOM     16  H21 UNL     1       8.605  -3.477  14.664  1.00  0.00     0.274 HD
ENDBRANCH  12  13
ENDBRANCH  11  12
ENDBRANCH   5  11
BRANCH   1  17
HETATM   17  C2  UNL     1       6.858   0.479  22.401  1.00  0.00     0.116 C 
HETATM   18  C1  UNL     1       7.506  -0.223  23.586  1.00  0.00     0.026 C 
ENDBRANCH   1  17
TORSDOF 4
ENDMDL
MODEL 4
REMARK VINA RESULT: -4.389559942      2.399      6.084
REMARK  4 active torsions:
REMARK  status: ('A' for Active; 'I' for Inactive)
REMARK    1  A    between atoms: C2_2  and  N1_3 
REMARK    2  A    between atoms: C5_7  and  C6_8 
REMARK    3  A    between atoms: C6_8  and  C7_9 
REMARK    4  A    between atoms: C7_9  and  N2_10 
ROOT
HETATM    1  N1  UNL     1       7.788  -1.272  19.255  1.00  0.00    -0.377 N 
ATOM      2  H1  UNL     1       8.747  -0.926  19.284  1.00  0.00     0.161 HD
HETATM    3  C3  UNL     1       7.063  -0.999  20.269  1.00  0.00     0.103 A 
HETATM    4  C4  UNL     1       7.664  -0.260  21.294  1.00  0.00     0.073 A 
HETATM    5  C5  UNL     1       6.979   0.092  22.432  1.00  0.00     0.015 A 
HETATM    6  N3  UNL     1       5.699  -0.302  22.524  1.00  0.00    -0.356 N 
ATOM      7  H3  UNL     1       5.156  -0.060  23.353  1.00  0.00     0.166 HD
HETATM    8  C8  UNL     1       5.121  -1.013  21.535  1.00  0.00     0.182 A 
HETATM    9  N4  UNL     1       5.776  -1.368  20.411  1.00  0.00    -0.339 N 
ATOM     10  H4  UNL     1       5.306  -1.907  19.684  1.00  0.00     0.168 HD
ENDROOT
BRANCH   5  11
HETATM   11  C6  UNL     1       7.674   0.877  23.484  1.00  0.00     0.084 C 
BRANCH  11  12
HETATM   12  C7  UNL     1       7.504   0.231  24.837  1.00  0.00     0.235 C 
BRANCH  12  13
HETATM   13  N2  UNL     1       8.713  -0.578  25.063  1.00  0.00    -0.079 N 
ATOM     14  H23 UNL     1       8.636  -1.208  25.861  1.00  0.00     0.274 HD
ATOM     15  H22 UNL     1       8.860  -1.294  24.352  1.00  0.00     0.274 HD
ATOM     16  H21 UNL     1       9.487   0.082  25.140  1.00  0.00     0.274 HD
ENDBRANCH  12  13
ENDBRANCH  11  12
ENDBRANCH   5  11
BRANCH   1  17
HETATM   17  C2  UNL     1       7.422  -1.998  18.096  1.00  0.00     0.116 C 
HETATM   18  C1  UNL     1       8.651  -2.706  17.542  1.00  0.00     0.026 C 
ENDBRANCH   1  17
TORSDOF 4
ENDMDL
MODEL 5
REMARK VINA RESULT: -4.353383043      1.886      2.775
REMARK  4 active torsions:
REMARK  status: ('A' for Active; 'I' for Inactive)
REMARK    1  A    between atoms: C2_2  and  N1_3 
REMARK    2  A    between atoms: C5_7  and  C6_8 
REMARK    3  A    between atoms: C6_8  and  C7_9 
REMARK    4  A    between atoms: C7_9  and  N2_10 
ROOT
HETATM    1  N1  UNL     1       7.804   0.782  22.268  1.00  0.00    -0.377 N 
ATOM      2  H1  UNL     1       8.714   1.242  22.256  1.00  0.00     0.161 HD
HETATM    3  C3  UNL     1       7.569  -0.024  21.307  1.00  0.00     0.103 A 
HETATM    4  C4  UNL     1       8.583  -0.182  20.354  1.00  0.00     0.073 A 
HETATM    5  C5  UNL     1       8.441  -1.023  19.277  1.00  0.00     0.015 A 
HETATM    6  N3  UNL     1       7.283  -1.695  19.172  1.00  0.00    -0.356 N 
ATOM      7  H3  UNL     1       7.139  -2.330  18.386  1.00  0.00     0.166 HD
HETATM    8  C8  UNL     1       6.309  -1.542  20.091  1.00  0.00     0.182 A 
HETATM    9  N4  UNL     1       6.428  -0.722  21.154  1.00  0.00    -0.339 N 
ATOM     10  H4  UNL     1       5.669  -0.632  21.829  1.00  0.00     0.168 HD
ENDROOT
BRANCH   5  11
HETATM   11  C6  UNL     1       9.554  -1.146  18.301  1.00  0.00     0.084 C 
BRANCH  11  12
HETATM   12  C7  UNL     1       9.246  -2.199  17.265  1.00  0.00     0.235 C 
BRANCH  12  13
HETATM   13  N2  UNL     1      10.141  -1.932  16.128  1.00  0.00    -0.079 N 
ATOM     14  H23 UNL     1       9.688  -2.042  15.220  1.00  0.00     0.274 HD
ATOM     15  H22 UNL     1      10.386  -0.948  16.027  1.00  0.00     0.274 HD
ATOM     16  H21 UNL     1      10.950  -2.541  16.253  1.00  0.00     0.274 HD
ENDBRANCH  12  13
ENDBRANCH  11  12
ENDBRANCH   5  11
BRANCH   1  17
HETATM   17  C2  UNL     1       6.952   1.114  23.349  1.00  0.00     0.116 C 
HETATM   18  C1  UNL     1       7.383   0.333  24.582  1.00  0.00     0.026 C 
ENDBRANCH   1  17
TORSDOF 4
ENDMDL
