MODEL 1
REMARK VINA RESULT: -7.733093394      0.000      0.000
REMARK  12 active torsions:
REMARK  status: ('A' for Active; 'I' for Inactive)
REMARK    1  A    between atoms: C2_2  and  C3_3 
REMARK    2  A    between atoms: C3_3  and  C4_4 
REMARK    3  A    between atoms: C4_4  and  N1_5 
REMARK    4  A    between atoms: C4_4  and  C6_11 
REMARK    5  A    between atoms: N1_5  and  S1_7 
REMARK    6  A    between atoms: C6_11  and  O3_12 
REMARK    7  A    between atoms: C6_11  and  C7_14 
REMARK    8  A    between atoms: C7_14  and  N2_15 
REMARK    9  A    between atoms: C13_21  and  C14_22 
REMARK   10  A    between atoms: C14_22  and  C15_23 
REMARK   11  A    between atoms: C15_23  and  C16_24 
REMARK   12  A    between atoms: C16_24  and  N3_25 
REMARK       I    between atoms: N3_25  and  C17_27 
ROOT
HETATM    1  C6  UNL     1      36.264  42.380  -4.516  1.00  0.00     0.170 C 
ENDROOT
BRANCH   1   2
HETATM    2  C4  UNL     1      36.802  41.648  -3.296  1.00  0.00     0.135 C 
BRANCH   2   3
HETATM    3  C3  UNL     1      36.893  42.571  -2.083  1.00  0.00     0.000 C 
HETATM    4  C19 UNL     1      35.930  42.119  -0.968  1.00  0.00     0.015 C 
HETATM    5  C20 UNL     1      36.301  40.847  -0.329  1.00  0.00     0.001 C 
HETATM    6  C21 UNL     1      37.160  40.979   0.896  1.00  0.00     0.000 C 
HETATM    7  C22 UNL     1      37.260  42.310   1.522  1.00  0.00     0.004 C 
HETATM    8  C23 UNL     1      38.077  43.348   0.841  1.00  0.00     0.027 C 
HETATM    9  C24 UNL     1      38.818  43.006  -0.367  1.00  0.00    -0.030 C 
HETATM   10  C25 UNL     1      38.299  42.583  -1.634  1.00  0.00    -0.019 C 
BRANCH   3  11
HETATM   11  C2  UNL     1      36.421  43.980  -2.355  1.00  0.00     0.011 C 
HETATM   12  C1  UNL     1      35.876  44.756  -1.237  1.00  0.00     0.006 C 
ENDBRANCH   3  11
ENDBRANCH   2   3
BRANCH   2  13
HETATM   13  N1  UNL     1      37.923  40.848  -3.553  1.00  0.00    -0.311 N 
ATOM     14  H1  UNL     1      38.746  41.372  -3.852  1.00  0.00     0.172 HD
BRANCH  13  15
HETATM   15  S1  UNL     1      38.157  39.265  -3.465  1.00  0.00     0.223 S 
HETATM   16  C5  UNL     1      39.871  38.785  -3.536  1.00  0.00     0.185 C 
HETATM   17  O1  UNL     1      37.538  38.430  -4.592  1.00  0.00    -0.206 OA
HETATM   18  O2  UNL     1      37.708  38.501  -2.214  1.00  0.00    -0.206 OA
ENDBRANCH  13  15
ENDBRANCH   2  13
ENDBRANCH   1   2
BRANCH   1  19
HETATM   19  O3  UNL     1      37.187  42.696  -5.440  1.00  0.00    -0.392 OA
ATOM     20  H3  UNL     1      37.325  42.036  -6.109  1.00  0.00     0.210 HD
ENDBRANCH   1  19
BRANCH   1  21
HETATM   21  C7  UNL     1      35.092  41.552  -5.101  1.00  0.00     0.306 C 
BRANCH  21  22
HETATM   22  N2  UNL     1      35.206  41.265  -6.488  1.00  0.00     0.096 N 
HETATM   23  C8  UNL     1      35.509  39.931  -6.804  1.00  0.00     0.273 C 
HETATM   24  C9  UNL     1      34.148  39.206  -6.729  1.00  0.00     0.037 C 
HETATM   25  C10 UNL     1      33.201  40.255  -7.217  1.00  0.00     0.021 C 
HETATM   26  C11 UNL     1      32.917  39.970  -8.679  1.00  0.00     0.007 C 
HETATM   27  C18 UNL     1      33.925  41.547  -7.134  1.00  0.00     0.231 C 
HETATM   28  C12 UNL     1      33.803  40.878  -9.460  1.00  0.00     0.007 C 
HETATM   29  C13 UNL     1      34.111  42.003  -8.548  1.00  0.00     0.019 C 
BRANCH  29  30
HETATM   30  C14 UNL     1      33.176  43.163  -8.805  1.00  0.00     0.008 C 
BRANCH  30  31
HETATM   31  C15 UNL     1      33.393  43.775 -10.171  1.00  0.00     0.020 C 
BRANCH  31  32
HETATM   32  C16 UNL     1      32.261  44.667 -10.582  1.00  0.00     0.122 C 
BRANCH  32  33
HETATM   33  N3  UNL     1      32.159  44.655 -12.032  1.00  0.00    -0.365 N 
HETATM   34  C17 UNL     1      32.647  45.786 -12.788  1.00  0.00     0.181 C 
HETATM   35  N4  UNL     1      32.327  46.953 -12.307  1.00  0.00    -0.374 N 
HETATM   36  N5  UNL     1      33.408  45.646 -13.953  1.00  0.00    -0.064 NA
ATOM     37  H42 UNL     1      31.772  47.055 -11.457  1.00  0.00     0.158 HD
ATOM     38  H41 UNL     1      32.671  47.750 -12.841  1.00  0.00     0.158 HD
ATOM     39  H3  UNL     1      31.746  43.855 -12.512  1.00  0.00     0.162 HD
ENDBRANCH  32  33
ENDBRANCH  31  32
ENDBRANCH  30  31
ENDBRANCH  29  30
ENDBRANCH  21  22
ENDBRANCH   1  21
TORSDOF 12
ENDMDL
MODEL 2
REMARK VINA RESULT: -7.725836038      4.873      8.777
REMARK  12 active torsions:
REMARK  status: ('A' for Active; 'I' for Inactive)
REMARK    1  A    between atoms: C2_2  and  C3_3 
REMARK    2  A    between atoms: C3_3  and  C4_4 
REMARK    3  A    between atoms: C4_4  and  N1_5 
REMARK    4  A    between atoms: C4_4  and  C6_11 
REMARK    5  A    between atoms: N1_5  and  S1_7 
REMARK    6  A    between atoms: C6_11  and  O3_12 
REMARK    7  A    between atoms: C6_11  and  C7_14 
REMARK    8  A    between atoms: C7_14  and  N2_15 
REMARK    9  A    between atoms: C13_21  and  C14_22 
REMARK   10  A    between atoms: C14_22  and  C15_23 
REMARK   11  A    between atoms: C15_23  and  C16_24 
REMARK   12  A    between atoms: C16_24  and  N3_25 
REMARK       I    between atoms: N3_25  and  C17_27 
ROOT
HETATM    1  C6  UNL     1      33.093  39.581 -10.065  1.00  0.00     0.170 C 
ENDROOT
BRANCH   1   2
HETATM    2  C4  UNL     1      32.737  38.244  -9.434  1.00  0.00     0.135 C 
BRANCH   2   3
HETATM    3  C3  UNL     1      31.230  37.998  -9.455  1.00  0.00     0.000 C 
HETATM    4  C19 UNL     1      30.813  37.204 -10.709  1.00  0.00     0.015 C 
HETATM    5  C20 UNL     1      31.284  35.811 -10.725  1.00  0.00     0.001 C 
HETATM    6  C21 UNL     1      30.321  34.809 -10.154  1.00  0.00     0.000 C 
HETATM    7  C22 UNL     1      28.922  35.236  -9.961  1.00  0.00     0.004 C 
HETATM    8  C23 UNL     1      28.620  36.164  -8.839  1.00  0.00     0.027 C 
HETATM    9  C24 UNL     1      29.681  36.556  -7.919  1.00  0.00    -0.030 C 
HETATM   10  C25 UNL     1      30.874  37.294  -8.207  1.00  0.00    -0.019 C 
BRANCH   3  11
HETATM   11  C2  UNL     1      30.410  39.258  -9.594  1.00  0.00     0.011 C 
HETATM   12  C1  UNL     1      29.310  39.267 -10.563  1.00  0.00     0.006 C 
ENDBRANCH   3  11
ENDBRANCH   2   3
BRANCH   2  13
HETATM   13  N1  UNL     1      33.391  37.985  -8.223  1.00  0.00    -0.311 N 
ATOM     14  H1  UNL     1      33.224  38.690  -7.504  1.00  0.00     0.172 HD
BRANCH  13  15
HETATM   15  S1  UNL     1      34.352  36.792  -7.754  1.00  0.00     0.223 S 
HETATM   16  C5  UNL     1      34.845  35.702  -9.075  1.00  0.00     0.185 C 
HETATM   17  O1  UNL     1      33.763  35.816  -6.730  1.00  0.00    -0.206 OA
HETATM   18  O2  UNL     1      35.719  37.117  -7.139  1.00  0.00    -0.206 OA
ENDBRANCH  13  15
ENDBRANCH   2  13
ENDBRANCH   1   2
BRANCH   1  19
HETATM   19  O3  UNL     1      34.310  40.053  -9.743  1.00  0.00    -0.392 OA
ATOM     20  H3  UNL     1      34.545  40.872 -10.162  1.00  0.00     0.210 HD
ENDBRANCH   1  19
BRANCH   1  21
HETATM   21  C7  UNL     1      32.883  39.466 -11.596  1.00  0.00     0.306 C 
BRANCH  21  22
HETATM   22  N2  UNL     1      33.098  40.673 -12.314  1.00  0.00     0.096 N 
HETATM   23  C8  UNL     1      32.624  40.680 -13.635  1.00  0.00     0.273 C 
HETATM   24  C9  UNL     1      31.118  40.989 -13.496  1.00  0.00     0.037 C 
HETATM   25  C10 UNL     1      31.091  41.915 -12.322  1.00  0.00     0.021 C 
HETATM   26  C11 UNL     1      31.010  43.332 -12.858  1.00  0.00     0.007 C 
HETATM   27  C18 UNL     1      32.394  41.759 -11.633  1.00  0.00     0.231 C 
HETATM   28  C12 UNL     1      32.400  43.868 -12.827  1.00  0.00     0.007 C 
HETATM   29  C13 UNL     1      33.104  43.066 -11.801  1.00  0.00     0.019 C 
BRANCH  29  30
HETATM   30  C14 UNL     1      33.103  43.788 -10.473  1.00  0.00     0.008 C 
BRANCH  30  31
HETATM   31  C15 UNL     1      32.532  42.934  -9.362  1.00  0.00     0.020 C 
BRANCH  31  32
HETATM   32  C16 UNL     1      33.172  43.219  -8.037  1.00  0.00     0.122 C 
BRANCH  32  33
HETATM   33  N3  UNL     1      34.439  42.511  -7.969  1.00  0.00    -0.365 N 
HETATM   34  C17 UNL     1      34.762  41.744  -6.787  1.00  0.00     0.181 C 
HETATM   35  N4  UNL     1      34.493  42.330  -5.657  1.00  0.00    -0.374 N 
HETATM   36  N5  UNL     1      35.325  40.464  -6.846  1.00  0.00    -0.064 NA
ATOM     37  H42 UNL     1      34.083  43.263  -5.613  1.00  0.00     0.158 HD
ATOM     38  H41 UNL     1      34.721  41.788  -4.823  1.00  0.00     0.158 HD
ATOM     39  H3  UNL     1      35.097  42.556  -8.748  1.00  0.00     0.162 HD
ENDBRANCH  32  33
ENDBRANCH  31  32
ENDBRANCH  30  31
ENDBRANCH  29  30
ENDBRANCH  21  22
ENDBRANCH   1  21
TORSDOF 12
ENDMDL
MODEL 3
REMARK VINA RESULT: -7.670529463      5.437      9.269
REMARK  12 active torsions:
REMARK  status: ('A' for Active; 'I' for Inactive)
REMARK    1  A    between atoms: C2_2  and  C3_3 
REMARK    2  A    between atoms: C3_3  and  C4_4 
REMARK    3  A    between atoms: C4_4  and  N1_5 
REMARK    4  A    between atoms: C4_4  and  C6_11 
REMARK    5  A    between atoms: N1_5  and  S1_7 
REMARK    6  A    between atoms: C6_11  and  O3_12 
REMARK    7  A    between atoms: C6_11  and  C7_14 
REMARK    8  A    between atoms: C7_14  and  N2_15 
REMARK    9  A    between atoms: C13_21  and  C14_22 
REMARK   10  A    between atoms: C14_22  and  C15_23 
REMARK   11  A    between atoms: C15_23  and  C16_24 
REMARK   12  A    between atoms: C16_24  and  N3_25 
REMARK       I    between atoms: N3_25  and  C17_27 
ROOT
HETATM    1  C6  UNL     1      32.375  39.598 -10.413  1.00  0.00     0.170 C 
ENDROOT
BRANCH   1   2
HETATM    2  C4  UNL     1      32.350  38.101 -10.686  1.00  0.00     0.135 C 
BRANCH   2   3
HETATM    3  C3  UNL     1      31.980  37.310  -9.433  1.00  0.00     0.000 C 
HETATM    4  C19 UNL     1      30.718  37.887  -8.763  1.00  0.00     0.015 C 
HETATM    5  C20 UNL     1      29.483  37.701  -9.539  1.00  0.00     0.001 C 
HETATM    6  C21 UNL     1      28.708  36.457  -9.208  1.00  0.00     0.000 C 
HETATM    7  C22 UNL     1      29.047  35.751  -7.959  1.00  0.00     0.004 C 
HETATM    8  C23 UNL     1      30.313  34.972  -7.913  1.00  0.00     0.027 C 
HETATM    9  C24 UNL     1      31.133  34.856  -9.113  1.00  0.00    -0.030 C 
HETATM   10  C25 UNL     1      31.802  35.899  -9.832  1.00  0.00    -0.019 C 
BRANCH   3  11
HETATM   11  C2  UNL     1      33.001  37.412  -8.325  1.00  0.00     0.011 C 
HETATM   12  C1  UNL     1      32.558  37.904  -7.017  1.00  0.00     0.006 C 
ENDBRANCH   3  11
ENDBRANCH   2   3
BRANCH   2  13
HETATM   13  N1  UNL     1      33.449  37.630 -11.416  1.00  0.00    -0.311 N 
ATOM     14  H1  UNL     1      34.301  37.529 -10.863  1.00  0.00     0.172 HD
BRANCH  13  15
HETATM   15  S1  UNL     1      33.620  37.219 -12.956  1.00  0.00     0.223 S 
HETATM   16  C5  UNL     1      32.080  37.086 -13.841  1.00  0.00     0.185 C 
HETATM   17  O1  UNL     1      34.268  35.856 -13.220  1.00  0.00    -0.206 OA
HETATM   18  O2  UNL     1      34.403  38.138 -13.902  1.00  0.00    -0.206 OA
ENDBRANCH  13  15
ENDBRANCH   2  13
ENDBRANCH   1   2
BRANCH   1  19
HETATM   19  O3  UNL     1      33.597  40.111 -10.188  1.00  0.00    -0.392 OA
ATOM     20  H3  UNL     1      33.660  41.053 -10.295  1.00  0.00     0.210 HD
ENDBRANCH   1  19
BRANCH   1  21
HETATM   21  C7  UNL     1      31.630  40.313 -11.567  1.00  0.00     0.306 C 
BRANCH  21  22
HETATM   22  N2  UNL     1      32.426  41.228 -12.307  1.00  0.00     0.096 N 
HETATM   23  C8  UNL     1      32.413  41.049 -13.700  1.00  0.00     0.273 C 
HETATM   24  C9  UNL     1      31.116  41.750 -14.159  1.00  0.00     0.037 C 
HETATM   25  C10 UNL     1      31.020  42.898 -13.206  1.00  0.00     0.021 C 
HETATM   26  C11 UNL     1      31.561  44.126 -13.912  1.00  0.00     0.007 C 
HETATM   27  C18 UNL     1      31.926  42.583 -12.075  1.00  0.00     0.231 C 
HETATM   28  C12 UNL     1      32.967  44.289 -13.446  1.00  0.00     0.007 C 
HETATM   29  C13 UNL     1      33.028  43.594 -12.140  1.00  0.00     0.019 C 
BRANCH  29  30
HETATM   30  C14 UNL     1      32.842  44.580 -11.008  1.00  0.00     0.008 C 
BRANCH  30  31
HETATM   31  C15 UNL     1      32.568  43.888  -9.692  1.00  0.00     0.020 C 
BRANCH  31  32
HETATM   32  C16 UNL     1      33.787  43.215  -9.136  1.00  0.00     0.122 C 
BRANCH  32  33
HETATM   33  N3  UNL     1      33.601  43.013  -7.709  1.00  0.00    -0.365 N 
HETATM   34  C17 UNL     1      34.562  42.226  -6.971  1.00  0.00     0.181 C 
HETATM   35  N4  UNL     1      34.938  41.124  -7.553  1.00  0.00    -0.374 N 
HETATM   36  N5  UNL     1      35.057  42.612  -5.721  1.00  0.00    -0.064 NA
ATOM     37  H42 UNL     1      34.577  40.842  -8.465  1.00  0.00     0.158 HD
ATOM     38  H41 UNL     1      35.615  40.568  -7.032  1.00  0.00     0.158 HD
ATOM     39  H3  UNL     1      32.798  43.424  -7.232  1.00  0.00     0.162 HD
ENDBRANCH  32  33
ENDBRANCH  31  32
ENDBRANCH  30  31
ENDBRANCH  29  30
ENDBRANCH  21  22
ENDBRANCH   1  21
TORSDOF 12
ENDMDL
MODEL 4
REMARK VINA RESULT: -7.618939025      5.465      9.516
REMARK  12 active torsions:
REMARK  status: ('A' for Active; 'I' for Inactive)
REMARK    1  A    between atoms: C2_2  and  C3_3 
REMARK    2  A    between atoms: C3_3  and  C4_4 
REMARK    3  A    between atoms: C4_4  and  N1_5 
REMARK    4  A    between atoms: C4_4  and  C6_11 
REMARK    5  A    between atoms: N1_5  and  S1_7 
REMARK    6  A    between atoms: C6_11  and  O3_12 
REMARK    7  A    between atoms: C6_11  and  C7_14 
REMARK    8  A    between atoms: C7_14  and  N2_15 
REMARK    9  A    between atoms: C13_21  and  C14_22 
REMARK   10  A    between atoms: C14_22  and  C15_23 
REMARK   11  A    between atoms: C15_23  and  C16_24 
REMARK   12  A    between atoms: C16_24  and  N3_25 
REMARK       I    between atoms: N3_25  and  C17_27 
ROOT
HETATM    1  C6  UNL     1      32.340  39.507 -11.916  1.00  0.00     0.170 C 
ENDROOT
BRANCH   1   2
HETATM    2  C4  UNL     1      31.320  38.456 -11.504  1.00  0.00     0.135 C 
BRANCH   2   3
HETATM    3  C3  UNL     1      31.405  38.148 -10.010  1.00  0.00     0.000 C 
HETATM    4  C19 UNL     1      31.950  36.728  -9.766  1.00  0.00     0.015 C 
HETATM    5  C20 UNL     1      33.365  36.553 -10.127  1.00  0.00     0.001 C 
HETATM    6  C21 UNL     1      34.339  36.782  -9.007  1.00  0.00     0.000 C 
HETATM    7  C22 UNL     1      33.806  36.813  -7.632  1.00  0.00     0.004 C 
HETATM    8  C23 UNL     1      33.036  38.010  -7.204  1.00  0.00     0.027 C 
HETATM    9  C24 UNL     1      32.901  39.144  -8.111  1.00  0.00    -0.030 C 
HETATM   10  C25 UNL     1      32.252  39.184  -9.387  1.00  0.00    -0.019 C 
BRANCH   3  11
HETATM   11  C2  UNL     1      30.061  38.092  -9.324  1.00  0.00     0.011 C 
HETATM   12  C1  UNL     1      29.743  36.911  -8.516  1.00  0.00     0.006 C 
ENDBRANCH   3  11
ENDBRANCH   2   3
BRANCH   2  13
HETATM   13  N1  UNL     1      31.250  37.352 -12.363  1.00  0.00    -0.311 N 
ATOM     14  H1  UNL     1      31.516  36.470 -11.925  1.00  0.00     0.172 HD
BRANCH  13  15
HETATM   15  S1  UNL     1      30.832  37.214 -13.904  1.00  0.00     0.223 S 
HETATM   16  C5  UNL     1      29.300  38.029 -14.310  1.00  0.00     0.185 C 
HETATM   17  O1  UNL     1      30.586  35.788 -14.409  1.00  0.00    -0.206 OA
HETATM   18  O2  UNL     1      31.747  37.788 -14.992  1.00  0.00    -0.206 OA
ENDBRANCH  13  15
ENDBRANCH   2  13
ENDBRANCH   1   2
BRANCH   1  19
HETATM   19  O3  UNL     1      33.398  39.032 -12.597  1.00  0.00    -0.392 OA
ATOM     20  H3  UNL     1      33.967  38.456 -12.101  1.00  0.00     0.210 HD
ENDBRANCH   1  19
BRANCH   1  21
HETATM   21  C7  UNL     1      31.597  40.633 -12.676  1.00  0.00     0.306 C 
BRANCH  21  22
HETATM   22  N2  UNL     1      32.392  41.774 -12.968  1.00  0.00     0.096 N 
HETATM   23  C8  UNL     1      32.166  42.360 -14.223  1.00  0.00     0.273 C 
HETATM   24  C9  UNL     1      30.916  43.241 -14.010  1.00  0.00     0.037 C 
HETATM   25  C10 UNL     1      31.096  43.712 -12.602  1.00  0.00     0.021 C 
HETATM   26  C11 UNL     1      31.684  45.109 -12.657  1.00  0.00     0.007 C 
HETATM   27  C18 UNL     1      32.102  42.815 -11.983  1.00  0.00     0.231 C 
HETATM   28  C12 UNL     1      33.150  44.952 -12.440  1.00  0.00     0.007 C 
HETATM   29  C13 UNL     1      33.302  43.669 -11.717  1.00  0.00     0.019 C 
BRANCH  29  30
HETATM   30  C14 UNL     1      33.398  43.911 -10.227  1.00  0.00     0.008 C 
BRANCH  30  31
HETATM   31  C15 UNL     1      33.384  42.619  -9.440  1.00  0.00     0.020 C 
BRANCH  31  32
HETATM   32  C16 UNL     1      33.671  42.836  -7.985  1.00  0.00     0.122 C 
BRANCH  32  33
HETATM   33  N3  UNL     1      34.923  42.177  -7.653  1.00  0.00    -0.365 N 
HETATM   34  C17 UNL     1      35.120  41.654  -6.319  1.00  0.00     0.181 C 
HETATM   35  N4  UNL     1      34.735  42.440  -5.355  1.00  0.00    -0.374 N 
HETATM   36  N5  UNL     1      35.683  40.397  -6.075  1.00  0.00    -0.064 NA
ATOM     37  H42 UNL     1      34.324  43.357  -5.533  1.00  0.00     0.158 HD
ATOM     38  H41 UNL     1      34.874  42.071  -4.415  1.00  0.00     0.158 HD
ATOM     39  H3  UNL     1      35.658  42.085  -8.355  1.00  0.00     0.162 HD
ENDBRANCH  32  33
ENDBRANCH  31  32
ENDBRANCH  30  31
ENDBRANCH  29  30
ENDBRANCH  21  22
ENDBRANCH   1  21
TORSDOF 12
ENDMDL
MODEL 5
REMARK VINA RESULT: -7.617985178      5.046     10.589
REMARK  12 active torsions:
REMARK  status: ('A' for Active; 'I' for Inactive)
REMARK    1  A    between atoms: C2_2  and  C3_3 
REMARK    2  A    between atoms: C3_3  and  C4_4 
REMARK    3  A    between atoms: C4_4  and  N1_5 
REMARK    4  A    between atoms: C4_4  and  C6_11 
REMARK    5  A    between atoms: N1_5  and  S1_7 
REMARK    6  A    between atoms: C6_11  and  O3_12 
REMARK    7  A    between atoms: C6_11  and  C7_14 
REMARK    8  A    between atoms: C7_14  and  N2_15 
REMARK    9  A    between atoms: C13_21  and  C14_22 
REMARK   10  A    between atoms: C14_22  and  C15_23 
REMARK   11  A    between atoms: C15_23  and  C16_24 
REMARK   12  A    between atoms: C16_24  and  N3_25 
REMARK       I    between atoms: N3_25  and  C17_27 
ROOT
HETATM    1  C6  UNL     1      31.228  40.548 -10.817  1.00  0.00     0.170 C 
ENDROOT
BRANCH   1   2
HETATM    2  C4  UNL     1      31.016  41.334 -12.103  1.00  0.00     0.135 C 
BRANCH   2   3
HETATM    3  C3  UNL     1      32.011  42.487 -12.225  1.00  0.00     0.000 C 
HETATM    4  C19 UNL     1      32.794  42.407 -13.550  1.00  0.00     0.015 C 
HETATM    5  C20 UNL     1      31.981  42.664 -14.748  1.00  0.00     0.001 C 
HETATM    6  C21 UNL     1      31.962  44.094 -15.207  1.00  0.00     0.000 C 
HETATM    7  C22 UNL     1      32.986  45.003 -14.657  1.00  0.00     0.004 C 
HETATM    8  C23 UNL     1      32.840  45.456 -13.249  1.00  0.00     0.027 C 
HETATM    9  C24 UNL     1      31.663  45.065 -12.483  1.00  0.00    -0.030 C 
HETATM   10  C25 UNL     1      31.252  43.747 -12.101  1.00  0.00    -0.019 C 
BRANCH   3  11
HETATM   11  C2  UNL     1      33.120  42.444 -11.200  1.00  0.00     0.011 C 
HETATM   12  C1  UNL     1      33.104  43.434 -10.119  1.00  0.00     0.006 C 
ENDBRANCH   3  11
ENDBRANCH   2   3
BRANCH   2  13
HETATM   13  N1  UNL     1      29.677  41.638 -12.378  1.00  0.00    -0.311 N 
ATOM     14  H1  UNL     1      29.297  42.392 -11.806  1.00  0.00     0.172 HD
BRANCH  13  15
HETATM   15  S1  UNL     1      28.629  41.025 -13.425  1.00  0.00     0.223 S 
HETATM   16  C5  UNL     1      29.326  39.787 -14.500  1.00  0.00     0.185 C 
HETATM   17  O1  UNL     1      28.016  42.014 -14.421  1.00  0.00    -0.206 OA
HETATM   18  O2  UNL     1      27.393  40.278 -12.909  1.00  0.00    -0.206 OA
ENDBRANCH  13  15
ENDBRANCH   2  13
ENDBRANCH   1   2
BRANCH   1  19
HETATM   19  O3  UNL     1      30.367  40.840  -9.827  1.00  0.00    -0.392 OA
ATOM     20  H3  UNL     1      29.533  40.388  -9.877  1.00  0.00     0.210 HD
ENDBRANCH   1  19
BRANCH   1  21
HETATM   21  C7  UNL     1      31.244  39.040 -11.169  1.00  0.00     0.306 C 
BRANCH  21  22
HETATM   22  N2  UNL     1      32.060  38.244 -10.321  1.00  0.00     0.096 N 
HETATM   23  C8  UNL     1      32.198  36.901 -10.705  1.00  0.00     0.273 C 
HETATM   24  C9  UNL     1      33.294  36.929 -11.792  1.00  0.00     0.037 C 
HETATM   25  C10 UNL     1      34.191  38.024 -11.311  1.00  0.00     0.021 C 
HETATM   26  C11 UNL     1      35.361  37.377 -10.595  1.00  0.00     0.007 C 
HETATM   27  C18 UNL     1      33.414  38.798 -10.313  1.00  0.00     0.231 C 
HETATM   28  C12 UNL     1      35.048  37.446  -9.140  1.00  0.00     0.007 C 
HETATM   29  C13 UNL     1      34.094  38.570  -9.000  1.00  0.00     0.019 C 
BRANCH  29  30
HETATM   30  C14 UNL     1      34.823  39.836  -8.610  1.00  0.00     0.008 C 
BRANCH  30  31
HETATM   31  C15 UNL     1      34.079  40.617  -7.549  1.00  0.00     0.020 C 
BRANCH  31  32
HETATM   32  C16 UNL     1      34.750  40.541  -6.211  1.00  0.00     0.122 C 
BRANCH  32  33
HETATM   33  N3  UNL     1      35.477  41.778  -5.982  1.00  0.00    -0.365 N 
HETATM   34  C17 UNL     1      36.050  42.036  -4.680  1.00  0.00     0.181 C 
HETATM   35  N4  UNL     1      35.279  41.754  -3.670  1.00  0.00    -0.374 N 
HETATM   36  N5  UNL     1      37.340  42.551  -4.509  1.00  0.00    -0.064 NA
ATOM     37  H42 UNL     1      34.338  41.378  -3.795  1.00  0.00     0.158 HD
ATOM     38  H41 UNL     1      35.683  41.936  -2.753  1.00  0.00     0.158 HD
ATOM     39  H3  UNL     1      35.581  42.460  -6.734  1.00  0.00     0.162 HD
ENDBRANCH  32  33
ENDBRANCH  31  32
ENDBRANCH  30  31
ENDBRANCH  29  30
ENDBRANCH  21  22
ENDBRANCH   1  21
TORSDOF 12
ENDMDL
