MODEL 1
REMARK VINA RESULT: -9.682714665      0.000      0.000
REMARK  10 active torsions:
REMARK  status: ('A' for Active; 'I' for Inactive)
REMARK    1  A    between atoms: C6_9  and  N3_10 
REMARK    2  A    between atoms: C7_13  and  N5_14 
REMARK    3  A    between atoms: C8_19  and  N7_20 
REMARK    4  A    between atoms: N8_23  and  C9_24 
REMARK    5  A    between atoms: C9_24  and  C10_25 
REMARK    6  A    between atoms: C10_25  and  C11_26 
REMARK    7  A    between atoms: C11_26  and  C12_27 
REMARK    8  A    between atoms: C12_27  and  O1_28 
REMARK    9  A    between atoms: C12_27  and  C13_30 
REMARK       I    between atoms: C13_30  and  N9_32 
REMARK   10  A    between atoms: N9_32  and  C14_34 
ROOT
HETATM    1  C1  UNL     1      32.861  28.048  15.844  1.00  0.00     0.157 C 
HETATM    2  N1  UNL     1      34.325  28.091  15.954  1.00  0.00    -0.344 N 
HETATM    3  C2  UNL     1      35.132  29.115  15.626  1.00  0.00     0.184 A 
HETATM    4  N2  UNL     1      36.410  28.773  15.870  1.00  0.00    -0.336 N 
ATOM      5  H2  UNL     1      37.224  29.368  15.709  1.00  0.00     0.168 HD
HETATM    6  C3  UNL     1      36.442  27.510  16.364  1.00  0.00     0.137 A 
HETATM    7  C4  UNL     1      35.124  27.102  16.408  1.00  0.00     0.083 A 
HETATM    8  C5  UNL     1      35.127  25.816  16.909  1.00  0.00     0.085 A 
HETATM    9  C6  UNL     1      36.431  25.449  17.164  1.00  0.00     0.152 A 
HETATM   10  N8  UNL     1      37.202  26.497  16.824  1.00  0.00    -0.315 N 
ENDROOT
BRANCH  10  11
HETATM   11  C9  UNL     1      38.648  26.503  16.946  1.00  0.00     0.132 C 
BRANCH  11  12
HETATM   12  C10 UNL     1      39.350  26.023  15.720  1.00  0.00     0.023 C 
BRANCH  12  13
HETATM   13  C11 UNL     1      40.828  26.296  15.752  1.00  0.00     0.043 C 
BRANCH  13  14
HETATM   14  C12 UNL     1      41.602  24.990  15.918  1.00  0.00     0.211 C 
BRANCH  14  15
HETATM   15  O1  UNL     1      40.787  23.908  15.673  1.00  0.00    -0.386 OA
ATOM     16  H1  UNL     1      40.661  23.398  16.464  1.00  0.00     0.210 HD
ENDBRANCH  14  15
BRANCH  14  17
HETATM   17  C13 UNL     1      42.189  24.953  17.272  1.00  0.00     0.264 C 
HETATM   18  O2  UNL     1      42.959  24.020  17.613  1.00  0.00    -0.270 OA
HETATM   19  N9  UNL     1      41.913  25.961  18.234  1.00  0.00    -0.156 N 
ATOM     20  H9  UNL     1      41.017  25.989  18.720  1.00  0.00     0.187 HD
BRANCH  19  21
HETATM   21  C14 UNL     1      42.829  26.841  18.478  1.00  0.00     0.704 A 
HETATM   22  N10 UNL     1      44.114  26.648  18.827  1.00  0.00    -0.129 N 
HETATM   23  N11 UNL     1      44.636  27.850  18.963  1.00  0.00    -0.256 N 
ATOM     24  H10 UNL     1      44.587  25.754  18.959  1.00  0.00     0.205 HD
HETATM   25  C15 UNL     1      43.729  28.810  18.712  1.00  0.00     0.212 A 
ATOM     26  H11 UNL     1      45.606  28.029  19.225  1.00  0.00     0.190 HD
HETATM   27  N12 UNL     1      42.585  28.174  18.406  1.00  0.00    -0.148 N 
HETATM   28  N13 UNL     1      43.507  30.231  18.646  1.00  0.00    -0.359 N 
HETATM   29  C16 UNL     1      41.546  29.160  18.121  1.00  0.00     0.170 C 
HETATM   30  C17 UNL     1      42.075  30.389  18.835  1.00  0.00     0.143 C 
ATOM     31  H13 UNL     1      44.201  30.965  18.500  1.00  0.00     0.162 HD
ENDBRANCH  19  21
ENDBRANCH  14  17
ENDBRANCH  13  14
ENDBRANCH  12  13
ENDBRANCH  11  12
ENDBRANCH  10  11
BRANCH   9  32
HETATM   32  N3  UNL     1      36.900  24.192  17.694  1.00  0.00    -0.055 N 
HETATM   33  N4  UNL     1      36.820  23.036  17.071  1.00  0.00    -0.109 N 
HETATM   34  C7  UNL     1      37.352  22.103  17.866  1.00  0.00     0.706 A 
ATOM     35  H4  UNL     1      36.421  22.880  16.146  1.00  0.00     0.207 HD
HETATM   36  N6  UNL     1      37.771  22.680  18.998  1.00  0.00    -0.020 N 
HETATM   37  C8  UNL     1      37.486  23.973  18.880  1.00  0.00     0.714 A 
ATOM     38  H6  UNL     1      38.220  22.221  19.791  1.00  0.00     0.203 HD
BRANCH  34  39
HETATM   39  N5  UNL     1      37.452  20.856  17.596  1.00  0.00    -0.233 N 
ATOM     40  H52 UNL     1      36.731  20.157  17.782  1.00  0.00     0.174 HD
ATOM     41  H51 UNL     1      38.256  20.399  17.166  1.00  0.00     0.174 HD
ENDBRANCH  34  39
BRANCH  37  42
HETATM   42  N7  UNL     1      37.746  24.875  19.794  1.00  0.00    -0.232 N 
ATOM     43  H72 UNL     1      38.685  25.146  20.085  1.00  0.00     0.174 HD
ATOM     44  H71 UNL     1      37.059  25.411  20.324  1.00  0.00     0.174 HD
ENDBRANCH  37  42
ENDBRANCH   9  32
TORSDOF 10
ENDMDL
MODEL 2
REMARK VINA RESULT: -9.283150322      1.584      4.391
REMARK  10 active torsions:
REMARK  status: ('A' for Active; 'I' for Inactive)
REMARK    1  A    between atoms: C6_9  and  N3_10 
REMARK    2  A    between atoms: C7_13  and  N5_14 
REMARK    3  A    between atoms: C8_19  and  N7_20 
REMARK    4  A    between atoms: N8_23  and  C9_24 
REMARK    5  A    between atoms: C9_24  and  C10_25 
REMARK    6  A    between atoms: C10_25  and  C11_26 
REMARK    7  A    between atoms: C11_26  and  C12_27 
REMARK    8  A    between atoms: C12_27  and  O1_28 
REMARK    9  A    between atoms: C12_27  and  C13_30 
REMARK       I    between atoms: C13_30  and  N9_32 
REMARK   10  A    between atoms: N9_32  and  C14_34 
ROOT
HETATM    1  C1  UNL     1      37.438  20.173  18.423  1.00  0.00     0.157 C 
HETATM    2  N1  UNL     1      38.213  21.148  17.644  1.00  0.00    -0.344 N 
HETATM    3  C2  UNL     1      39.352  20.923  16.966  1.00  0.00     0.184 A 
HETATM    4  N2  UNL     1      39.757  22.064  16.381  1.00  0.00    -0.336 N 
ATOM      5  H2  UNL     1      40.594  22.171  15.807  1.00  0.00     0.168 HD
HETATM    6  C3  UNL     1      38.874  23.050  16.678  1.00  0.00     0.137 A 
HETATM    7  C4  UNL     1      37.915  22.453  17.471  1.00  0.00     0.083 A 
HETATM    8  C5  UNL     1      37.000  23.437  17.789  1.00  0.00     0.085 A 
HETATM    9  C6  UNL     1      37.401  24.615  17.197  1.00  0.00     0.152 A 
HETATM   10  N8  UNL     1      38.538  24.347  16.532  1.00  0.00    -0.315 N 
ENDROOT
BRANCH  10  11
HETATM   11  C9  UNL     1      39.278  25.338  15.772  1.00  0.00     0.132 C 
BRANCH  11  12
HETATM   12  C10 UNL     1      40.592  24.842  15.271  1.00  0.00     0.023 C 
BRANCH  12  13
HETATM   13  C11 UNL     1      41.736  25.741  15.653  1.00  0.00     0.043 C 
BRANCH  13  14
HETATM   14  C12 UNL     1      42.417  25.219  16.916  1.00  0.00     0.211 C 
BRANCH  14  15
HETATM   15  O1  UNL     1      42.191  23.871  17.069  1.00  0.00    -0.386 OA
ATOM     16  H1  UNL     1      41.537  23.715  17.741  1.00  0.00     0.210 HD
ENDBRANCH  14  15
BRANCH  14  17
HETATM   17  C13 UNL     1      41.938  26.002  18.073  1.00  0.00     0.264 C 
HETATM   18  O2  UNL     1      41.992  25.527  19.236  1.00  0.00    -0.270 OA
HETATM   19  N9  UNL     1      41.405  27.309  17.922  1.00  0.00    -0.156 N 
ATOM     20  H9  UNL     1      40.466  27.451  17.549  1.00  0.00     0.187 HD
BRANCH  19  21
HETATM   21  C14 UNL     1      42.141  28.315  18.269  1.00  0.00     0.704 A 
HETATM   22  N10 UNL     1      43.415  28.319  18.700  1.00  0.00    -0.129 N 
HETATM   23  N11 UNL     1      43.717  29.581  18.926  1.00  0.00    -0.256 N 
ATOM     24  H10 UNL     1      44.024  27.510  18.826  1.00  0.00     0.205 HD
HETATM   25  C15 UNL     1      42.678  30.390  18.653  1.00  0.00     0.212 A 
ATOM     26  H11 UNL     1      44.624  29.903  19.264  1.00  0.00     0.190 HD
HETATM   27  N12 UNL     1      41.680  29.590  18.238  1.00  0.00    -0.148 N 
HETATM   28  N13 UNL     1      42.223  31.756  18.634  1.00  0.00    -0.359 N 
HETATM   29  C16 UNL     1      40.509  30.405  17.923  1.00  0.00     0.170 C 
HETATM   30  C17 UNL     1      40.777  31.663  18.727  1.00  0.00     0.143 C 
ATOM     31  H13 UNL     1      42.791  32.601  18.570  1.00  0.00     0.162 HD
ENDBRANCH  19  21
ENDBRANCH  14  17
ENDBRANCH  13  14
ENDBRANCH  12  13
ENDBRANCH  11  12
ENDBRANCH  10  11
BRANCH   9  32
HETATM   32  N3  UNL     1      36.744  25.898  17.264  1.00  0.00    -0.055 N 
HETATM   33  N4  UNL     1      37.239  26.967  17.847  1.00  0.00    -0.109 N 
HETATM   34  C7  UNL     1      36.354  27.959  17.708  1.00  0.00     0.706 A 
ATOM     35  H4  UNL     1      38.140  27.029  18.321  1.00  0.00     0.207 HD
HETATM   36  N6  UNL     1      35.293  27.506  17.030  1.00  0.00    -0.020 N 
HETATM   37  C8  UNL     1      35.546  26.229  16.761  1.00  0.00     0.714 A 
ATOM     38  H6  UNL     1      34.459  28.033  16.772  1.00  0.00     0.203 HD
BRANCH  34  39
HETATM   39  N5  UNL     1      36.490  29.153  18.148  1.00  0.00    -0.233 N 
ATOM     40  H52 UNL     1      36.280  29.454  19.100  1.00  0.00     0.174 HD
ATOM     41  H51 UNL     1      36.821  29.954  17.610  1.00  0.00     0.174 HD
ENDBRANCH  34  39
BRANCH  37  42
HETATM   42  N7  UNL     1      34.735  25.436  16.104  1.00  0.00    -0.232 N 
ATOM     43  H72 UNL     1      34.679  25.383  15.087  1.00  0.00     0.174 HD
ATOM     44  H71 UNL     1      34.067  24.784  16.514  1.00  0.00     0.174 HD
ENDBRANCH  37  42
ENDBRANCH   9  32
TORSDOF 10
ENDMDL
MODEL 3
REMARK VINA RESULT: -9.276641409      2.412      5.039
REMARK  10 active torsions:
REMARK  status: ('A' for Active; 'I' for Inactive)
REMARK    1  A    between atoms: C6_9  and  N3_10 
REMARK    2  A    between atoms: C7_13  and  N5_14 
REMARK    3  A    between atoms: C8_19  and  N7_20 
REMARK    4  A    between atoms: N8_23  and  C9_24 
REMARK    5  A    between atoms: C9_24  and  C10_25 
REMARK    6  A    between atoms: C10_25  and  C11_26 
REMARK    7  A    between atoms: C11_26  and  C12_27 
REMARK    8  A    between atoms: C12_27  and  O1_28 
REMARK    9  A    between atoms: C12_27  and  C13_30 
REMARK       I    between atoms: C13_30  and  N9_32 
REMARK   10  A    between atoms: N9_32  and  C14_34 
ROOT
HETATM    1  C1  UNL     1      38.132  23.025  18.706  1.00  0.00     0.157 C 
HETATM    2  N1  UNL     1      38.351  24.083  17.711  1.00  0.00    -0.344 N 
HETATM    3  C2  UNL     1      39.511  24.401  17.109  1.00  0.00     0.184 A 
HETATM    4  N2  UNL     1      39.308  25.425  16.260  1.00  0.00    -0.336 N 
ATOM      5  H2  UNL     1      40.022  25.862  15.677  1.00  0.00     0.168 HD
HETATM    6  C3  UNL     1      38.000  25.783  16.305  1.00  0.00     0.137 A 
HETATM    7  C4  UNL     1      37.420  24.929  17.221  1.00  0.00     0.083 A 
HETATM    8  C5  UNL     1      36.084  25.272  17.287  1.00  0.00     0.085 A 
HETATM    9  C6  UNL     1      35.859  26.320  16.423  1.00  0.00     0.152 A 
HETATM   10  N8  UNL     1      37.038  26.606  15.845  1.00  0.00    -0.315 N 
ENDROOT
BRANCH  10  11
HETATM   11  C9  UNL     1      37.217  27.661  14.863  1.00  0.00     0.132 C 
BRANCH  11  12
HETATM   12  C10 UNL     1      37.471  29.000  15.471  1.00  0.00     0.023 C 
BRANCH  12  13
HETATM   13  C11 UNL     1      38.894  29.170  15.928  1.00  0.00     0.043 C 
BRANCH  13  14
HETATM   14  C12 UNL     1      38.962  29.160  17.454  1.00  0.00     0.211 C 
BRANCH  14  15
HETATM   15  O1  UNL     1      37.724  29.420  17.997  1.00  0.00    -0.386 OA
ATOM     16  H1  UNL     1      37.060  28.873  17.595  1.00  0.00     0.210 HD
ENDBRANCH  14  15
BRANCH  14  17
HETATM   17  C13 UNL     1      39.982  30.133  17.892  1.00  0.00     0.264 C 
HETATM   18  O2  UNL     1      39.724  30.971  18.793  1.00  0.00    -0.270 OA
HETATM   19  N9  UNL     1      41.281  30.163  17.320  1.00  0.00    -0.156 N 
ATOM     20  H9  UNL     1      41.435  30.552  16.390  1.00  0.00     0.187 HD
BRANCH  19  21
HETATM   21  C14 UNL     1      42.264  29.681  18.010  1.00  0.00     0.704 A 
HETATM   22  N10 UNL     1      43.124  30.327  18.819  1.00  0.00    -0.129 N 
HETATM   23  N11 UNL     1      43.939  29.406  19.290  1.00  0.00    -0.256 N 
ATOM     24  H10 UNL     1      43.141  31.326  19.024  1.00  0.00     0.205 HD
HETATM   25  C15 UNL     1      43.631  28.188  18.812  1.00  0.00     0.212 A 
ATOM     26  H11 UNL     1      44.706  29.594  19.936  1.00  0.00     0.190 HD
HETATM   27  N12 UNL     1      42.572  28.360  18.001  1.00  0.00    -0.148 N 
HETATM   28  N13 UNL     1      43.988  26.793  18.827  1.00  0.00    -0.359 N 
HETATM   29  C16 UNL     1      42.179  27.070  17.440  1.00  0.00     0.170 C 
HETATM   30  C17 UNL     1      43.456  26.264  17.583  1.00  0.00     0.143 C 
ATOM     31  H13 UNL     1      44.500  26.288  19.551  1.00  0.00     0.162 HD
ENDBRANCH  19  21
ENDBRANCH  14  17
ENDBRANCH  13  14
ENDBRANCH  12  13
ENDBRANCH  11  12
ENDBRANCH  10  11
BRANCH   9  32
HETATM   32  N3  UNL     1      34.609  26.996  16.171  1.00  0.00    -0.055 N 
HETATM   33  N4  UNL     1      34.152  28.015  16.866  1.00  0.00    -0.109 N 
HETATM   34  C7  UNL     1      32.974  28.372  16.345  1.00  0.00     0.706 A 
ATOM     35  H4  UNL     1      34.614  28.455  17.660  1.00  0.00     0.207 HD
HETATM   36  N6  UNL     1      32.690  27.569  15.313  1.00  0.00    -0.020 N 
HETATM   37  C8  UNL     1      33.709  26.721  15.216  1.00  0.00     0.714 A 
ATOM     38  H6  UNL     1      31.860  27.600  14.721  1.00  0.00     0.203 HD
BRANCH  34  39
HETATM   39  N5  UNL     1      32.230  29.328  16.758  1.00  0.00    -0.233 N 
ATOM     40  H52 UNL     1      31.262  29.226  17.065  1.00  0.00     0.174 HD
ATOM     41  H51 UNL     1      32.502  30.308  16.833  1.00  0.00     0.174 HD
ENDBRANCH  34  39
BRANCH  37  42
HETATM   42  N7  UNL     1      33.799  25.772  14.317  1.00  0.00    -0.232 N 
ATOM     43  H72 UNL     1      34.626  25.594  13.747  1.00  0.00     0.174 HD
ATOM     44  H71 UNL     1      33.070  25.100  14.074  1.00  0.00     0.174 HD
ENDBRANCH  37  42
ENDBRANCH   9  32
TORSDOF 10
ENDMDL
MODEL 4
REMARK VINA RESULT: -9.186101180      2.778      7.875
REMARK  10 active torsions:
REMARK  status: ('A' for Active; 'I' for Inactive)
REMARK    1  A    between atoms: C6_9  and  N3_10 
REMARK    2  A    between atoms: C7_13  and  N5_14 
REMARK    3  A    between atoms: C8_19  and  N7_20 
REMARK    4  A    between atoms: N8_23  and  C9_24 
REMARK    5  A    between atoms: C9_24  and  C10_25 
REMARK    6  A    between atoms: C10_25  and  C11_26 
REMARK    7  A    between atoms: C11_26  and  C12_27 
REMARK    8  A    between atoms: C12_27  and  O1_28 
REMARK    9  A    between atoms: C12_27  and  C13_30 
REMARK       I    between atoms: C13_30  and  N9_32 
REMARK   10  A    between atoms: N9_32  and  C14_34 
ROOT
HETATM    1  C1  UNL     1      43.035  29.846  18.810  1.00  0.00     0.157 C 
HETATM    2  N1  UNL     1      42.390  28.686  18.181  1.00  0.00    -0.344 N 
HETATM    3  C2  UNL     1      42.864  27.429  18.119  1.00  0.00     0.184 A 
HETATM    4  N2  UNL     1      41.986  26.652  17.462  1.00  0.00    -0.336 N 
ATOM      5  H2  UNL     1      42.100  25.655  17.274  1.00  0.00     0.168 HD
HETATM    6  C3  UNL     1      40.921  27.406  17.088  1.00  0.00     0.137 A 
HETATM    7  C4  UNL     1      41.197  28.678  17.549  1.00  0.00     0.083 A 
HETATM    8  C5  UNL     1      40.127  29.469  17.181  1.00  0.00     0.085 A 
HETATM    9  C6  UNL     1      39.216  28.687  16.506  1.00  0.00     0.152 A 
HETATM   10  N8  UNL     1      39.727  27.444  16.466  1.00  0.00    -0.315 N 
ENDROOT
BRANCH  10  11
HETATM   11  C9  UNL     1      39.059  26.320  15.834  1.00  0.00     0.132 C 
BRANCH  11  12
HETATM   12  C10 UNL     1      39.179  25.049  16.604  1.00  0.00     0.023 C 
BRANCH  12  13
HETATM   13  C11 UNL     1      37.867  24.594  17.183  1.00  0.00     0.043 C 
BRANCH  13  14
HETATM   14  C12 UNL     1      36.962  25.796  17.445  1.00  0.00     0.211 C 
BRANCH  14  15
HETATM   15  O1  UNL     1      37.090  26.227  18.745  1.00  0.00    -0.386 OA
ATOM     16  H1  UNL     1      36.595  27.026  18.884  1.00  0.00     0.210 HD
ENDBRANCH  14  15
BRANCH  14  17
HETATM   17  C13 UNL     1      35.572  25.427  17.111  1.00  0.00     0.264 C 
HETATM   18  O2  UNL     1      34.936  24.611  17.826  1.00  0.00    -0.270 OA
HETATM   19  N9  UNL     1      34.904  25.971  15.982  1.00  0.00    -0.156 N 
ATOM     20  H9  UNL     1      35.123  25.649  15.039  1.00  0.00     0.187 HD
BRANCH  19  21
HETATM   21  C14 UNL     1      34.012  26.885  16.182  1.00  0.00     0.704 A 
HETATM   22  N10 UNL     1      33.601  27.424  17.344  1.00  0.00    -0.129 N 
HETATM   23  N11 UNL     1      32.679  28.311  17.027  1.00  0.00    -0.256 N 
ATOM     24  H10 UNL     1      33.934  27.194  18.280  1.00  0.00     0.205 HD
HETATM   25  C15 UNL     1      32.484  28.360  15.698  1.00  0.00     0.212 A 
ATOM     26  H11 UNL     1      32.178  28.886  17.704  1.00  0.00     0.190 HD
HETATM   27  N12 UNL     1      33.326  27.459  15.162  1.00  0.00    -0.148 N 
HETATM   28  N13 UNL     1      31.737  28.990  14.640  1.00  0.00    -0.359 N 
HETATM   29  C16 UNL     1      33.168  27.455  13.709  1.00  0.00     0.170 C 
HETATM   30  C17 UNL     1      31.778  28.038  13.544  1.00  0.00     0.143 C 
ATOM     31  H13 UNL     1      31.280  29.902  14.657  1.00  0.00     0.162 HD
ENDBRANCH  19  21
ENDBRANCH  14  17
ENDBRANCH  13  14
ENDBRANCH  12  13
ENDBRANCH  11  12
ENDBRANCH  10  11
BRANCH   9  32
HETATM   32  N3  UNL     1      37.954  29.099  15.942  1.00  0.00    -0.055 N 
HETATM   33  N4  UNL     1      37.742  29.340  14.667  1.00  0.00    -0.109 N 
HETATM   34  C7  UNL     1      36.462  29.697  14.522  1.00  0.00     0.706 A 
ATOM     35  H4  UNL     1      38.433  29.267  13.920  1.00  0.00     0.207 HD
HETATM   36  N6  UNL     1      35.866  29.679  15.720  1.00  0.00    -0.020 N 
HETATM   37  C8  UNL     1      36.799  29.308  16.590  1.00  0.00     0.714 A 
ATOM     38  H6  UNL     1      34.892  29.905  15.923  1.00  0.00     0.203 HD
BRANCH  34  39
HETATM   39  N5  UNL     1      35.890  30.007  13.420  1.00  0.00    -0.233 N 
ATOM     40  H52 UNL     1      35.720  29.363  12.647  1.00  0.00     0.174 HD
ATOM     41  H51 UNL     1      35.532  30.929  13.171  1.00  0.00     0.174 HD
ENDBRANCH  34  39
BRANCH  37  42
HETATM   42  N7  UNL     1      36.598  29.174  17.878  1.00  0.00    -0.232 N 
ATOM     43  H72 UNL     1      36.053  28.423  18.301  1.00  0.00     0.174 HD
ATOM     44  H71 UNL     1      36.951  29.790  18.611  1.00  0.00     0.174 HD
ENDBRANCH  37  42
ENDBRANCH   9  32
TORSDOF 10
ENDMDL
MODEL 5
REMARK VINA RESULT: -9.186048009      2.657      8.345
REMARK  10 active torsions:
REMARK  status: ('A' for Active; 'I' for Inactive)
REMARK    1  A    between atoms: C6_9  and  N3_10 
REMARK    2  A    between atoms: C7_13  and  N5_14 
REMARK    3  A    between atoms: C8_19  and  N7_20 
REMARK    4  A    between atoms: N8_23  and  C9_24 
REMARK    5  A    between atoms: C9_24  and  C10_25 
REMARK    6  A    between atoms: C10_25  and  C11_26 
REMARK    7  A    between atoms: C11_26  and  C12_27 
REMARK    8  A    between atoms: C12_27  and  O1_28 
REMARK    9  A    between atoms: C12_27  and  C13_30 
REMARK       I    between atoms: C13_30  and  N9_32 
REMARK   10  A    between atoms: N9_32  and  C14_34 
ROOT
HETATM    1  C1  UNL     1      43.895  26.458  18.800  1.00  0.00     0.157 C 
HETATM    2  N1  UNL     1      42.661  26.892  18.134  1.00  0.00    -0.344 N 
HETATM    3  C2  UNL     1      41.754  26.112  17.520  1.00  0.00     0.184 A 
HETATM    4  N2  UNL     1      40.762  26.878  17.032  1.00  0.00    -0.336 N 
ATOM      5  H2  UNL     1      39.947  26.539  16.521  1.00  0.00     0.168 HD
HETATM    6  C3  UNL     1      41.020  28.177  17.331  1.00  0.00     0.137 A 
HETATM    7  C4  UNL     1      42.215  28.162  18.021  1.00  0.00     0.083 A 
HETATM    8  C5  UNL     1      42.502  29.474  18.338  1.00  0.00     0.085 A 
HETATM    9  C6  UNL     1      41.495  30.274  17.845  1.00  0.00     0.152 A 
HETATM   10  N8  UNL     1      40.613  29.458  17.241  1.00  0.00    -0.315 N 
ENDROOT
BRANCH  10  11
HETATM   11  C9  UNL     1      39.401  29.924  16.591  1.00  0.00     0.132 C 
BRANCH  11  12
HETATM   12  C10 UNL     1      38.158  29.593  17.346  1.00  0.00     0.023 C 
BRANCH  12  13
HETATM   13  C11 UNL     1      37.226  28.703  16.569  1.00  0.00     0.043 C 
BRANCH  13  14
HETATM   14  C12 UNL     1      36.526  27.725  17.510  1.00  0.00     0.211 C 
BRANCH  14  15
HETATM   15  O1  UNL     1      36.266  28.320  18.724  1.00  0.00    -0.386 OA
ATOM     16  H1  UNL     1      36.932  28.965  18.930  1.00  0.00     0.210 HD
ENDBRANCH  14  15
BRANCH  14  17
HETATM   17  C13 UNL     1      37.362  26.515  17.647  1.00  0.00     0.264 C 
HETATM   18  O2  UNL     1      38.203  26.419  18.576  1.00  0.00    -0.270 OA
HETATM   19  N9  UNL     1      37.250  25.424  16.746  1.00  0.00    -0.156 N 
ATOM     20  H9  UNL     1      37.640  25.480  15.805  1.00  0.00     0.187 HD
BRANCH  19  21
HETATM   21  C14 UNL     1      36.640  24.357  17.150  1.00  0.00     0.704 A 
HETATM   22  N10 UNL     1      35.343  24.196  17.471  1.00  0.00    -0.129 N 
HETATM   23  N11 UNL     1      35.211  22.934  17.823  1.00  0.00    -0.256 N 
ATOM     24  H10 UNL     1      34.612  24.907  17.448  1.00  0.00     0.205 HD
HETATM   25  C15 UNL     1      36.380  22.276  17.737  1.00  0.00     0.212 A 
ATOM     26  H11 UNL     1      34.333  22.509  18.122  1.00  0.00     0.190 HD
HETATM   27  N12 UNL     1      37.286  23.176  17.312  1.00  0.00    -0.148 N 
HETATM   28  N13 UNL     1      37.032  21.006  17.921  1.00  0.00    -0.359 N 
HETATM   29  C16 UNL     1      38.590  22.528  17.196  1.00  0.00     0.170 C 
HETATM   30  C17 UNL     1      38.433  21.337  18.121  1.00  0.00     0.143 C 
ATOM     31  H13 UNL     1      36.606  20.079  17.913  1.00  0.00     0.162 HD
ENDBRANCH  19  21
ENDBRANCH  14  17
ENDBRANCH  13  14
ENDBRANCH  12  13
ENDBRANCH  11  12
ENDBRANCH  10  11
BRANCH   9  32
HETATM   32  N3  UNL     1      41.385  31.709  17.946  1.00  0.00    -0.055 N 
HETATM   33  N4  UNL     1      42.075  32.568  17.228  1.00  0.00    -0.109 N 
HETATM   34  C7  UNL     1      41.709  33.800  17.597  1.00  0.00     0.706 A 
ATOM     35  H4  UNL     1      42.766  32.336  16.515  1.00  0.00     0.207 HD
HETATM   36  N6  UNL     1      40.780  33.711  18.556  1.00  0.00    -0.020 N 
HETATM   37  C8  UNL     1      40.588  32.412  18.763  1.00  0.00     0.714 A 
ATOM     38  H6  UNL     1      40.313  34.483  19.031  1.00  0.00     0.203 HD
BRANCH  34  39
HETATM   39  N5  UNL     1      42.166  34.894  17.115  1.00  0.00    -0.233 N 
ATOM     40  H52 UNL     1      42.529  35.671  17.669  1.00  0.00     0.174 HD
ATOM     41  H51 UNL     1      42.226  35.132  16.125  1.00  0.00     0.174 HD
ENDBRANCH  34  39
BRANCH  37  42
HETATM   42  N7  UNL     1      39.746  31.919  19.638  1.00  0.00    -0.232 N 
ATOM     43  H72 UNL     1      39.831  32.033  20.648  1.00  0.00     0.174 HD
ATOM     44  H71 UNL     1      38.914  31.367  19.428  1.00  0.00     0.174 HD
ENDBRANCH  37  42
ENDBRANCH   9  32
TORSDOF 10
ENDMDL
