MODEL 1
REMARK VINA RESULT: -10.868125322      0.000      0.000
REMARK  13 active torsions:
REMARK  status: ('A' for Active; 'I' for Inactive)
REMARK    1  A    between atoms: O1_2  and  C2_3 
REMARK    2  A    between atoms: C2_3  and  C3_5 
REMARK    3  A    between atoms: C5_7  and  C6_8 
REMARK    4  A    between atoms: C6_8  and  N1_9 
REMARK    5  A    between atoms: C6_8  and  C25_55 
REMARK       I    between atoms: N1_9  and  C7_10 
REMARK    6  A    between atoms: C7_10  and  C8_12 
REMARK    7  A    between atoms: C9_15  and  C10_16 
REMARK    8  A    between atoms: C10_16  and  C11_17 
REMARK    9  A    between atoms: C13_22  and  C14_23 
REMARK   10  A    between atoms: C14_23  and  C15_24 
REMARK   11  A    between atoms: C16_27  and  C17_28 
REMARK       I    between atoms: C17_28  and  N6_30 
REMARK   12  A    between atoms: N6_30  and  C18_32 
REMARK   13  A    between atoms: C21_38  and  N8_39 
ROOT
HETATM    1  C11 UNL     1       2.166 -23.194  14.823  1.00  0.00     0.011 A 
HETATM    2  C12 UNL     1       1.613 -24.427  15.071  1.00  0.00     0.134 A 
HETATM    3  N3  UNL     1       0.745 -24.518  16.053  1.00  0.00    -0.243 N 
HETATM    4  N4  UNL     1       0.006 -25.508  16.611  1.00  0.00    -0.280 N 
ATOM      5  H4  UNL     1       0.017 -26.474  16.287  1.00  0.00     0.189 HD
HETATM    6  C13 UNL     1      -0.728 -25.083  17.621  1.00  0.00     0.105 A 
HETATM    7  N11 UNL     1      -0.453 -23.735  17.728  1.00  0.00    -0.323 N 
ATOM      8  H11 UNL     1      -0.843 -23.080  18.405  1.00  0.00     0.169 HD
HETATM    9  C23 UNL     1       0.434 -23.465  16.757  1.00  0.00     0.171 A 
HETATM   10  S1  UNL     1       1.421 -22.242  16.006  1.00  0.00    -0.055 SA
ENDROOT
BRANCH   6  11
HETATM   11  C14 UNL     1      -1.594 -25.863  18.526  1.00  0.00     0.155 C 
BRANCH  11  12
HETATM   12  C15 UNL     1      -2.231 -25.146  19.629  1.00  0.00     0.102 A 
HETATM   13  N5  UNL     1      -3.061 -24.128  19.603  1.00  0.00    -0.337 N 
HETATM   14  C16 UNL     1      -3.391 -23.704  20.868  1.00  0.00     0.147 A 
ATOM     15  H5  UNL     1      -3.417 -23.703  18.747  1.00  0.00     0.167 HD
HETATM   16  C20 UNL     1      -2.698 -24.538  21.732  1.00  0.00     0.165 A 
HETATM   17  N7  UNL     1      -2.600 -24.609  23.073  1.00  0.00    -0.174 N 
HETATM   18  N10 UNL     1      -2.001 -25.407  20.946  1.00  0.00    -0.234 N 
HETATM   19  C21 UNL     1      -1.829 -25.517  23.695  1.00  0.00     0.681 A 
ATOM     20  H7  UNL     1      -3.131 -23.947  23.640  1.00  0.00     0.186 HD
HETATM   21  N9  UNL     1      -1.143 -26.368  22.941  1.00  0.00    -0.141 N 
HETATM   22  C22 UNL     1      -1.232 -26.309  21.594  1.00  0.00     0.348 A 
ATOM     23  H9  UNL     1      -0.547 -27.069  23.380  1.00  0.00     0.189 HD
HETATM   24  O6  UNL     1      -0.573 -27.129  20.922  1.00  0.00    -0.245 OA
BRANCH  14  25
HETATM   25  C17 UNL     1      -4.198 -22.545  21.170  1.00  0.00     0.274 C 
HETATM   26  O4  UNL     1      -4.183 -22.190  22.418  1.00  0.00    -0.266 OA
HETATM   27  N6  UNL     1      -4.986 -21.781  20.287  1.00  0.00    -0.327 N 
ATOM     28  H6  UNL     1      -5.028 -21.985  19.289  1.00  0.00     0.165 HD
BRANCH  27  29
HETATM   29  C18 UNL     1      -5.753 -20.664  20.890  1.00  0.00     0.247 A 
HETATM   30  C19 UNL     1      -7.232 -20.847  20.983  1.00  0.00     0.224 A 
HETATM   31  O5  UNL     1      -6.707 -20.026  19.993  1.00  0.00    -0.360 OA
ENDBRANCH  27  29
ENDBRANCH  14  25
BRANCH  19  32
HETATM   32  N8  UNL     1      -1.780 -25.542  25.017  1.00  0.00    -0.234 N 
ATOM     33  H82 UNL     1      -1.106 -24.992  25.550  1.00  0.00     0.174 HD
ATOM     34  H81 UNL     1      -2.431 -26.130  25.537  1.00  0.00     0.174 HD
ENDBRANCH  19  32
ENDBRANCH  11  12
ENDBRANCH   6  11
BRANCH   1  35
HETATM   35  C10 UNL     1       3.158 -22.909  13.745  1.00  0.00     0.126 C 
BRANCH  35  36
HETATM   36  C9  UNL     1       3.684 -21.569  13.710  1.00  0.00     0.104 A 
HETATM   37  N2  UNL     1       3.379 -20.625  12.757  1.00  0.00    -0.324 N 
HETATM   38  C8  UNL     1       4.020 -19.497  12.956  1.00  0.00     0.206 A 
ATOM     39  H2  UNL     1       2.730 -20.783  11.986  1.00  0.00     0.169 HD
HETATM   40  N13 UNL     1       4.755 -19.708  14.052  1.00  0.00    -0.277 N 
HETATM   41  N12 UNL     1       4.563 -20.957  14.522  1.00  0.00    -0.282 N 
ATOM     42  H13 UNL     1       5.375 -19.018  14.475  1.00  0.00     0.189 HD
HETATM   43  C24 UNL     1       5.211 -21.437  15.726  1.00  0.00     0.179 C 
BRANCH  38  44
HETATM   44  C7  UNL     1       3.982 -18.192  12.179  1.00  0.00     0.362 C 
HETATM   45  N1  UNL     1       4.540 -17.072  12.718  1.00  0.00    -0.357 NA
HETATM   46  O3  UNL     1       3.405 -18.332  11.064  1.00  0.00    -0.248 OA
BRANCH  45  47
HETATM   47  C6  UNL     1       5.100 -15.932  13.254  1.00  0.00     0.188 C 
BRANCH  47  48
HETATM   48  C5  UNL     1       6.495 -15.488  13.041  1.00  0.00     0.065 C 
HETATM   49  C3  UNL     1       7.473 -16.103  12.172  1.00  0.00     0.017 C 
HETATM   50  C4  UNL     1       8.183 -17.354  12.756  1.00  0.00     0.055 C 
BRANCH  49  51
HETATM   51  C2  UNL     1       7.274 -16.238  10.735  1.00  0.00     0.288 C 
HETATM   52  O2  UNL     1       7.129 -17.400  10.192  1.00  0.00    -0.260 OA
BRANCH  51  53
HETATM   53  O1  UNL     1       7.227 -15.154   9.872  1.00  0.00    -0.323 OA
HETATM   54  C1  UNL     1       5.929 -14.623   9.580  1.00  0.00     0.213 C 
ENDBRANCH  51  53
ENDBRANCH  49  51
ENDBRANCH  47  48
BRANCH  47  55
HETATM   55  C25 UNL     1       4.695 -15.691  14.692  1.00  0.00     0.241 C 
HETATM   56  O7  UNL     1       3.538 -15.401  15.040  1.00  0.00    -0.642 OA
HETATM   57  O8  UNL     1       5.668 -15.797  15.689  1.00  0.00    -0.642 OA
ENDBRANCH  47  55
ENDBRANCH  45  47
ENDBRANCH  38  44
ENDBRANCH  35  36
ENDBRANCH   1  35
TORSDOF 13
ENDMDL
MODEL 2
REMARK VINA RESULT: -10.850735804      1.346      2.266
REMARK  13 active torsions:
REMARK  status: ('A' for Active; 'I' for Inactive)
REMARK    1  A    between atoms: O1_2  and  C2_3 
REMARK    2  A    between atoms: C2_3  and  C3_5 
REMARK    3  A    between atoms: C5_7  and  C6_8 
REMARK    4  A    between atoms: C6_8  and  N1_9 
REMARK    5  A    between atoms: C6_8  and  C25_55 
REMARK       I    between atoms: N1_9  and  C7_10 
REMARK    6  A    between atoms: C7_10  and  C8_12 
REMARK    7  A    between atoms: C9_15  and  C10_16 
REMARK    8  A    between atoms: C10_16  and  C11_17 
REMARK    9  A    between atoms: C13_22  and  C14_23 
REMARK   10  A    between atoms: C14_23  and  C15_24 
REMARK   11  A    between atoms: C16_27  and  C17_28 
REMARK       I    between atoms: C17_28  and  N6_30 
REMARK   12  A    between atoms: N6_30  and  C18_32 
REMARK   13  A    between atoms: C21_38  and  N8_39 
ROOT
HETATM    1  C11 UNL     1       1.602 -22.985  14.220  1.00  0.00     0.011 A 
HETATM    2  C12 UNL     1       1.784 -23.706  15.374  1.00  0.00     0.134 A 
HETATM    3  N3  UNL     1       0.730 -24.292  15.898  1.00  0.00    -0.243 N 
HETATM    4  N4  UNL     1       0.483 -25.057  16.989  1.00  0.00    -0.280 N 
ATOM      5  H4  UNL     1       1.199 -25.337  17.659  1.00  0.00     0.189 HD
HETATM    6  C13 UNL     1      -0.787 -25.398  17.090  1.00  0.00     0.105 A 
HETATM    7  N11 UNL     1      -1.405 -24.823  15.999  1.00  0.00    -0.323 N 
ATOM      8  H11 UNL     1      -2.393 -24.877  15.753  1.00  0.00     0.169 HD
HETATM    9  C23 UNL     1      -0.437 -24.178  15.328  1.00  0.00     0.171 A 
HETATM   10  S1  UNL     1      -0.057 -23.179  13.953  1.00  0.00    -0.055 SA
ENDROOT
BRANCH   6  11
HETATM   11  C14 UNL     1      -1.459 -26.149  18.168  1.00  0.00     0.155 C 
BRANCH  11  12
HETATM   12  C15 UNL     1      -2.070 -25.374  19.246  1.00  0.00     0.102 A 
HETATM   13  N5  UNL     1      -2.818 -24.295  19.187  1.00  0.00    -0.337 N 
HETATM   14  C16 UNL     1      -3.151 -23.835  20.438  1.00  0.00     0.147 A 
ATOM     15  H5  UNL     1      -3.116 -23.854  18.317  1.00  0.00     0.167 HD
HETATM   16  C20 UNL     1      -2.549 -24.709  21.329  1.00  0.00     0.165 A 
HETATM   17  N7  UNL     1      -2.494 -24.774  22.673  1.00  0.00    -0.174 N 
HETATM   18  N10 UNL     1      -1.899 -25.637  20.570  1.00  0.00    -0.234 N 
HETATM   19  C21 UNL     1      -1.813 -25.732  23.325  1.00  0.00     0.681 A 
ATOM     20  H7  UNL     1      -2.989 -24.067  23.218  1.00  0.00     0.186 HD
HETATM   21  N9  UNL     1      -1.174 -26.640  22.598  1.00  0.00    -0.141 N 
HETATM   22  C22 UNL     1      -1.220 -26.589  21.249  1.00  0.00     0.348 A 
ATOM     23  H9  UNL     1      -0.646 -27.380  23.060  1.00  0.00     0.189 HD
HETATM   24  O6  UNL     1      -0.607 -27.465  20.603  1.00  0.00    -0.245 OA
BRANCH  14  25
HETATM   25  C17 UNL     1      -3.874 -22.613  20.707  1.00  0.00     0.274 C 
HETATM   26  O4  UNL     1      -3.721 -22.152  21.911  1.00  0.00    -0.266 OA
HETATM   27  N6  UNL     1      -4.712 -21.891  19.836  1.00  0.00    -0.327 N 
ATOM     28  H6  UNL     1      -4.860 -22.179  18.869  1.00  0.00     0.165 HD
BRANCH  27  29
HETATM   29  C18 UNL     1      -5.368 -20.688  20.403  1.00  0.00     0.247 A 
HETATM   30  C19 UNL     1      -6.821 -20.811  20.723  1.00  0.00     0.224 A 
HETATM   31  O5  UNL     1      -6.430 -20.127  19.579  1.00  0.00    -0.360 OA
ENDBRANCH  27  29
ENDBRANCH  14  25
BRANCH  19  32
HETATM   32  N8  UNL     1      -1.804 -25.746  24.648  1.00  0.00    -0.234 N 
ATOM     33  H82 UNL     1      -2.500 -26.254  25.195  1.00  0.00     0.174 HD
ATOM     34  H81 UNL     1      -1.083 -25.232  25.154  1.00  0.00     0.174 HD
ENDBRANCH  19  32
ENDBRANCH  11  12
ENDBRANCH   6  11
BRANCH   1  35
HETATM   35  C10 UNL     1       2.687 -22.265  13.488  1.00  0.00     0.126 C 
BRANCH  35  36
HETATM   36  C9  UNL     1       3.361 -21.226  14.223  1.00  0.00     0.104 A 
HETATM   37  N2  UNL     1       3.084 -19.883  14.125  1.00  0.00    -0.324 N 
HETATM   38  C8  UNL     1       3.869 -19.160  14.889  1.00  0.00     0.206 A 
ATOM     39  H2  UNL     1       2.355 -19.494  13.528  1.00  0.00     0.169 HD
HETATM   40  N13 UNL     1       4.669 -20.043  15.494  1.00  0.00    -0.277 N 
HETATM   41  N12 UNL     1       4.376 -21.299  15.102  1.00  0.00    -0.282 N 
ATOM     42  H13 UNL     1       5.403 -19.800  16.160  1.00  0.00     0.189 HD
HETATM   43  C24 UNL     1       5.068 -22.456  15.633  1.00  0.00     0.179 C 
BRANCH  38  44
HETATM   44  C7  UNL     1       3.915 -17.657  15.114  1.00  0.00     0.362 C 
HETATM   45  N1  UNL     1       4.574 -16.864  14.224  1.00  0.00    -0.357 NA
HETATM   46  O3  UNL     1       3.292 -17.325  16.161  1.00  0.00    -0.248 OA
BRANCH  45  47
HETATM   47  C6  UNL     1       5.238 -16.051  13.330  1.00  0.00     0.188 C 
BRANCH  47  48
HETATM   48  C5  UNL     1       4.791 -15.760  11.951  1.00  0.00     0.065 C 
HETATM   49  C3  UNL     1       4.366 -16.721  10.959  1.00  0.00     0.017 C 
HETATM   50  C4  UNL     1       5.513 -17.449  10.209  1.00  0.00     0.055 C 
BRANCH  49  51
HETATM   51  C2  UNL     1       3.228 -17.610  11.163  1.00  0.00     0.288 C 
HETATM   52  O2  UNL     1       3.399 -18.879  11.323  1.00  0.00    -0.260 OA
BRANCH  51  53
HETATM   53  O1  UNL     1       1.916 -17.164  11.198  1.00  0.00    -0.323 OA
HETATM   54  C1  UNL     1       1.312 -17.051  12.493  1.00  0.00     0.213 C 
ENDBRANCH  51  53
ENDBRANCH  49  51
ENDBRANCH  47  48
BRANCH  47  55
HETATM   55  C25 UNL     1       6.739 -16.241  13.358  1.00  0.00     0.241 C 
HETATM   56  O7  UNL     1       7.511 -15.727  12.530  1.00  0.00    -0.642 OA
HETATM   57  O8  UNL     1       7.296 -17.035  14.363  1.00  0.00    -0.642 OA
ENDBRANCH  47  55
ENDBRANCH  45  47
ENDBRANCH  38  44
ENDBRANCH  35  36
ENDBRANCH   1  35
TORSDOF 13
ENDMDL
MODEL 3
REMARK VINA RESULT: -10.842883319      1.277      1.838
REMARK  13 active torsions:
REMARK  status: ('A' for Active; 'I' for Inactive)
REMARK    1  A    between atoms: O1_2  and  C2_3 
REMARK    2  A    between atoms: C2_3  and  C3_5 
REMARK    3  A    between atoms: C5_7  and  C6_8 
REMARK    4  A    between atoms: C6_8  and  N1_9 
REMARK    5  A    between atoms: C6_8  and  C25_55 
REMARK       I    between atoms: N1_9  and  C7_10 
REMARK    6  A    between atoms: C7_10  and  C8_12 
REMARK    7  A    between atoms: C9_15  and  C10_16 
REMARK    8  A    between atoms: C10_16  and  C11_17 
REMARK    9  A    between atoms: C13_22  and  C14_23 
REMARK   10  A    between atoms: C14_23  and  C15_24 
REMARK   11  A    between atoms: C16_27  and  C17_28 
REMARK       I    between atoms: C17_28  and  N6_30 
REMARK   12  A    between atoms: N6_30  and  C18_32 
REMARK   13  A    between atoms: C21_38  and  N8_39 
ROOT
HETATM    1  C11 UNL     1       1.352 -23.544  14.068  1.00  0.00     0.011 A 
HETATM    2  C12 UNL     1       1.540 -24.476  15.060  1.00  0.00     0.134 A 
HETATM    3  N3  UNL     1       0.500 -24.799  15.797  1.00  0.00    -0.243 N 
HETATM    4  N4  UNL     1       0.268 -25.631  16.841  1.00  0.00    -0.280 N 
ATOM      5  H4  UNL     1       0.982 -26.225  17.261  1.00  0.00     0.189 HD
HETATM    6  C13 UNL     1      -0.984 -25.586  17.254  1.00  0.00     0.105 A 
HETATM    7  N11 UNL     1      -1.605 -24.671  16.429  1.00  0.00    -0.323 N 
ATOM      8  H11 UNL     1      -2.583 -24.381  16.459  1.00  0.00     0.169 HD
HETATM    9  C23 UNL     1      -0.659 -24.241  15.580  1.00  0.00     0.171 A 
HETATM   10  S1  UNL     1      -0.291 -23.180  14.249  1.00  0.00    -0.055 SA
ENDROOT
BRANCH   6  11
HETATM   11  C14 UNL     1      -1.602 -26.274  18.403  1.00  0.00     0.155 C 
BRANCH  11  12
HETATM   12  C15 UNL     1      -2.176 -25.440  19.457  1.00  0.00     0.102 A 
HETATM   13  N5  UNL     1      -2.928 -24.367  19.365  1.00  0.00    -0.337 N 
HETATM   14  C16 UNL     1      -3.215 -23.836  20.600  1.00  0.00     0.147 A 
ATOM     15  H5  UNL     1      -3.260 -23.976  18.483  1.00  0.00     0.167 HD
HETATM   16  C20 UNL     1      -2.578 -24.658  21.516  1.00  0.00     0.165 A 
HETATM   17  N7  UNL     1      -2.472 -24.646  22.858  1.00  0.00    -0.174 N 
HETATM   18  N10 UNL     1      -1.954 -25.627  20.787  1.00  0.00    -0.234 N 
HETATM   19  C21 UNL     1      -1.765 -25.565  23.537  1.00  0.00     0.681 A 
ATOM     20  H7  UNL     1      -2.949 -23.910  23.381  1.00  0.00     0.186 HD
HETATM   21  N9  UNL     1      -1.150 -26.512  22.840  1.00  0.00    -0.141 N 
HETATM   22  C22 UNL     1      -1.247 -26.538  21.492  1.00  0.00     0.348 A 
ATOM     23  H9  UNL     1      -0.603 -27.224  23.323  1.00  0.00     0.189 HD
HETATM   24  O6  UNL     1      -0.656 -27.449  20.875  1.00  0.00    -0.245 OA
BRANCH  14  25
HETATM   25  C17 UNL     1      -3.932 -22.602  20.825  1.00  0.00     0.274 C 
HETATM   26  O4  UNL     1      -3.794 -22.112  22.019  1.00  0.00    -0.266 OA
HETATM   27  N6  UNL     1      -4.750 -21.895  19.923  1.00  0.00    -0.327 N 
ATOM     28  H6  UNL     1      -4.885 -22.207  18.962  1.00  0.00     0.165 HD
BRANCH  27  29
HETATM   29  C18 UNL     1      -5.403 -20.672  20.448  1.00  0.00     0.247 A 
HETATM   30  C19 UNL     1      -6.847 -20.793  20.809  1.00  0.00     0.224 A 
HETATM   31  O5  UNL     1      -6.490 -20.161  19.625  1.00  0.00    -0.360 OA
ENDBRANCH  27  29
ENDBRANCH  14  25
BRANCH  19  32
HETATM   32  N8  UNL     1      -1.706 -25.504  24.858  1.00  0.00    -0.234 N 
ATOM     33  H82 UNL     1      -1.953 -26.294  25.454  1.00  0.00     0.174 HD
ATOM     34  H81 UNL     1      -1.408 -24.640  25.311  1.00  0.00     0.174 HD
ENDBRANCH  19  32
ENDBRANCH  11  12
ENDBRANCH   6  11
BRANCH   1  35
HETATM   35  C10 UNL     1       2.416 -23.069  13.135  1.00  0.00     0.126 C 
BRANCH  35  36
HETATM   36  C9  UNL     1       3.347 -22.113  13.676  1.00  0.00     0.104 A 
HETATM   37  N2  UNL     1       3.478 -20.811  13.254  1.00  0.00    -0.324 N 
HETATM   38  C8  UNL     1       4.422 -20.172  13.904  1.00  0.00     0.206 A 
ATOM     39  H2  UNL     1       2.907 -20.391  12.520  1.00  0.00     0.169 HD
HETATM   40  N13 UNL     1       4.915 -21.070  14.763  1.00  0.00    -0.277 N 
HETATM   41  N12 UNL     1       4.276 -22.251  14.638  1.00  0.00    -0.282 N 
ATOM     42  H13 UNL     1       5.672 -20.887  15.421  1.00  0.00     0.189 HD
HETATM   43  C24 UNL     1       4.589 -23.390  15.477  1.00  0.00     0.179 C 
BRANCH  38  44
HETATM   44  C7  UNL     1       4.899 -18.734  13.789  1.00  0.00     0.362 C 
HETATM   45  N1  UNL     1       4.381 -17.929  12.820  1.00  0.00    -0.357 NA
HETATM   46  O3  UNL     1       5.765 -18.461  14.666  1.00  0.00    -0.248 OA
BRANCH  45  47
HETATM   47  C6  UNL     1       3.863 -17.105  11.843  1.00  0.00     0.188 C 
BRANCH  47  48
HETATM   48  C5  UNL     1       4.509 -16.817  10.544  1.00  0.00     0.065 C 
HETATM   49  C3  UNL     1       5.795 -16.191  10.339  1.00  0.00     0.017 C 
HETATM   50  C4  UNL     1       5.802 -14.643  10.447  1.00  0.00     0.055 C 
BRANCH  49  51
HETATM   51  C2  UNL     1       7.036 -16.757  10.854  1.00  0.00     0.288 C 
HETATM   52  O2  UNL     1       7.372 -17.973  10.585  1.00  0.00    -0.260 OA
BRANCH  51  53
HETATM   53  O1  UNL     1       7.921 -16.044  11.648  1.00  0.00    -0.323 OA
HETATM   54  C1  UNL     1       8.163 -16.561  12.962  1.00  0.00     0.213 C 
ENDBRANCH  51  53
ENDBRANCH  49  51
ENDBRANCH  47  48
BRANCH  47  55
HETATM   55  C25 UNL     1       3.235 -15.846  12.399  1.00  0.00     0.241 C 
HETATM   56  O7  UNL     1       3.798 -15.103  13.220  1.00  0.00    -0.642 OA
HETATM   57  O8  UNL     1       1.953 -15.492  11.972  1.00  0.00    -0.642 OA
ENDBRANCH  47  55
ENDBRANCH  45  47
ENDBRANCH  38  44
ENDBRANCH  35  36
ENDBRANCH   1  35
TORSDOF 13
ENDMDL
MODEL 4
REMARK VINA RESULT: -10.659639837      2.950      5.503
REMARK  13 active torsions:
REMARK  status: ('A' for Active; 'I' for Inactive)
REMARK    1  A    between atoms: O1_2  and  C2_3 
REMARK    2  A    between atoms: C2_3  and  C3_5 
REMARK    3  A    between atoms: C5_7  and  C6_8 
REMARK    4  A    between atoms: C6_8  and  N1_9 
REMARK    5  A    between atoms: C6_8  and  C25_55 
REMARK       I    between atoms: N1_9  and  C7_10 
REMARK    6  A    between atoms: C7_10  and  C8_12 
REMARK    7  A    between atoms: C9_15  and  C10_16 
REMARK    8  A    between atoms: C10_16  and  C11_17 
REMARK    9  A    between atoms: C13_22  and  C14_23 
REMARK   10  A    between atoms: C14_23  and  C15_24 
REMARK   11  A    between atoms: C16_27  and  C17_28 
REMARK       I    between atoms: C17_28  and  N6_30 
REMARK   12  A    between atoms: N6_30  and  C18_32 
REMARK   13  A    between atoms: C21_38  and  N8_39 
ROOT
HETATM    1  C11 UNL     1       4.880 -19.921  16.428  1.00  0.00     0.011 A 
HETATM    2  C12 UNL     1       4.836 -21.086  15.703  1.00  0.00     0.134 A 
HETATM    3  N3  UNL     1       3.674 -21.692  15.596  1.00  0.00    -0.243 N 
HETATM    4  N4  UNL     1       3.216 -22.822  15.004  1.00  0.00    -0.280 N 
ATOM      5  H4  UNL     1       3.803 -23.456  14.463  1.00  0.00     0.189 HD
HETATM    6  C13 UNL     1       1.926 -23.010  15.204  1.00  0.00     0.105 A 
HETATM    7  N11 UNL     1       1.518 -21.939  15.972  1.00  0.00    -0.323 N 
ATOM      8  H11 UNL     1       0.577 -21.754  16.319  1.00  0.00     0.169 HD
HETATM    9  C23 UNL     1       2.614 -21.189  16.167  1.00  0.00     0.171 A 
HETATM   10  S1  UNL     1       3.269 -19.760  16.917  1.00  0.00    -0.055 SA
ENDROOT
BRANCH   6  11
HETATM   11  C14 UNL     1       1.085 -24.151  14.796  1.00  0.00     0.155 C 
BRANCH  11  12
HETATM   12  C15 UNL     1       0.025 -24.567  15.713  1.00  0.00     0.102 A 
HETATM   13  N5  UNL     1       0.107 -25.005  16.949  1.00  0.00    -0.337 N 
HETATM   14  C16 UNL     1      -1.125 -25.349  17.452  1.00  0.00     0.147 A 
ATOM     15  H5  UNL     1       0.979 -25.080  17.472  1.00  0.00     0.167 HD
HETATM   16  C20 UNL     1      -2.027 -25.100  16.430  1.00  0.00     0.165 A 
HETATM   17  N7  UNL     1      -3.360 -25.252  16.310  1.00  0.00    -0.174 N 
HETATM   18  N10 UNL     1      -1.294 -24.623  15.383  1.00  0.00    -0.234 N 
HETATM   19  C21 UNL     1      -4.025 -24.950  15.182  1.00  0.00     0.681 A 
ATOM     20  H7  UNL     1      -3.886 -25.611  17.107  1.00  0.00     0.186 HD
HETATM   21  N9  UNL     1      -3.323 -24.487  14.155  1.00  0.00    -0.141 N 
HETATM   22  C22 UNL     1      -1.985 -24.328  14.260  1.00  0.00     0.348 A 
ATOM     23  H9  UNL     1      -3.795 -24.249  13.283  1.00  0.00     0.189 HD
HETATM   24  O6  UNL     1      -1.363 -23.887  13.271  1.00  0.00    -0.245 OA
BRANCH  14  25
HETATM   25  C17 UNL     1      -1.353 -25.958  18.742  1.00  0.00     0.274 C 
HETATM   26  O4  UNL     1      -1.501 -27.248  18.708  1.00  0.00    -0.266 OA
HETATM   27  N6  UNL     1      -1.442 -25.327  19.998  1.00  0.00    -0.327 N 
ATOM     28  H6  UNL     1      -1.313 -24.321  20.104  1.00  0.00     0.165 HD
BRANCH  27  29
HETATM   29  C18 UNL     1      -1.734 -26.206  21.156  1.00  0.00     0.247 A 
HETATM   30  C19 UNL     1      -1.744 -25.554  22.499  1.00  0.00     0.224 A 
HETATM   31  O5  UNL     1      -0.650 -26.321  22.121  1.00  0.00    -0.360 OA
ENDBRANCH  27  29
ENDBRANCH  14  25
BRANCH  19  32
HETATM   32  N8  UNL     1      -5.337 -25.114  15.129  1.00  0.00    -0.234 N 
ATOM     33  H82 UNL     1      -5.833 -25.761  15.743  1.00  0.00     0.174 HD
ATOM     34  H81 UNL     1      -5.886 -24.585  14.452  1.00  0.00     0.174 HD
ENDBRANCH  19  32
ENDBRANCH  11  12
ENDBRANCH   6  11
BRANCH   1  35
HETATM   35  C10 UNL     1       6.110 -19.101  16.644  1.00  0.00     0.126 C 
BRANCH  35  36
HETATM   36  C9  UNL     1       6.292 -17.992  15.745  1.00  0.00     0.104 A 
HETATM   37  N2  UNL     1       5.304 -17.429  14.972  1.00  0.00    -0.324 N 
HETATM   38  C8  UNL     1       5.756 -16.447  14.227  1.00  0.00     0.206 A 
ATOM     39  H2  UNL     1       4.332 -17.739  14.977  1.00  0.00     0.169 HD
HETATM   40  N13 UNL     1       7.058 -16.369  14.516  1.00  0.00    -0.277 N 
HETATM   41  N12 UNL     1       7.401 -17.296  15.434  1.00  0.00    -0.282 N 
ATOM     42  H13 UNL     1       7.705 -15.699  14.100  1.00  0.00     0.189 HD
HETATM   43  C24 UNL     1       8.748 -17.406  15.955  1.00  0.00     0.179 C 
BRANCH  38  44
HETATM   44  C7  UNL     1       5.033 -15.540  13.246  1.00  0.00     0.362 C 
HETATM   45  N1  UNL     1       5.175 -15.747  11.907  1.00  0.00    -0.357 NA
HETATM   46  O3  UNL     1       4.350 -14.661  13.844  1.00  0.00    -0.248 OA
BRANCH  45  47
HETATM   47  C6  UNL     1       5.312 -15.948  10.550  1.00  0.00     0.188 C 
BRANCH  47  48
HETATM   48  C5  UNL     1       5.744 -17.213   9.917  1.00  0.00     0.065 C 
HETATM   49  C3  UNL     1       6.041 -18.458  10.588  1.00  0.00     0.017 C 
HETATM   50  C4  UNL     1       7.452 -18.542  11.231  1.00  0.00     0.055 C 
BRANCH  49  51
HETATM   51  C2  UNL     1       5.057 -19.172  11.392  1.00  0.00     0.288 C 
HETATM   52  O2  UNL     1       5.425 -19.961  12.344  1.00  0.00    -0.260 OA
BRANCH  51  53
HETATM   53  O1  UNL     1       3.690 -19.055  11.194  1.00  0.00    -0.323 OA
HETATM   54  C1  UNL     1       2.948 -18.385  12.221  1.00  0.00     0.213 C 
ENDBRANCH  51  53
ENDBRANCH  49  51
ENDBRANCH  47  48
BRANCH  47  55
HETATM   55  C25 UNL     1       5.941 -14.771   9.836  1.00  0.00     0.241 C 
HETATM   56  O7  UNL     1       7.082 -14.796   9.345  1.00  0.00    -0.642 OA
HETATM   57  O8  UNL     1       5.208 -13.588   9.720  1.00  0.00    -0.642 OA
ENDBRANCH  47  55
ENDBRANCH  45  47
ENDBRANCH  38  44
ENDBRANCH  35  36
ENDBRANCH   1  35
TORSDOF 13
ENDMDL
MODEL 5
REMARK VINA RESULT: -10.489099236      2.261      4.740
REMARK  13 active torsions:
REMARK  status: ('A' for Active; 'I' for Inactive)
REMARK    1  A    between atoms: O1_2  and  C2_3 
REMARK    2  A    between atoms: C2_3  and  C3_5 
REMARK    3  A    between atoms: C5_7  and  C6_8 
REMARK    4  A    between atoms: C6_8  and  N1_9 
REMARK    5  A    between atoms: C6_8  and  C25_55 
REMARK       I    between atoms: N1_9  and  C7_10 
REMARK    6  A    between atoms: C7_10  and  C8_12 
REMARK    7  A    between atoms: C9_15  and  C10_16 
REMARK    8  A    between atoms: C10_16  and  C11_17 
REMARK    9  A    between atoms: C13_22  and  C14_23 
REMARK   10  A    between atoms: C14_23  and  C15_24 
REMARK   11  A    between atoms: C16_27  and  C17_28 
REMARK       I    between atoms: C17_28  and  N6_30 
REMARK   12  A    between atoms: N6_30  and  C18_32 
REMARK   13  A    between atoms: C21_38  and  N8_39 
ROOT
HETATM    1  C11 UNL     1       4.723 -21.323  15.460  1.00  0.00     0.011 A 
HETATM    2  C12 UNL     1       3.593 -21.421  16.235  1.00  0.00     0.134 A 
HETATM    3  N3  UNL     1       2.719 -22.352  15.921  1.00  0.00    -0.243 N 
HETATM    4  N4  UNL     1       1.519 -22.762  16.399  1.00  0.00    -0.280 N 
ATOM      5  H4  UNL     1       1.058 -22.343  17.206  1.00  0.00     0.189 HD
HETATM    6  C13 UNL     1       1.014 -23.763  15.705  1.00  0.00     0.105 A 
HETATM    7  N11 UNL     1       1.940 -24.022  14.716  1.00  0.00    -0.323 N 
ATOM      8  H11 UNL     1       1.880 -24.736  13.990  1.00  0.00     0.169 HD
HETATM    9  C23 UNL     1       2.935 -23.142  14.906  1.00  0.00     0.171 A 
HETATM   10  S1  UNL     1       4.471 -22.557  14.331  1.00  0.00    -0.055 SA
ENDROOT
BRANCH   6  11
HETATM   11  C14 UNL     1      -0.295 -24.426  15.860  1.00  0.00     0.155 C 
BRANCH  11  12
HETATM   12  C15 UNL     1      -0.956 -24.313  17.159  1.00  0.00     0.102 A 
HETATM   13  N5  UNL     1      -0.821 -25.050  18.239  1.00  0.00    -0.337 N 
HETATM   14  C16 UNL     1      -1.671 -24.648  19.241  1.00  0.00     0.147 A 
ATOM     15  H5  UNL     1      -0.164 -25.826  18.322  1.00  0.00     0.167 HD
HETATM   16  C20 UNL     1      -2.381 -23.578  18.721  1.00  0.00     0.165 A 
HETATM   17  N7  UNL     1      -3.357 -22.787  19.207  1.00  0.00    -0.174 N 
HETATM   18  N10 UNL     1      -1.921 -23.398  17.450  1.00  0.00    -0.234 N 
HETATM   19  C21 UNL     1      -3.916 -21.801  18.485  1.00  0.00     0.681 A 
ATOM     20  H7  UNL     1      -3.684 -22.942  20.161  1.00  0.00     0.186 HD
HETATM   21  N9  UNL     1      -3.479 -21.616  17.246  1.00  0.00    -0.141 N 
HETATM   22  C22 UNL     1      -2.501 -22.402  16.744  1.00  0.00     0.348 A 
ATOM     23  H9  UNL     1      -3.883 -20.878  16.669  1.00  0.00     0.189 HD
HETATM   24  O6  UNL     1      -2.117 -22.193  15.574  1.00  0.00    -0.245 OA
BRANCH  14  25
HETATM   25  C17 UNL     1      -1.834 -25.321  20.509  1.00  0.00     0.274 C 
HETATM   26  O4  UNL     1      -1.789 -26.616  20.439  1.00  0.00    -0.266 OA
HETATM   27  N6  UNL     1      -2.040 -24.746  21.778  1.00  0.00    -0.327 N 
ATOM     28  H6  UNL     1      -2.062 -23.735  21.913  1.00  0.00     0.165 HD
BRANCH  27  29
HETATM   29  C18 UNL     1      -2.224 -25.691  22.906  1.00  0.00     0.247 A 
HETATM   30  C19 UNL     1      -2.050 -25.130  24.278  1.00  0.00     0.224 A 
HETATM   31  O5  UNL     1      -1.037 -25.901  23.724  1.00  0.00    -0.360 OA
ENDBRANCH  27  29
ENDBRANCH  14  25
BRANCH  19  32
HETATM   32  N8  UNL     1      -4.865 -21.052  19.022  1.00  0.00    -0.234 N 
ATOM     33  H82 UNL     1      -4.683 -20.119  19.392  1.00  0.00     0.174 HD
ATOM     34  H81 UNL     1      -5.820 -21.408  19.079  1.00  0.00     0.174 HD
ENDBRANCH  19  32
ENDBRANCH  11  12
ENDBRANCH   6  11
BRANCH   1  35
HETATM   35  C10 UNL     1       5.819 -20.333  15.679  1.00  0.00     0.126 C 
BRANCH  35  36
HETATM   36  C9  UNL     1       5.448 -18.947  15.565  1.00  0.00     0.104 A 
HETATM   37  N2  UNL     1       5.662 -18.159  14.459  1.00  0.00    -0.324 N 
HETATM   38  C8  UNL     1       5.247 -16.928  14.640  1.00  0.00     0.206 A 
ATOM     39  H2  UNL     1       6.095 -18.493  13.597  1.00  0.00     0.169 HD
HETATM   40  N13 UNL     1       4.755 -16.910  15.882  1.00  0.00    -0.277 N 
HETATM   41  N12 UNL     1       4.869 -18.125  16.458  1.00  0.00    -0.282 N 
ATOM     42  H13 UNL     1       4.350 -16.090  16.334  1.00  0.00     0.189 HD
HETATM   43  C24 UNL     1       4.379 -18.395  17.794  1.00  0.00     0.179 C 
BRANCH  38  44
HETATM   44  C7  UNL     1       5.262 -15.734  13.700  1.00  0.00     0.362 C 
HETATM   45  N1  UNL     1       5.471 -15.928  12.368  1.00  0.00    -0.357 NA
HETATM   46  O3  UNL     1       5.062 -14.652  14.321  1.00  0.00    -0.248 OA
BRANCH  45  47
HETATM   47  C6  UNL     1       5.683 -16.113  11.018  1.00  0.00     0.188 C 
BRANCH  47  48
HETATM   48  C5  UNL     1       5.394 -17.360  10.276  1.00  0.00     0.065 C 
HETATM   49  C3  UNL     1       4.974 -18.623  10.838  1.00  0.00     0.017 C 
HETATM   50  C4  UNL     1       6.113 -19.492  11.436  1.00  0.00     0.055 C 
BRANCH  49  51
HETATM   51  C2  UNL     1       3.745 -18.772  11.607  1.00  0.00     0.288 C 
HETATM   52  O2  UNL     1       3.663 -19.630  12.567  1.00  0.00    -0.260 OA
BRANCH  51  53
HETATM   53  O1  UNL     1       2.606 -18.018  11.367  1.00  0.00    -0.323 OA
HETATM   54  C1  UNL     1       2.092 -17.263  12.471  1.00  0.00     0.213 C 
ENDBRANCH  51  53
ENDBRANCH  49  51
ENDBRANCH  47  48
BRANCH  47  55
HETATM   55  C25 UNL     1       6.984 -15.512  10.533  1.00  0.00     0.241 C 
HETATM   56  O7  UNL     1       8.072 -15.668  11.114  1.00  0.00    -0.642 OA
HETATM   57  O8  UNL     1       6.972 -14.737   9.371  1.00  0.00    -0.642 OA
ENDBRANCH  47  55
ENDBRANCH  45  47
ENDBRANCH  38  44
ENDBRANCH  35  36
ENDBRANCH   1  35
TORSDOF 13
ENDMDL
