MODEL 1
REMARK VINA RESULT: -3.614227970      0.000      0.000
REMARK  1 active torsions:
REMARK  status: ('A' for Active; 'I' for Inactive)
REMARK    1  A    between atoms: O1_1  and  N1_3 
ROOT
HETATM    1  N1  UNL     1      93.593  64.430 -11.443  1.00  0.00    -0.158 N 
HETATM    2  C1  UNL     1      94.335  64.857 -10.409  1.00  0.00     0.235 A 
HETATM    3  N2  UNL     1      94.824  63.766  -9.760  1.00  0.00    -0.344 N 
ATOM      4  H2  UNL     1      95.422  63.777  -8.934  1.00  0.00     0.167 HD
HETATM    5  C2  UNL     1      94.381  62.679 -10.396  1.00  0.00     0.200 A 
HETATM    6  N3  UNL     1      93.635  63.097 -11.418  1.00  0.00    -0.269 N 
ATOM      7  H3  UNL     1      93.165  62.485 -12.086  1.00  0.00     0.190 HD
ENDROOT
BRANCH   1   8
HETATM    8  O1  UNL     1      92.934  65.239 -12.334  1.00  0.00    -0.267 OA
ATOM      9  H1  UNL     1      92.853  65.076 -13.267  1.00  0.00     0.247 HD
ENDBRANCH   1   8
TORSDOF 1
ENDMDL
MODEL 2
REMARK VINA RESULT: -3.517253649      4.374      4.881
REMARK  1 active torsions:
REMARK  status: ('A' for Active; 'I' for Inactive)
REMARK    1  A    between atoms: O1_1  and  N1_3 
ROOT
HETATM    1  N1  UNL     1      97.406  60.506 -10.627  1.00  0.00    -0.158 N 
HETATM    2  C1  UNL     1      96.832  61.706 -10.812  1.00  0.00     0.235 A 
HETATM    3  N2  UNL     1      96.186  62.047  -9.664  1.00  0.00    -0.344 N 
ATOM      4  H2  UNL     1      95.658  62.905  -9.505  1.00  0.00     0.167 HD
HETATM    5  C2  UNL     1      96.365  61.059  -8.784  1.00  0.00     0.200 A 
HETATM    6  N3  UNL     1      97.110  60.129  -9.382  1.00  0.00    -0.269 N 
ATOM      7  H3  UNL     1      97.410  59.256  -8.950  1.00  0.00     0.190 HD
ENDROOT
BRANCH   1   8
HETATM    8  O1  UNL     1      98.148  59.829 -11.562  1.00  0.00    -0.267 OA
ATOM      9  H1  UNL     1      98.254  58.886 -11.601  1.00  0.00     0.247 HD
ENDBRANCH   1   8
TORSDOF 1
ENDMDL
MODEL 3
REMARK VINA RESULT: -3.452925201      4.152      4.667
REMARK  1 active torsions:
REMARK  status: ('A' for Active; 'I' for Inactive)
REMARK    1  A    between atoms: O1_1  and  N1_3 
ROOT
HETATM    1  N1  UNL     1      97.218  60.729 -10.118  1.00  0.00    -0.158 N 
HETATM    2  C1  UNL     1      97.248  61.831 -10.884  1.00  0.00     0.235 A 
HETATM    3  N2  UNL     1      96.154  62.584 -10.583  1.00  0.00    -0.344 N 
ATOM      4  H2  UNL     1      95.908  63.479 -11.005  1.00  0.00     0.167 HD
HETATM    5  C2  UNL     1      95.462  61.942  -9.639  1.00  0.00     0.200 A 
HETATM    6  N3  UNL     1      96.121  60.816  -9.365  1.00  0.00    -0.269 N 
ATOM      7  H3  UNL     1      95.828  60.121  -8.677  1.00  0.00     0.190 HD
ENDROOT
BRANCH   1   8
HETATM    8  O1  UNL     1      98.155  59.727 -10.134  1.00  0.00    -0.267 OA
ATOM      9  H1  UNL     1      98.141  58.953  -9.583  1.00  0.00     0.247 HD
ENDBRANCH   1   8
TORSDOF 1
ENDMDL
MODEL 4
REMARK VINA RESULT: -3.448246421      4.731      5.339
REMARK  1 active torsions:
REMARK  status: ('A' for Active; 'I' for Inactive)
REMARK    1  A    between atoms: O1_1  and  N1_3 
ROOT
HETATM    1  N1  UNL     1      97.611  60.664  -8.759  1.00  0.00    -0.158 N 
HETATM    2  C1  UNL     1      97.976  61.555  -9.694  1.00  0.00     0.235 A 
HETATM    3  N2  UNL     1      96.850  62.156 -10.167  1.00  0.00    -0.344 N 
ATOM      4  H2  UNL     1      96.813  62.878 -10.887  1.00  0.00     0.167 HD
HETATM    5  C2  UNL     1      95.804  61.632  -9.523  1.00  0.00     0.200 A 
HETATM    6  N3  UNL     1      96.281  60.727  -8.669  1.00  0.00    -0.269 N 
ATOM      7  H3  UNL     1      95.711  60.164  -8.037  1.00  0.00     0.190 HD
ENDROOT
BRANCH   1   8
HETATM    8  O1  UNL     1      98.469  59.860  -8.051  1.00  0.00    -0.267 OA
ATOM      9  H1  UNL     1      98.209  59.217  -7.401  1.00  0.00     0.247 HD
ENDBRANCH   1   8
TORSDOF 1
ENDMDL
MODEL 5
REMARK VINA RESULT: -3.445894278      3.851      4.254
REMARK  1 active torsions:
REMARK  status: ('A' for Active; 'I' for Inactive)
REMARK    1  A    between atoms: O1_1  and  N1_3 
ROOT
HETATM    1  N1  UNL     1      96.950  62.012 -10.439  1.00  0.00    -0.158 N 
HETATM    2  C1  UNL     1      97.567  60.820 -10.463  1.00  0.00     0.235 A 
HETATM    3  N2  UNL     1      97.119  60.091  -9.405  1.00  0.00    -0.344 N 
ATOM      4  H2  UNL     1      97.409  59.143  -9.163  1.00  0.00     0.167 HD
HETATM    5  C2  UNL     1      96.233  60.836  -8.740  1.00  0.00     0.200 A 
HETATM    6  N3  UNL     1      96.139  62.001  -9.380  1.00  0.00    -0.269 N 
ATOM      7  H3  UNL     1      95.534  62.774  -9.100  1.00  0.00     0.190 HD
ENDROOT
BRANCH   1   8
HETATM    8  O1  UNL     1      97.141  63.022 -11.348  1.00  0.00    -0.267 OA
ATOM      9  H1  UNL     1      97.691  63.785 -11.214  1.00  0.00     0.247 HD
ENDBRANCH   1   8
TORSDOF 1
ENDMDL
