MODEL 1
REMARK VINA RESULT: -6.464559187      0.000      0.000
REMARK  3 active torsions:
REMARK  status: ('A' for Active; 'I' for Inactive)
REMARK    1  A    between atoms: C1_2  and  C2_4 
REMARK    2  A    between atoms: C2_4  and  C3_5 
REMARK    3  A    between atoms: C3_5  and  C4_6 
ROOT
HETATM    1  C4  UNL     1      47.145  26.810  41.131  1.00  0.00     0.062 C 
HETATM    2  C5  UNL     1      46.953  28.246  40.760  1.00  0.00     0.040 C 
HETATM    3  C6  UNL     1      45.503  28.508  41.193  1.00  0.00     0.035 C 
HETATM    4  C7  UNL     1      45.182  27.179  41.860  1.00  0.00     0.122 C 
HETATM    5  C8  UNL     1      45.982  27.127  43.138  1.00  0.00     0.035 C 
HETATM    6  C9  UNL     1      47.329  26.615  42.603  1.00  0.00     0.040 C 
HETATM    7  O3  UNL     1      45.836  26.303  40.960  1.00  0.00    -0.375 OA
ENDROOT
BRANCH   1   8
HETATM    8  C3  UNL     1      48.141  26.128  40.269  1.00  0.00     0.048 C 
BRANCH   8   9
HETATM    9  C2  UNL     1      47.688  24.815  39.737  1.00  0.00     0.116 C 
BRANCH   9  10
HETATM   10  C1  UNL     1      48.222  23.726  40.632  1.00  0.00     0.172 C 
HETATM   11  O1  UNL     1      47.641  22.617  40.708  1.00  0.00    -0.648 OA
HETATM   12  O2  UNL     1      49.363  23.908  41.398  1.00  0.00    -0.648 OA
ENDBRANCH   9  10
ENDBRANCH   8   9
ENDBRANCH   1   8
TORSDOF 3
ENDMDL
MODEL 2
REMARK VINA RESULT: -6.409590510      1.575      2.260
REMARK  3 active torsions:
REMARK  status: ('A' for Active; 'I' for Inactive)
REMARK    1  A    between atoms: C1_2  and  C2_4 
REMARK    2  A    between atoms: C2_4  and  C3_5 
REMARK    3  A    between atoms: C3_5  and  C4_6 
ROOT
HETATM    1  C4  UNL     1      47.818  25.278  40.873  1.00  0.00     0.062 C 
HETATM    2  C5  UNL     1      47.781  26.607  40.188  1.00  0.00     0.040 C 
HETATM    3  C6  UNL     1      47.295  27.542  41.305  1.00  0.00     0.035 C 
HETATM    4  C7  UNL     1      47.272  26.569  42.473  1.00  0.00     0.122 C 
HETATM    5  C8  UNL     1      48.708  26.252  42.807  1.00  0.00     0.035 C 
HETATM    6  C9  UNL     1      48.992  25.135  41.789  1.00  0.00     0.040 C 
HETATM    7  O3  UNL     1      46.769  25.422  41.811  1.00  0.00    -0.375 OA
ENDROOT
BRANCH   1   8
HETATM    8  C3  UNL     1      47.599  24.149  39.937  1.00  0.00     0.048 C 
BRANCH   8   9
HETATM    9  C2  UNL     1      48.320  22.903  40.308  1.00  0.00     0.116 C 
BRANCH   9  10
HETATM   10  C1  UNL     1      47.305  21.818  40.557  1.00  0.00     0.172 C 
HETATM   11  O1  UNL     1      46.407  21.575  39.716  1.00  0.00    -0.648 OA
HETATM   12  O2  UNL     1      47.325  21.054  41.714  1.00  0.00    -0.648 OA
ENDBRANCH   9  10
ENDBRANCH   8   9
ENDBRANCH   1   8
TORSDOF 3
ENDMDL
MODEL 3
REMARK VINA RESULT: -6.275038348      1.422      4.427
REMARK  3 active torsions:
REMARK  status: ('A' for Active; 'I' for Inactive)
REMARK    1  A    between atoms: C1_2  and  C2_4 
REMARK    2  A    between atoms: C2_4  and  C3_5 
REMARK    3  A    between atoms: C3_5  and  C4_6 
ROOT
HETATM    1  C4  UNL     1      48.527  25.274  41.422  1.00  0.00     0.062 C 
HETATM    2  C5  UNL     1      49.796  24.483  41.447  1.00  0.00     0.040 C 
HETATM    3  C6  UNL     1      49.400  23.199  40.702  1.00  0.00     0.035 C 
HETATM    4  C7  UNL     1      47.988  23.567  40.272  1.00  0.00     0.122 C 
HETATM    5  C8  UNL     1      48.118  24.628  39.208  1.00  0.00     0.035 C 
HETATM    6  C9  UNL     1      48.256  25.885  40.082  1.00  0.00     0.040 C 
HETATM    7  O3  UNL     1      47.558  24.244  41.440  1.00  0.00    -0.375 OA
ENDROOT
BRANCH   1   8
HETATM    8  C3  UNL     1      48.407  26.195  42.577  1.00  0.00     0.048 C 
BRANCH   8   9
HETATM    9  C2  UNL     1      47.669  27.451  42.281  1.00  0.00     0.116 C 
BRANCH   9  10
HETATM   10  C1  UNL     1      46.210  27.234  42.592  1.00  0.00     0.172 C 
HETATM   11  O1  UNL     1      45.803  27.223  43.778  1.00  0.00    -0.648 OA
HETATM   12  O2  UNL     1      45.273  27.040  41.588  1.00  0.00    -0.648 OA
ENDBRANCH   9  10
ENDBRANCH   8   9
ENDBRANCH   1   8
TORSDOF 3
ENDMDL
MODEL 4
REMARK VINA RESULT: -6.217625626      2.217      3.105
REMARK  3 active torsions:
REMARK  status: ('A' for Active; 'I' for Inactive)
REMARK    1  A    between atoms: C1_2  and  C2_4 
REMARK    2  A    between atoms: C2_4  and  C3_5 
REMARK    3  A    between atoms: C3_5  and  C4_6 
ROOT
HETATM    1  C4  UNL     1      48.779  24.750  41.116  1.00  0.00     0.062 C 
HETATM    2  C5  UNL     1      48.532  25.636  39.937  1.00  0.00     0.040 C 
HETATM    3  C6  UNL     1      47.181  26.280  40.284  1.00  0.00     0.035 C 
HETATM    4  C7  UNL     1      46.975  25.723  41.684  1.00  0.00     0.122 C 
HETATM    5  C8  UNL     1      47.985  26.399  42.577  1.00  0.00     0.035 C 
HETATM    6  C9  UNL     1      49.216  25.512  42.328  1.00  0.00     0.040 C 
HETATM    7  O3  UNL     1      47.457  24.406  41.485  1.00  0.00    -0.375 OA
ENDROOT
BRANCH   1   8
HETATM    8  C3  UNL     1      49.605  23.567  40.776  1.00  0.00     0.048 C 
BRANCH   8   9
HETATM    9  C2  UNL     1      51.050  23.721  41.093  1.00  0.00     0.116 C 
BRANCH   9  10
HETATM   10  C1  UNL     1      51.459  22.605  42.018  1.00  0.00     0.172 C 
HETATM   11  O1  UNL     1      52.338  21.778  41.676  1.00  0.00    -0.648 OA
HETATM   12  O2  UNL     1      50.886  22.452  43.271  1.00  0.00    -0.648 OA
ENDBRANCH   9  10
ENDBRANCH   8   9
ENDBRANCH   1   8
TORSDOF 3
ENDMDL
MODEL 5
REMARK VINA RESULT: -6.195059024      1.106      1.936
REMARK  3 active torsions:
REMARK  status: ('A' for Active; 'I' for Inactive)
REMARK    1  A    between atoms: C1_2  and  C2_4 
REMARK    2  A    between atoms: C2_4  and  C3_5 
REMARK    3  A    between atoms: C3_5  and  C4_6 
ROOT
HETATM    1  C4  UNL     1      47.422  26.229  40.811  1.00  0.00     0.062 C 
HETATM    2  C5  UNL     1      48.003  26.227  42.188  1.00  0.00     0.040 C 
HETATM    3  C6  UNL     1      47.625  27.621  42.710  1.00  0.00     0.035 C 
HETATM    4  C7  UNL     1      46.770  28.113  41.553  1.00  0.00     0.122 C 
HETATM    5  C8  UNL     1      45.493  27.311  41.581  1.00  0.00     0.035 C 
HETATM    6  C9  UNL     1      45.935  26.055  40.813  1.00  0.00     0.040 C 
HETATM    7  O3  UNL     1      47.525  27.598  40.470  1.00  0.00    -0.375 OA
ENDROOT
BRANCH   1   8
HETATM    8  C3  UNL     1      48.164  25.349  39.877  1.00  0.00     0.048 C 
BRANCH   8   9
HETATM    9  C2  UNL     1      47.481  24.062  39.580  1.00  0.00     0.116 C 
BRANCH   9  10
HETATM   10  C1  UNL     1      48.021  23.008  40.512  1.00  0.00     0.172 C 
HETATM   11  O1  UNL     1      49.197  23.075  40.943  1.00  0.00    -0.648 OA
HETATM   12  O2  UNL     1      47.245  21.936  40.924  1.00  0.00    -0.648 OA
ENDBRANCH   9  10
ENDBRANCH   8   9
ENDBRANCH   1   8
TORSDOF 3
ENDMDL
