MODEL 1
REMARK VINA RESULT: -5.570467665      0.000      0.000
REMARK  3 active torsions:
REMARK  status: ('A' for Active; 'I' for Inactive)
REMARK    1  A    between atoms: S1_3  and  C2_4 
REMARK    2  A    between atoms: C2_4  and  C3_5 
REMARK    3  A    between atoms: C3_5  and  C4_6 
ROOT
HETATM    1  N1  UNL     1      46.596  20.953  40.617  1.00  0.00    -0.184 NA
HETATM    2  C1  UNL     1      47.383  21.798  40.560  1.00  0.00     0.133 C 
HETATM    3  S1  UNL     1      48.590  23.110  40.480  1.00  0.00    -0.051 SA
ENDROOT
BRANCH   3   4
HETATM    4  C2  UNL     1      47.868  24.404  39.436  1.00  0.00     0.090 C 
BRANCH   4   5
HETATM    5  C3  UNL     1      48.576  25.719  39.670  1.00  0.00     0.016 C 
BRANCH   5   6
HETATM    6  C4  UNL     1      47.766  26.680  40.475  1.00  0.00    -0.010 C 
HETATM    7  C5  UNL     1      48.392  26.785  41.859  1.00  0.00     0.031 C 
HETATM    8  C6  UNL     1      47.615  27.855  42.595  1.00  0.00     0.168 C 
HETATM    9  O1  UNL     1      46.499  28.280  41.929  1.00  0.00    -0.391 OA
HETATM   10  C7  UNL     1      45.647  27.299  41.496  1.00  0.00     0.168 C 
HETATM   11  C8  UNL     1      46.345  26.205  40.698  1.00  0.00     0.031 C 
ENDBRANCH   5   6
ENDBRANCH   4   5
ENDBRANCH   3   4
TORSDOF 3
ENDMDL
MODEL 2
REMARK VINA RESULT: -5.550100237      3.166      3.488
REMARK  3 active torsions:
REMARK  status: ('A' for Active; 'I' for Inactive)
REMARK    1  A    between atoms: S1_3  and  C2_4 
REMARK    2  A    between atoms: C2_4  and  C3_5 
REMARK    3  A    between atoms: C3_5  and  C4_6 
ROOT
HETATM    1  N1  UNL     1      53.178  23.932  37.053  1.00  0.00    -0.184 NA
HETATM    2  C1  UNL     1      52.540  24.223  37.971  1.00  0.00     0.133 C 
HETATM    3  S1  UNL     1      51.544  24.662  39.385  1.00  0.00    -0.051 SA
ENDROOT
BRANCH   3   4
HETATM    4  C2  UNL     1      50.132  25.600  38.744  1.00  0.00     0.090 C 
BRANCH   4   5
HETATM    5  C3  UNL     1      48.863  25.181  39.450  1.00  0.00     0.016 C 
BRANCH   5   6
HETATM    6  C4  UNL     1      48.472  26.116  40.546  1.00  0.00    -0.010 C 
HETATM    7  C5  UNL     1      48.829  25.463  41.874  1.00  0.00     0.031 C 
HETATM    8  C6  UNL     1      48.529  26.490  42.945  1.00  0.00     0.168 C 
HETATM    9  O1  UNL     1      47.872  27.594  42.478  1.00  0.00    -0.391 OA
HETATM   10  C7  UNL     1      46.749  27.355  41.733  1.00  0.00     0.168 C 
HETATM   11  C8  UNL     1      46.980  26.367  40.596  1.00  0.00     0.031 C 
ENDBRANCH   5   6
ENDBRANCH   4   5
ENDBRANCH   3   4
TORSDOF 3
ENDMDL
MODEL 3
REMARK VINA RESULT: -5.494013357      1.033      1.364
REMARK  3 active torsions:
REMARK  status: ('A' for Active; 'I' for Inactive)
REMARK    1  A    between atoms: S1_3  and  C2_4 
REMARK    2  A    between atoms: C2_4  and  C3_5 
REMARK    3  A    between atoms: C3_5  and  C4_6 
ROOT
HETATM    1  N1  UNL     1      46.650  20.993  40.643  1.00  0.00    -0.184 NA
HETATM    2  C1  UNL     1      47.399  21.870  40.573  1.00  0.00     0.133 C 
HETATM    3  S1  UNL     1      48.547  23.232  40.474  1.00  0.00    -0.051 SA
ENDROOT
BRANCH   3   4
HETATM    4  C2  UNL     1      47.710  24.538  39.537  1.00  0.00     0.090 C 
BRANCH   4   5
HETATM    5  C3  UNL     1      48.084  25.897  40.085  1.00  0.00     0.016 C 
BRANCH   5   6
HETATM    6  C4  UNL     1      46.998  26.513  40.902  1.00  0.00    -0.010 C 
HETATM    7  C5  UNL     1      46.963  28.004  40.596  1.00  0.00     0.031 C 
HETATM    8  C6  UNL     1      45.776  28.564  41.350  1.00  0.00     0.168 C 
HETATM    9  O1  UNL     1      45.201  27.670  42.210  1.00  0.00    -0.391 OA
HETATM   10  C7  UNL     1      46.051  27.040  43.079  1.00  0.00     0.168 C 
HETATM   11  C8  UNL     1      47.251  26.402  42.391  1.00  0.00     0.031 C 
ENDBRANCH   5   6
ENDBRANCH   4   5
ENDBRANCH   3   4
TORSDOF 3
ENDMDL
MODEL 4
REMARK VINA RESULT: -5.464281426      2.255      2.255
REMARK  3 active torsions:
REMARK  status: ('A' for Active; 'I' for Inactive)
REMARK    1  A    between atoms: S1_3  and  C2_4 
REMARK    2  A    between atoms: C2_4  and  C3_5 
REMARK    3  A    between atoms: C3_5  and  C4_6 
ROOT
HETATM    1  N1  UNL     1      51.035  22.358  43.239  1.00  0.00    -0.184 NA
HETATM    2  C1  UNL     1      51.001  22.848  42.193  1.00  0.00     0.133 C 
HETATM    3  S1  UNL     1      50.946  23.617  40.583  1.00  0.00    -0.051 SA
ENDROOT
BRANCH   3   4
HETATM    4  C2  UNL     1      49.219  24.085  40.300  1.00  0.00     0.090 C 
BRANCH   4   5
HETATM    5  C3  UNL     1      49.146  25.455  39.666  1.00  0.00     0.016 C 
BRANCH   5   6
HETATM    6  C4  UNL     1      48.199  26.370  40.367  1.00  0.00    -0.010 C 
HETATM    7  C5  UNL     1      48.665  26.520  41.809  1.00  0.00     0.031 C 
HETATM    8  C6  UNL     1      47.751  27.545  42.446  1.00  0.00     0.168 C 
HETATM    9  O1  UNL     1      46.691  27.899  41.659  1.00  0.00    -0.391 OA
HETATM   10  C7  UNL     1      45.950  26.867  41.149  1.00  0.00     0.168 C 
HETATM   11  C8  UNL     1      46.793  25.813  40.442  1.00  0.00     0.031 C 
ENDBRANCH   5   6
ENDBRANCH   4   5
ENDBRANCH   3   4
TORSDOF 3
ENDMDL
MODEL 5
REMARK VINA RESULT: -5.432919072      2.624      3.037
REMARK  3 active torsions:
REMARK  status: ('A' for Active; 'I' for Inactive)
REMARK    1  A    between atoms: S1_3  and  C2_4 
REMARK    2  A    between atoms: C2_4  and  C3_5 
REMARK    3  A    between atoms: C3_5  and  C4_6 
ROOT
HETATM    1  N1  UNL     1      50.982  22.516  43.431  1.00  0.00    -0.184 NA
HETATM    2  C1  UNL     1      51.222  22.827  42.344  1.00  0.00     0.133 C 
HETATM    3  S1  UNL     1      51.595  23.319  40.670  1.00  0.00    -0.051 SA
ENDROOT
BRANCH   3   4
HETATM    4  C2  UNL     1      50.298  24.486  40.179  1.00  0.00     0.090 C 
BRANCH   4   5
HETATM    5  C3  UNL     1      48.933  23.885  40.428  1.00  0.00     0.016 C 
BRANCH   5   6
HETATM    6  C4  UNL     1      48.016  24.809  41.157  1.00  0.00    -0.010 C 
HETATM    7  C5  UNL     1      47.376  25.743  40.139  1.00  0.00     0.031 C 
HETATM    8  C6  UNL     1      46.368  26.575  40.902  1.00  0.00     0.168 C 
HETATM    9  O1  UNL     1      46.435  26.413  42.257  1.00  0.00    -0.391 OA
HETATM   10  C7  UNL     1      47.676  26.552  42.819  1.00  0.00     0.168 C 
HETATM   11  C8  UNL     1      48.743  25.703  42.139  1.00  0.00     0.031 C 
ENDBRANCH   5   6
ENDBRANCH   4   5
ENDBRANCH   3   4
TORSDOF 3
ENDMDL
