MODEL 1
REMARK VINA RESULT: -6.203535930      0.000      0.000
REMARK  2 active torsions:
REMARK  status: ('A' for Active; 'I' for Inactive)
REMARK    1  A    between atoms: C1_2  and  C2_4 
REMARK    2  A    between atoms: C2_4  and  C3_5 
ROOT
HETATM    1  C3  UNL     1      50.270  23.082  40.884  1.00  0.00     0.016 C 
HETATM    2  C4  UNL     1      49.236  23.890  41.049  1.00  0.00     0.043 C 
HETATM    3  C5  UNL     1      48.161  23.996  40.029  1.00  0.00     0.064 C 
HETATM    4  C6  UNL     1      47.926  25.484  39.807  1.00  0.00     0.008 C 
HETATM    5  C7  UNL     1      47.373  26.018  41.126  1.00  0.00     0.027 C 
HETATM    6  C8  UNL     1      48.398  25.880  42.197  1.00  0.00     0.175 C 
HETATM    7  O3  UNL     1      49.106  24.677  42.184  1.00  0.00    -0.356 OA
ENDROOT
BRANCH   1   8
HETATM    8  C2  UNL     1      51.311  23.013  41.926  1.00  0.00     0.142 C 
BRANCH   8   9
HETATM    9  C1  UNL     1      50.904  22.125  43.035  1.00  0.00     0.176 C 
HETATM   10  O1  UNL     1      50.883  20.883  42.829  1.00  0.00    -0.648 OA
HETATM   11  O2  UNL     1      50.551  22.583  44.273  1.00  0.00    -0.648 OA
ENDBRANCH   8   9
ENDBRANCH   1   8
TORSDOF 2
ENDMDL
MODEL 2
REMARK VINA RESULT: -6.184110352      0.953      1.078
REMARK  2 active torsions:
REMARK  status: ('A' for Active; 'I' for Inactive)
REMARK    1  A    between atoms: C1_2  and  C2_4 
REMARK    2  A    between atoms: C2_4  and  C3_5 
ROOT
HETATM    1  C3  UNL     1      49.877  23.632  40.516  1.00  0.00     0.016 C 
HETATM    2  C4  UNL     1      48.922  24.350  41.084  1.00  0.00     0.043 C 
HETATM    3  C5  UNL     1      47.636  24.620  40.392  1.00  0.00     0.064 C 
HETATM    4  C6  UNL     1      47.372  26.112  40.542  1.00  0.00     0.008 C 
HETATM    5  C7  UNL     1      47.158  26.347  42.036  1.00  0.00     0.027 C 
HETATM    6  C8  UNL     1      48.409  26.035  42.781  1.00  0.00     0.175 C 
HETATM    7  O3  UNL     1      49.078  24.888  42.354  1.00  0.00    -0.356 OA
ENDROOT
BRANCH   1   8
HETATM    8  C2  UNL     1      51.137  23.394  41.245  1.00  0.00     0.142 C 
BRANCH   8   9
HETATM    9  C1  UNL     1      51.147  22.058  41.878  1.00  0.00     0.176 C 
HETATM   10  O1  UNL     1      52.073  21.260  41.575  1.00  0.00    -0.648 OA
HETATM   11  O2  UNL     1      50.202  21.646  42.776  1.00  0.00    -0.648 OA
ENDBRANCH   8   9
ENDBRANCH   1   8
TORSDOF 2
ENDMDL
MODEL 3
REMARK VINA RESULT: -6.140538777      1.371      1.784
REMARK  2 active torsions:
REMARK  status: ('A' for Active; 'I' for Inactive)
REMARK    1  A    between atoms: C1_2  and  C2_4 
REMARK    2  A    between atoms: C2_4  and  C3_5 
ROOT
HETATM    1  C3  UNL     1      51.249  23.259  40.971  1.00  0.00     0.016 C 
HETATM    2  C4  UNL     1      50.117  23.562  40.358  1.00  0.00     0.043 C 
HETATM    3  C5  UNL     1      49.943  24.851  39.640  1.00  0.00     0.064 C 
HETATM    4  C6  UNL     1      48.604  25.418  40.094  1.00  0.00     0.008 C 
HETATM    5  C7  UNL     1      47.546  24.447  39.575  1.00  0.00     0.027 C 
HETATM    6  C8  UNL     1      47.716  23.118  40.227  1.00  0.00     0.175 C 
HETATM    7  O3  UNL     1      49.037  22.691  40.357  1.00  0.00    -0.356 OA
ENDROOT
BRANCH   1   8
HETATM    8  C2  UNL     1      51.371  21.967  41.671  1.00  0.00     0.142 C 
BRANCH   8   9
HETATM    9  C1  UNL     1      51.116  22.113  43.119  1.00  0.00     0.176 C 
HETATM   10  O1  UNL     1      51.671  21.305  43.909  1.00  0.00    -0.648 OA
HETATM   11  O2  UNL     1      50.309  23.083  43.645  1.00  0.00    -0.648 OA
ENDBRANCH   8   9
ENDBRANCH   1   8
TORSDOF 2
ENDMDL
MODEL 4
REMARK VINA RESULT: -6.043425934      1.809      4.540
REMARK  2 active torsions:
REMARK  status: ('A' for Active; 'I' for Inactive)
REMARK    1  A    between atoms: C1_2  and  C2_4 
REMARK    2  A    between atoms: C2_4  and  C3_5 
ROOT
HETATM    1  C3  UNL     1      49.008  24.939  39.532  1.00  0.00     0.016 C 
HETATM    2  C4  UNL     1      49.879  24.193  40.192  1.00  0.00     0.043 C 
HETATM    3  C5  UNL     1      51.333  24.244  39.889  1.00  0.00     0.064 C 
HETATM    4  C6  UNL     1      51.798  22.799  39.776  1.00  0.00     0.008 C 
HETATM    5  C7  UNL     1      51.632  22.199  41.170  1.00  0.00     0.027 C 
HETATM    6  C8  UNL     1      50.190  22.179  41.543  1.00  0.00     0.175 C 
HETATM    7  O3  UNL     1      49.476  23.326  41.198  1.00  0.00    -0.356 OA
ENDROOT
BRANCH   1   8
HETATM    8  C2  UNL     1      47.575  24.850  39.871  1.00  0.00     0.142 C 
BRANCH   8   9
HETATM    9  C1  UNL     1      47.218  25.796  40.949  1.00  0.00     0.176 C 
HETATM   10  O1  UNL     1      46.852  25.328  42.058  1.00  0.00    -0.648 OA
HETATM   11  O2  UNL     1      47.266  27.155  40.802  1.00  0.00    -0.648 OA
ENDBRANCH   8   9
ENDBRANCH   1   8
TORSDOF 2
ENDMDL
MODEL 5
REMARK VINA RESULT: -5.962871057      2.236      4.602
REMARK  2 active torsions:
REMARK  status: ('A' for Active; 'I' for Inactive)
REMARK    1  A    between atoms: C1_2  and  C2_4 
REMARK    2  A    between atoms: C2_4  and  C3_5 
ROOT
HETATM    1  C3  UNL     1      48.942  25.284  39.345  1.00  0.00     0.016 C 
HETATM    2  C4  UNL     1      50.094  24.673  39.570  1.00  0.00     0.043 C 
HETATM    3  C5  UNL     1      51.378  25.227  39.070  1.00  0.00     0.064 C 
HETATM    4  C6  UNL     1      52.116  24.070  38.410  1.00  0.00     0.008 C 
HETATM    5  C7  UNL     1      52.437  23.088  39.535  1.00  0.00     0.027 C 
HETATM    6  C8  UNL     1      51.173  22.546  40.108  1.00  0.00     0.175 C 
HETATM    7  O3  UNL     1      50.157  23.485  40.283  1.00  0.00    -0.356 OA
ENDROOT
BRANCH   1   8
HETATM    8  C2  UNL     1      47.694  24.693  39.863  1.00  0.00     0.142 C 
BRANCH   8   9
HETATM    9  C1  UNL     1      47.219  25.407  41.067  1.00  0.00     0.176 C 
HETATM   10  O1  UNL     1      46.163  26.087  40.981  1.00  0.00    -0.648 OA
HETATM   11  O2  UNL     1      47.869  25.365  42.269  1.00  0.00    -0.648 OA
ENDBRANCH   8   9
ENDBRANCH   1   8
TORSDOF 2
ENDMDL
