MODEL 1
REMARK VINA RESULT: -8.011698751      0.000      0.000
REMARK  12 active torsions:
REMARK  status: ('A' for Active; 'I' for Inactive)
REMARK    1  A    between atoms: N1_1  and  C1_4 
REMARK    2  A    between atoms: C3_8  and  C4_9 
REMARK    3  A    between atoms: N3_10  and  N4_12 
REMARK    4  A    between atoms: N4_12  and  C5_14 
REMARK    5  A    between atoms: C5_14  and  O1_15 
REMARK    6  A    between atoms: C5_14  and  C6_17 
REMARK       I    between atoms: C6_17  and  N5_19 
REMARK    7  A    between atoms: N5_19  and  S1_21 
REMARK    8  A    between atoms: S1_21  and  C7_24 
REMARK    9  A    between atoms: C7_24  and  C8_25 
REMARK   10  A    between atoms: C12_30  and  O5_31 
REMARK   11  A    between atoms: C13_33  and  N6_34 
REMARK   12  A    between atoms: N7_41  and  N8_42 
ROOT
HETATM    1  C1  UNL     1     165.486   5.010  29.803  1.00  0.00     0.700 A 
HETATM    2  N2  UNL     1     164.239   5.484  30.060  1.00  0.00    -0.188 N 
ATOM      3  H2  UNL     1     164.145   6.278  30.694  1.00  0.00     0.184 HD
HETATM    4  C2  UNL     1     163.126   4.965  29.526  1.00  0.00     0.079 A 
HETATM    5  C3  UNL     1     161.839   5.459  29.794  1.00  0.00     0.045 A 
HETATM    6  C12 UNL     1     160.732   4.868  29.202  1.00  0.00     0.112 A 
HETATM    7  C13 UNL     1     160.892   3.767  28.327  1.00  0.00     0.138 A 
HETATM    8  C14 UNL     1     162.165   3.328  28.101  1.00  0.00     0.058 A 
HETATM    9  C15 UNL     1     163.277   3.895  28.675  1.00  0.00     0.065 A 
HETATM   10  C16 UNL     1     164.554   3.419  28.420  1.00  0.00     0.294 A 
HETATM   11  O8  UNL     1     164.670   2.450  27.646  1.00  0.00    -0.265 OA
HETATM   12  N7  UNL     1     165.645   3.968  28.975  1.00  0.00    -0.054 N 
ENDROOT
BRANCH   5  13
HETATM   13  C4  UNL     1     161.715   6.587  30.693  1.00  0.00     0.123 C 
HETATM   14  N3  UNL     1     161.336   7.773  30.394  1.00  0.00    -0.313 N 
ATOM     15  H3  UNL     1     161.092   7.953  29.420  1.00  0.00     0.185 HD
BRANCH  14  16
HETATM   16  N4  UNL     1     161.229   8.830  31.279  1.00  0.00    -0.300 N 
ATOM     17  H4  UNL     1     162.068   9.135  31.773  1.00  0.00     0.183 HD
BRANCH  16  18
HETATM   18  C5  UNL     1     159.974   9.533  31.544  1.00  0.00     0.327 C 
BRANCH  18  19
HETATM   19  O1  UNL     1     159.156   9.579  30.422  1.00  0.00    -0.367 OA
ATOM     20  H1  UNL     1     159.004  10.470  30.128  1.00  0.00     0.212 HD
ENDBRANCH  18  19
BRANCH  18  21
HETATM   21  C6  UNL     1     160.280  10.931  31.942  1.00  0.00     0.281 C 
HETATM   22  O2  UNL     1     159.319  11.643  32.329  1.00  0.00    -0.268 OA
HETATM   23  N5  UNL     1     161.583  11.488  31.906  1.00  0.00    -0.250 N 
ATOM     24  H5  UNL     1     162.374  10.924  31.596  1.00  0.00     0.181 HD
BRANCH  23  25
HETATM   25  S1  UNL     1     161.819  13.118  32.389  1.00  0.00     0.237 S 
HETATM   26  O3  UNL     1     161.508  13.301  33.851  1.00  0.00    -0.205 OA
HETATM   27  O4  UNL     1     160.888  14.025  31.637  1.00  0.00    -0.205 OA
BRANCH  25  28
HETATM   28  C7  UNL     1     163.517  13.638  32.126  1.00  0.00     0.209 C 
BRANCH  28  29
HETATM   29  C8  UNL     1     163.431  15.098  31.743  1.00  0.00    -0.002 A 
HETATM   30  C9  UNL     1     163.354  16.178  32.582  1.00  0.00     0.016 A 
HETATM   31  C10 UNL     1     163.285  17.389  32.020  1.00  0.00     0.008 A 
HETATM   32  C11 UNL     1     163.297  17.452  30.653  1.00  0.00     0.050 A 
HETATM   33  S2  UNL     1     163.404  15.813  30.195  1.00  0.00    -0.105 SA
ENDBRANCH  28  29
ENDBRANCH  25  28
ENDBRANCH  23  25
ENDBRANCH  18  21
ENDBRANCH  16  18
ENDBRANCH  14  16
ENDBRANCH   5  13
BRANCH   6  34
HETATM   34  O5  UNL     1     159.440   5.249  29.378  1.00  0.00    -0.357 OA
ATOM     35  H5  UNL     1     158.870   5.604  28.707  1.00  0.00     0.217 HD
ENDBRANCH   6  34
BRANCH   7  36
HETATM   36  N6  UNL     1     159.749   3.158  27.716  1.00  0.00    -0.113 N 
HETATM   37  O6  UNL     1     159.533   1.956  27.943  1.00  0.00    -0.532 OA
HETATM   38  O7  UNL     1     158.888   3.836  26.896  1.00  0.00    -0.532 OA
ENDBRANCH   7  36
BRANCH   1  39
HETATM   39  N1  UNL     1     166.534   5.547  30.347  1.00  0.00    -0.233 N 
ATOM     40  H12 UNL     1     166.509   5.790  31.337  1.00  0.00     0.174 HD
ATOM     41  H11 UNL     1     167.377   5.730  29.802  1.00  0.00     0.174 HD
ENDBRANCH   1  39
BRANCH  12  42
HETATM   42  N8  UNL     1     166.936   3.506  28.733  1.00  0.00    -0.321 N 
ATOM     43  H82 UNL     1     167.744   4.124  28.654  1.00  0.00     0.178 HD
ATOM     44  H81 UNL     1     167.080   2.501  28.630  1.00  0.00     0.178 HD
ENDBRANCH  12  42
TORSDOF 12
ENDMDL
MODEL 2
REMARK VINA RESULT: -7.932126182      1.592      2.526
REMARK  12 active torsions:
REMARK  status: ('A' for Active; 'I' for Inactive)
REMARK    1  A    between atoms: N1_1  and  C1_4 
REMARK    2  A    between atoms: C3_8  and  C4_9 
REMARK    3  A    between atoms: N3_10  and  N4_12 
REMARK    4  A    between atoms: N4_12  and  C5_14 
REMARK    5  A    between atoms: C5_14  and  O1_15 
REMARK    6  A    between atoms: C5_14  and  C6_17 
REMARK       I    between atoms: C6_17  and  N5_19 
REMARK    7  A    between atoms: N5_19  and  S1_21 
REMARK    8  A    between atoms: S1_21  and  C7_24 
REMARK    9  A    between atoms: C7_24  and  C8_25 
REMARK   10  A    between atoms: C12_30  and  O5_31 
REMARK   11  A    between atoms: C13_33  and  N6_34 
REMARK   12  A    between atoms: N7_41  and  N8_42 
ROOT
HETATM    1  C1  UNL     1     165.494   4.865  29.667  1.00  0.00     0.700 A 
HETATM    2  N2  UNL     1     164.252   5.330  29.966  1.00  0.00    -0.188 N 
ATOM      3  H2  UNL     1     164.172   6.097  30.633  1.00  0.00     0.184 HD
HETATM    4  C2  UNL     1     163.129   4.835  29.430  1.00  0.00     0.079 A 
HETATM    5  C3  UNL     1     161.849   5.320  29.742  1.00  0.00     0.045 A 
HETATM    6  C12 UNL     1     160.729   4.756  29.146  1.00  0.00     0.112 A 
HETATM    7  C13 UNL     1     160.871   3.692  28.224  1.00  0.00     0.138 A 
HETATM    8  C14 UNL     1     162.139   3.261  27.957  1.00  0.00     0.058 A 
HETATM    9  C15 UNL     1     163.263   3.801  28.534  1.00  0.00     0.065 A 
HETATM   10  C16 UNL     1     164.534   3.335  28.236  1.00  0.00     0.294 A 
HETATM   11  O8  UNL     1     164.633   2.398  27.420  1.00  0.00    -0.265 OA
HETATM   12  N7  UNL     1     165.636   3.858  28.794  1.00  0.00    -0.054 N 
ENDROOT
BRANCH   5  13
HETATM   13  C4  UNL     1     161.743   6.410  30.689  1.00  0.00     0.123 C 
HETATM   14  N3  UNL     1     161.330   7.599  30.453  1.00  0.00    -0.313 N 
ATOM     15  H3  UNL     1     161.041   7.812  29.499  1.00  0.00     0.185 HD
BRANCH  14  16
HETATM   16  N4  UNL     1     161.242   8.619  31.383  1.00  0.00    -0.300 N 
ATOM     17  H4  UNL     1     162.085   8.882  31.894  1.00  0.00     0.183 HD
BRANCH  16  18
HETATM   18  C5  UNL     1     160.003   9.340  31.671  1.00  0.00     0.327 C 
BRANCH  18  19
HETATM   19  O1  UNL     1     159.139   9.347  30.583  1.00  0.00    -0.367 OA
ATOM     20  H1  UNL     1     158.368   8.814  30.736  1.00  0.00     0.212 HD
ENDBRANCH  18  19
BRANCH  18  21
HETATM   21  C6  UNL     1     160.331  10.750  32.003  1.00  0.00     0.281 C 
HETATM   22  O2  UNL     1     159.370  11.527  32.228  1.00  0.00    -0.268 OA
HETATM   23  N5  UNL     1     161.656  11.249  32.074  1.00  0.00    -0.250 N 
ATOM     24  H5  UNL     1     162.448  10.631  31.895  1.00  0.00     0.181 HD
BRANCH  23  25
HETATM   25  S1  UNL     1     161.918  12.899  32.465  1.00  0.00     0.237 S 
HETATM   26  O3  UNL     1     160.992  13.350  33.565  1.00  0.00    -0.205 OA
HETATM   27  O4  UNL     1     161.624  13.769  31.276  1.00  0.00    -0.205 OA
BRANCH  25  28
HETATM   28  C7  UNL     1     163.601  13.180  33.022  1.00  0.00     0.209 C 
BRANCH  28  29
HETATM   29  C8  UNL     1     163.803  12.224  34.175  1.00  0.00    -0.002 A 
HETATM   30  C9  UNL     1     163.616  12.473  35.510  1.00  0.00     0.016 A 
HETATM   31  C10 UNL     1     163.857  11.470  36.361  1.00  0.00     0.008 A 
HETATM   32  C11 UNL     1     164.271  10.279  35.833  1.00  0.00     0.050 A 
HETATM   33  S2  UNL     1     164.311  10.596  34.158  1.00  0.00    -0.105 SA
ENDBRANCH  28  29
ENDBRANCH  25  28
ENDBRANCH  23  25
ENDBRANCH  18  21
ENDBRANCH  16  18
ENDBRANCH  14  16
ENDBRANCH   5  13
BRANCH   6  34
HETATM   34  O5  UNL     1     159.442   5.131  29.361  1.00  0.00    -0.357 OA
ATOM     35  H5  UNL     1     158.807   5.347  28.688  1.00  0.00     0.217 HD
ENDBRANCH   6  34
BRANCH   7  36
HETATM   36  N6  UNL     1     159.716   3.110  27.608  1.00  0.00    -0.113 N 
HETATM   37  O6  UNL     1     159.486   1.907  27.814  1.00  0.00    -0.532 OA
HETATM   38  O7  UNL     1     158.859   3.816  26.808  1.00  0.00    -0.532 OA
ENDBRANCH   7  36
BRANCH   1  39
HETATM   39  N1  UNL     1     166.553   5.378  30.214  1.00  0.00    -0.233 N 
ATOM     40  H12 UNL     1     166.612   5.424  31.231  1.00  0.00     0.174 HD
ATOM     41  H11 UNL     1     167.321   5.735  29.644  1.00  0.00     0.174 HD
ENDBRANCH   1  39
BRANCH  12  42
HETATM   42  N8  UNL     1     166.921   3.405  28.510  1.00  0.00    -0.321 N 
ATOM     43  H82 UNL     1     167.764   3.858  28.865  1.00  0.00     0.178 HD
ATOM     44  H81 UNL     1     167.025   2.581  27.918  1.00  0.00     0.178 HD
ENDBRANCH  12  42
TORSDOF 12
ENDMDL
MODEL 3
REMARK VINA RESULT: -7.929506482      3.773     10.728
REMARK  12 active torsions:
REMARK  status: ('A' for Active; 'I' for Inactive)
REMARK    1  A    between atoms: N1_1  and  C1_4 
REMARK    2  A    between atoms: C3_8  and  C4_9 
REMARK    3  A    between atoms: N3_10  and  N4_12 
REMARK    4  A    between atoms: N4_12  and  C5_14 
REMARK    5  A    between atoms: C5_14  and  O1_15 
REMARK    6  A    between atoms: C5_14  and  C6_17 
REMARK       I    between atoms: C6_17  and  N5_19 
REMARK    7  A    between atoms: N5_19  and  S1_21 
REMARK    8  A    between atoms: S1_21  and  C7_24 
REMARK    9  A    between atoms: C7_24  and  C8_25 
REMARK   10  A    between atoms: C12_30  and  O5_31 
REMARK   11  A    between atoms: C13_33  and  N6_34 
REMARK   12  A    between atoms: N7_41  and  N8_42 
ROOT
HETATM    1  C1  UNL     1     162.527  15.727  31.051  1.00  0.00     0.700 A 
HETATM    2  N2  UNL     1     162.638  14.456  31.522  1.00  0.00    -0.188 N 
ATOM      3  H2  UNL     1     162.048  13.734  31.108  1.00  0.00     0.184 HD
HETATM    4  C2  UNL     1     163.480  14.102  32.501  1.00  0.00     0.079 A 
HETATM    5  C3  UNL     1     163.592  12.788  32.983  1.00  0.00     0.045 A 
HETATM    6  C12 UNL     1     164.489  12.496  34.002  1.00  0.00     0.112 A 
HETATM    7  C13 UNL     1     165.294  13.519  34.558  1.00  0.00     0.138 A 
HETATM    8  C14 UNL     1     165.145  14.777  34.051  1.00  0.00     0.058 A 
HETATM    9  C15 UNL     1     164.265  15.092  33.045  1.00  0.00     0.065 A 
HETATM   10  C16 UNL     1     164.144  16.384  32.557  1.00  0.00     0.294 A 
HETATM   11  O8  UNL     1     164.864  17.267  33.062  1.00  0.00    -0.265 OA
HETATM   12  N7  UNL     1     163.287  16.699  31.573  1.00  0.00    -0.054 N 
ENDROOT
BRANCH   5  13
HETATM   13  C4  UNL     1     162.752  11.769  32.389  1.00  0.00     0.123 C 
HETATM   14  N3  UNL     1     161.986  10.947  33.004  1.00  0.00    -0.313 N 
ATOM     15  H3  UNL     1     161.956  11.008  34.021  1.00  0.00     0.185 HD
BRANCH  14  16
HETATM   16  N4  UNL     1     161.196   9.983  32.404  1.00  0.00    -0.300 N 
ATOM     17  H4  UNL     1     161.065   9.095  32.888  1.00  0.00     0.183 HD
BRANCH  16  18
HETATM   18  C5  UNL     1     160.539  10.171  31.111  1.00  0.00     0.327 C 
BRANCH  18  19
HETATM   19  O1  UNL     1     159.169  10.356  31.245  1.00  0.00    -0.367 OA
ATOM     20  H1  UNL     1     158.851  11.068  30.702  1.00  0.00     0.212 HD
ENDBRANCH  18  19
BRANCH  18  21
HETATM   21  C6  UNL     1     160.757   8.960  30.279  1.00  0.00     0.281 C 
HETATM   22  O2  UNL     1     160.551   9.065  29.044  1.00  0.00    -0.268 OA
HETATM   23  N5  UNL     1     161.178   7.714  30.807  1.00  0.00    -0.250 N 
ATOM     24  H5  UNL     1     161.351   7.611  31.806  1.00  0.00     0.181 HD
BRANCH  23  25
HETATM   25  S1  UNL     1     161.396   6.379  29.750  1.00  0.00     0.237 S 
HETATM   26  O3  UNL     1     162.284   6.745  28.589  1.00  0.00    -0.205 OA
HETATM   27  O4  UNL     1     160.079   5.957  29.164  1.00  0.00    -0.205 OA
BRANCH  25  28
HETATM   28  C7  UNL     1     162.156   4.991  30.598  1.00  0.00     0.209 C 
BRANCH  28  29
HETATM   29  C8  UNL     1     162.982   4.287  29.546  1.00  0.00    -0.002 A 
HETATM   30  C9  UNL     1     164.348   4.255  29.439  1.00  0.00     0.016 A 
HETATM   31  C10 UNL     1     164.868   3.564  28.420  1.00  0.00     0.008 A 
HETATM   32  C11 UNL     1     163.997   2.945  27.566  1.00  0.00     0.050 A 
HETATM   33  S2  UNL     1     162.473   3.349  28.216  1.00  0.00    -0.105 SA
ENDBRANCH  28  29
ENDBRANCH  25  28
ENDBRANCH  23  25
ENDBRANCH  18  21
ENDBRANCH  16  18
ENDBRANCH  14  16
ENDBRANCH   5  13
BRANCH   6  34
HETATM   34  O5  UNL     1     164.691  11.273  34.555  1.00  0.00    -0.357 OA
ATOM     35  H5  UNL     1     164.493  11.029  35.451  1.00  0.00     0.217 HD
ENDBRANCH   6  34
BRANCH   7  36
HETATM   36  N6  UNL     1     166.220  13.217  35.608  1.00  0.00    -0.113 N 
HETATM   37  O6  UNL     1     166.215  13.938  36.619  1.00  0.00    -0.532 OA
HETATM   38  O7  UNL     1     167.107  12.176  35.548  1.00  0.00    -0.532 OA
ENDBRANCH   7  36
BRANCH   1  39
HETATM   39  N1  UNL     1     161.694  16.020  30.101  1.00  0.00    -0.233 N 
ATOM     40  H12 UNL     1     162.036  16.072  29.141  1.00  0.00     0.174 HD
ATOM     41  H11 UNL     1     160.709  16.199  30.298  1.00  0.00     0.174 HD
ENDBRANCH   1  39
BRANCH  12  42
HETATM   42  N8  UNL     1     163.149  17.989  31.068  1.00  0.00    -0.321 N 
ATOM     43  H82 UNL     1     162.330  18.299  30.544  1.00  0.00     0.178 HD
ATOM     44  H81 UNL     1     163.903  18.657  31.231  1.00  0.00     0.178 HD
ENDBRANCH  12  42
TORSDOF 12
ENDMDL
MODEL 4
REMARK VINA RESULT: -7.708121546      2.285      2.842
REMARK  12 active torsions:
REMARK  status: ('A' for Active; 'I' for Inactive)
REMARK    1  A    between atoms: N1_1  and  C1_4 
REMARK    2  A    between atoms: C3_8  and  C4_9 
REMARK    3  A    between atoms: N3_10  and  N4_12 
REMARK    4  A    between atoms: N4_12  and  C5_14 
REMARK    5  A    between atoms: C5_14  and  O1_15 
REMARK    6  A    between atoms: C5_14  and  C6_17 
REMARK       I    between atoms: C6_17  and  N5_19 
REMARK    7  A    between atoms: N5_19  and  S1_21 
REMARK    8  A    between atoms: S1_21  and  C7_24 
REMARK    9  A    between atoms: C7_24  and  C8_25 
REMARK   10  A    between atoms: C12_30  and  O5_31 
REMARK   11  A    between atoms: C13_33  and  N6_34 
REMARK   12  A    between atoms: N7_41  and  N8_42 
ROOT
HETATM    1  C1  UNL     1     165.785   3.904  30.078  1.00  0.00     0.700 A 
HETATM    2  N2  UNL     1     164.572   4.396  30.445  1.00  0.00    -0.188 N 
ATOM      3  H2  UNL     1     164.480   4.808  31.374  1.00  0.00     0.184 HD
HETATM    4  C2  UNL     1     163.493   4.368  29.654  1.00  0.00     0.079 A 
HETATM    5  C3  UNL     1     162.242   4.878  30.039  1.00  0.00     0.045 A 
HETATM    6  C12 UNL     1     161.167   4.814  29.163  1.00  0.00     0.112 A 
HETATM    7  C13 UNL     1     161.325   4.235  27.881  1.00  0.00     0.138 A 
HETATM    8  C14 UNL     1     162.561   3.755  27.559  1.00  0.00     0.058 A 
HETATM    9  C15 UNL     1     163.641   3.806  28.408  1.00  0.00     0.065 A 
HETATM   10  C16 UNL     1     164.882   3.307  28.042  1.00  0.00     0.294 A 
HETATM   11  O8  UNL     1     164.996   2.804  26.909  1.00  0.00    -0.265 OA
HETATM   12  N7  UNL     1     165.941   3.355  28.865  1.00  0.00    -0.054 N 
ENDROOT
BRANCH   5  13
HETATM   13  C4  UNL     1     162.120   5.463  31.358  1.00  0.00     0.123 C 
HETATM   14  N3  UNL     1     161.059   5.543  32.070  1.00  0.00    -0.313 N 
ATOM     15  H3  UNL     1     160.202   5.154  31.677  1.00  0.00     0.185 HD
BRANCH  14  16
HETATM   16  N4  UNL     1     160.976   6.110  33.329  1.00  0.00    -0.300 N 
ATOM     17  H4  UNL     1     160.443   5.621  34.047  1.00  0.00     0.183 HD
BRANCH  16  18
HETATM   18  C5  UNL     1     161.615   7.378  33.682  1.00  0.00     0.327 C 
BRANCH  18  19
HETATM   19  O1  UNL     1     161.490   7.664  35.036  1.00  0.00    -0.367 OA
ATOM     20  H1  UNL     1     160.845   8.342  35.199  1.00  0.00     0.212 HD
ENDBRANCH  18  19
BRANCH  18  21
HETATM   21  C6  UNL     1     160.963   8.475  32.922  1.00  0.00     0.281 C 
HETATM   22  O2  UNL     1     159.899   8.200  32.314  1.00  0.00    -0.268 OA
HETATM   23  N5  UNL     1     161.480   9.793  32.853  1.00  0.00    -0.250 N 
ATOM     24  H5  UNL     1     162.342  10.033  33.341  1.00  0.00     0.181 HD
BRANCH  23  25
HETATM   25  S1  UNL     1     160.642  10.982  31.942  1.00  0.00     0.237 S 
HETATM   26  O3  UNL     1     159.298  11.285  32.551  1.00  0.00    -0.205 OA
HETATM   27  O4  UNL     1     160.377  10.482  30.551  1.00  0.00    -0.205 OA
BRANCH  25  28
HETATM   28  C7  UNL     1     161.565  12.520  31.869  1.00  0.00     0.209 C 
BRANCH  28  29
HETATM   29  C8  UNL     1     162.626  12.398  32.939  1.00  0.00    -0.002 A 
HETATM   30  C9  UNL     1     162.523  12.747  34.260  1.00  0.00     0.016 A 
HETATM   31  C10 UNL     1     163.597  12.550  35.032  1.00  0.00     0.008 A 
HETATM   32  C11 UNL     1     164.710  12.019  34.442  1.00  0.00     0.050 A 
HETATM   33  S2  UNL     1     164.221  11.808  32.822  1.00  0.00    -0.105 SA
ENDBRANCH  28  29
ENDBRANCH  25  28
ENDBRANCH  23  25
ENDBRANCH  18  21
ENDBRANCH  16  18
ENDBRANCH  14  16
ENDBRANCH   5  13
BRANCH   6  34
HETATM   34  O5  UNL     1     159.913   5.268  29.412  1.00  0.00    -0.357 OA
ATOM     35  H5  UNL     1     159.460   5.945  28.923  1.00  0.00     0.217 HD
ENDBRANCH   6  34
BRANCH   7  36
HETATM   36  N6  UNL     1     160.215   4.169  26.978  1.00  0.00    -0.113 N 
HETATM   37  O6  UNL     1     160.376   4.592  25.821  1.00  0.00    -0.532 OA
HETATM   38  O7  UNL     1     158.992   3.666  27.329  1.00  0.00    -0.532 OA
ENDBRANCH   7  36
BRANCH   1  39
HETATM   39  N1  UNL     1     166.802   3.954  30.882  1.00  0.00    -0.233 N 
ATOM     40  H12 UNL     1     167.145   3.089  31.301  1.00  0.00     0.174 HD
ATOM     41  H11 UNL     1     167.260   4.839  31.100  1.00  0.00     0.174 HD
ENDBRANCH   1  39
BRANCH  12  42
HETATM   42  N8  UNL     1     167.196   2.860  28.519  1.00  0.00    -0.321 N 
ATOM     43  H82 UNL     1     167.841   2.453  29.197  1.00  0.00     0.178 HD
ATOM     44  H81 UNL     1     167.483   2.908  27.542  1.00  0.00     0.178 HD
ENDBRANCH  12  42
TORSDOF 12
ENDMDL
MODEL 5
REMARK VINA RESULT: -7.705042780      5.855      7.862
REMARK  12 active torsions:
REMARK  status: ('A' for Active; 'I' for Inactive)
REMARK    1  A    between atoms: N1_1  and  C1_4 
REMARK    2  A    between atoms: C3_8  and  C4_9 
REMARK    3  A    between atoms: N3_10  and  N4_12 
REMARK    4  A    between atoms: N4_12  and  C5_14 
REMARK    5  A    between atoms: C5_14  and  O1_15 
REMARK    6  A    between atoms: C5_14  and  C6_17 
REMARK       I    between atoms: C6_17  and  N5_19 
REMARK    7  A    between atoms: N5_19  and  S1_21 
REMARK    8  A    between atoms: S1_21  and  C7_24 
REMARK    9  A    between atoms: C7_24  and  C8_25 
REMARK   10  A    between atoms: C12_30  and  O5_31 
REMARK   11  A    between atoms: C13_33  and  N6_34 
REMARK   12  A    between atoms: N7_41  and  N8_42 
ROOT
HETATM    1  C1  UNL     1     164.859  13.211  34.759  1.00  0.00     0.700 A 
HETATM    2  N2  UNL     1     163.741  13.350  33.999  1.00  0.00    -0.188 N 
ATOM      3  H2  UNL     1     163.561  14.256  33.565  1.00  0.00     0.184 HD
HETATM    4  C2  UNL     1     162.862  12.362  33.789  1.00  0.00     0.079 A 
HETATM    5  C3  UNL     1     161.709  12.510  33.002  1.00  0.00     0.045 A 
HETATM    6  C12 UNL     1     160.843  11.439  32.830  1.00  0.00     0.112 A 
HETATM    7  C13 UNL     1     161.118  10.194  33.445  1.00  0.00     0.138 A 
HETATM    8  C14 UNL     1     162.252  10.105  34.198  1.00  0.00     0.058 A 
HETATM    9  C15 UNL     1     163.124  11.150  34.384  1.00  0.00     0.065 A 
HETATM   10  C16 UNL     1     164.268  11.019  35.158  1.00  0.00     0.294 A 
HETATM   11  O8  UNL     1     164.488   9.913  35.688  1.00  0.00    -0.265 OA
HETATM   12  N7  UNL     1     165.125  12.035  35.343  1.00  0.00    -0.054 N 
ENDROOT
BRANCH   5  13
HETATM   13  C4  UNL     1     161.462  13.798  32.389  1.00  0.00     0.123 C 
HETATM   14  N3  UNL     1     161.954  14.236  31.290  1.00  0.00    -0.313 N 
ATOM     15  H3  UNL     1     162.589  13.618  30.784  1.00  0.00     0.185 HD
BRANCH  14  16
HETATM   16  N4  UNL     1     161.698  15.475  30.731  1.00  0.00    -0.300 N 
ATOM     17  H4  UNL     1     160.728  15.777  30.648  1.00  0.00     0.183 HD
BRANCH  16  18
HETATM   18  C5  UNL     1     162.748  16.374  30.254  1.00  0.00     0.327 C 
BRANCH  18  19
HETATM   19  O1  UNL     1     163.649  15.725  29.418  1.00  0.00    -0.367 OA
ATOM     20  H1  UNL     1     164.418  16.255  29.243  1.00  0.00     0.212 HD
ENDBRANCH  18  19
BRANCH  18  21
HETATM   21  C6  UNL     1     163.504  16.895  31.422  1.00  0.00     0.281 C 
HETATM   22  O2  UNL     1     162.907  16.926  32.527  1.00  0.00    -0.268 OA
HETATM   23  N5  UNL     1     164.844  17.350  31.347  1.00  0.00    -0.250 N 
ATOM     24  H5  UNL     1     165.344  17.331  30.458  1.00  0.00     0.181 HD
BRANCH  23  25
HETATM   25  S1  UNL     1     165.619  17.933  32.762  1.00  0.00     0.237 S 
HETATM   26  O3  UNL     1     165.425  16.986  33.917  1.00  0.00    -0.205 OA
HETATM   27  O4  UNL     1     165.022  19.246  33.181  1.00  0.00    -0.205 OA
BRANCH  25  28
HETATM   28  C7  UNL     1     167.387  18.124  32.509  1.00  0.00     0.209 C 
BRANCH  28  29
HETATM   29  C8  UNL     1     167.988  16.787  32.876  1.00  0.00    -0.002 A 
HETATM   30  C9  UNL     1     168.716  16.478  33.995  1.00  0.00     0.016 A 
HETATM   31  C10 UNL     1     169.153  15.220  34.115  1.00  0.00     0.008 A 
HETATM   32  C11 UNL     1     168.839  14.344  33.113  1.00  0.00     0.050 A 
HETATM   33  S2  UNL     1     167.940  15.307  32.030  1.00  0.00    -0.105 SA
ENDBRANCH  28  29
ENDBRANCH  25  28
ENDBRANCH  23  25
ENDBRANCH  18  21
ENDBRANCH  16  18
ENDBRANCH  14  16
ENDBRANCH   5  13
BRANCH   6  34
HETATM   34  O5  UNL     1     159.700  11.452  32.097  1.00  0.00    -0.357 OA
ATOM     35  H5  UNL     1     159.619  11.185  31.190  1.00  0.00     0.217 HD
ENDBRANCH   6  34
BRANCH   7  36
HETATM   36  N6  UNL     1     160.224   9.088  33.266  1.00  0.00    -0.113 N 
HETATM   37  O6  UNL     1     159.750   8.549  34.279  1.00  0.00    -0.532 OA
HETATM   38  O7  UNL     1     159.873   8.601  32.036  1.00  0.00    -0.532 OA
ENDBRANCH   7  36
BRANCH   1  39
HETATM   39  N1  UNL     1     165.680  14.200  34.933  1.00  0.00    -0.233 N 
ATOM     40  H12 UNL     1     165.304  15.142  35.047  1.00  0.00     0.174 HD
ATOM     41  H11 UNL     1     166.689  14.051  34.956  1.00  0.00     0.174 HD
ENDBRANCH   1  39
BRANCH  12  42
HETATM   42  N8  UNL     1     166.278  11.926  36.116  1.00  0.00    -0.321 N 
ATOM     43  H82 UNL     1     166.348  12.285  37.068  1.00  0.00     0.178 HD
ATOM     44  H81 UNL     1     167.092  11.464  35.709  1.00  0.00     0.178 HD
ENDBRANCH  12  42
TORSDOF 12
ENDMDL
