MODEL 1
REMARK VINA RESULT: -7.713531644      0.000      0.000
REMARK  11 active torsions:
REMARK  status: ('A' for Active; 'I' for Inactive)
REMARK    1  A    between atoms: N1_1  and  C1_4 
REMARK    2  A    between atoms: C2_10  and  N4_11 
REMARK    3  A    between atoms: C3_16  and  C4_17 
REMARK    4  A    between atoms: C4_17  and  N7_18 
REMARK    5  A    between atoms: N7_18  and  N8_19 
REMARK       I    between atoms: N8_19  and  C5_21 
REMARK    6  A    between atoms: C5_21  and  C6_23 
REMARK    7  A    between atoms: C9_28  and  N10_29 
REMARK    8  A    between atoms: N10_29  and  N11_31 
REMARK    9  A    between atoms: C10_34  and  C11_35 
REMARK   10  A    between atoms: C14_41  and  C15_42 
REMARK       I    between atoms: C15_42  and  N13_44 
REMARK   11  A    between atoms: N13_44  and  C16_46 
ROOT
HETATM    1  N4  UNL     1     163.636  14.385  32.751  1.00  0.00    -0.212 N 
HETATM    2  N5  UNL     1     164.903  14.444  33.235  1.00  0.00    -0.233 N 
ATOM      3  H5  UNL     1     165.604  15.125  32.941  1.00  0.00     0.209 HD
HETATM    4  N6  UNL     1     165.103  13.507  34.133  1.00  0.00    -0.281 N 
ATOM      5  H6  UNL     1     165.973  13.344  34.641  1.00  0.00     0.188 HD
HETATM    6  C3  UNL     1     163.936  12.775  34.275  1.00  0.00     0.114 A 
HETATM    7  C14 UNL     1     163.081  13.361  33.406  1.00  0.00     0.158 A 
ENDROOT
BRANCH   6   8
HETATM    8  C4  UNL     1     163.746  11.724  35.267  1.00  0.00     0.242 C 
BRANCH   8   9
HETATM    9  N7  UNL     1     163.310  10.622  34.953  1.00  0.00    -0.333 NA
BRANCH   9  10
HETATM   10  N8  UNL     1     163.057   9.384  34.846  1.00  0.00    -0.197 N 
HETATM   11  C5  UNL     1     162.861   8.571  33.602  1.00  0.00     0.304 C 
HETATM   12  O2  UNL     1     163.016   9.299  32.600  1.00  0.00    -0.263 OA
ATOM     13  H8  UNL     1     162.976   8.872  35.725  1.00  0.00     0.205 HD
BRANCH  11  14
HETATM   14  C6  UNL     1     162.544   7.190  33.802  1.00  0.00     0.146 A 
HETATM   15  N9  UNL     1     161.176   7.526  34.544  1.00  0.00    -0.345 N 
HETATM   16  C7  UNL     1     160.406   6.669  34.978  1.00  0.00     0.052 A 
ATOM     17  H9  UNL     1     160.924   8.507  34.666  1.00  0.00     0.167 HD
HETATM   18  C8  UNL     1     159.151   6.897  35.642  1.00  0.00     0.062 A 
HETATM   19  C13 UNL     1     160.764   5.367  34.808  1.00  0.00     0.035 A 
HETATM   20  C9  UNL     1     158.415   5.840  36.050  1.00  0.00     0.065 A 
HETATM   21  C10 UNL     1     158.761   4.532  35.892  1.00  0.00     0.058 A 
HETATM   22  C12 UNL     1     159.954   4.292  35.261  1.00  0.00     0.040 A 
HETATM   23  S1  UNL     1     162.176   5.589  34.034  1.00  0.00    -0.065 SA
BRANCH  20  24
HETATM   24  N10 UNL     1     157.173   6.133  36.706  1.00  0.00    -0.306 N 
ATOM     25  H10 UNL     1     156.352   5.574  36.475  1.00  0.00     0.186 HD
BRANCH  24  26
HETATM   26  N11 UNL     1     157.047   7.149  37.644  1.00  0.00    -0.345 N 
ATOM     27 2H11 UNL     1     157.528   8.030  37.458  1.00  0.00     0.176 HD
ATOM     28 1H11 UNL     1     156.499   7.043  38.498  1.00  0.00     0.176 HD
ENDBRANCH  24  26
ENDBRANCH  20  24
BRANCH  21  29
HETATM   29  C11 UNL     1     157.942   3.406  36.314  1.00  0.00     0.267 C 
HETATM   30  N12 UNL     1     158.593   2.262  36.913  1.00  0.00    -0.057 NA
HETATM   31  O3  UNL     1     156.721   3.420  36.172  1.00  0.00    -0.271 OA
ENDBRANCH  21  29
ENDBRANCH  11  14
ENDBRANCH   9  10
ENDBRANCH   8   9
ENDBRANCH   6   8
BRANCH   7  32
HETATM   32  C15 UNL     1     161.688  12.947  33.175  1.00  0.00     0.273 C 
HETATM   33  O4  UNL     1     160.784  13.627  33.716  1.00  0.00    -0.266 OA
HETATM   34  N13 UNL     1     161.358  11.847  32.379  1.00  0.00    -0.351 N 
ATOM     35  H13 UNL     1     162.117  11.333  31.933  1.00  0.00     0.163 HD
BRANCH  34  36
HETATM   36  C16 UNL     1     159.980  11.387  32.144  1.00  0.00     0.085 A 
HETATM   37  C17 UNL     1     159.551  10.093  32.858  1.00  0.00     0.027 A 
HETATM   38  C18 UNL     1     159.884  10.089  31.409  1.00  0.00     0.027 A 
ENDBRANCH  34  36
ENDBRANCH   7  32
BRANCH   1  39
HETATM   39  C2  UNL     1     163.183  15.246  31.737  1.00  0.00     0.196 A 
HETATM   40  C1  UNL     1     163.320  16.614  31.651  1.00  0.00     0.169 A 
HETATM   41  N2  UNL     1     162.852  16.947  30.457  1.00  0.00    -0.222 N 
HETATM   42  O1  UNL     1     162.446  15.886  29.822  1.00  0.00    -0.153 OA
ATOM     43  H2  UNL     1     162.815  17.897  30.088  1.00  0.00     0.198 HD
HETATM   44  N3  UNL     1     162.622  14.834  30.547  1.00  0.00    -0.220 N 
ATOM     45  H3  UNL     1     162.389  13.876  30.287  1.00  0.00     0.198 HD
BRANCH  40  46
HETATM   46  N1  UNL     1     163.931  17.386  32.540  1.00  0.00    -0.381 N 
ATOM     47  H12 UNL     1     163.773  18.386  32.666  1.00  0.00     0.157 HD
ATOM     48  H11 UNL     1     164.555  17.108  33.297  1.00  0.00     0.157 HD
ENDBRANCH  40  46
ENDBRANCH   1  39
TORSDOF 11
ENDMDL
MODEL 2
REMARK VINA RESULT: -7.621621180      2.223      3.745
REMARK  11 active torsions:
REMARK  status: ('A' for Active; 'I' for Inactive)
REMARK    1  A    between atoms: N1_1  and  C1_4 
REMARK    2  A    between atoms: C2_10  and  N4_11 
REMARK    3  A    between atoms: C3_16  and  C4_17 
REMARK    4  A    between atoms: C4_17  and  N7_18 
REMARK    5  A    between atoms: N7_18  and  N8_19 
REMARK       I    between atoms: N8_19  and  C5_21 
REMARK    6  A    between atoms: C5_21  and  C6_23 
REMARK    7  A    between atoms: C9_28  and  N10_29 
REMARK    8  A    between atoms: N10_29  and  N11_31 
REMARK    9  A    between atoms: C10_34  and  C11_35 
REMARK   10  A    between atoms: C14_41  and  C15_42 
REMARK       I    between atoms: C15_42  and  N13_44 
REMARK   11  A    between atoms: N13_44  and  C16_46 
ROOT
HETATM    1  N4  UNL     1     163.690  15.869  30.917  1.00  0.00    -0.212 N 
HETATM    2  N5  UNL     1     162.529  16.347  30.401  1.00  0.00    -0.233 N 
ATOM      3  H5  UNL     1     162.460  17.151  29.778  1.00  0.00     0.209 HD
HETATM    4  N6  UNL     1     161.505  15.634  30.814  1.00  0.00    -0.281 N 
ATOM      5  H6  UNL     1     160.529  15.794  30.567  1.00  0.00     0.188 HD
HETATM    6  C3  UNL     1     161.976  14.628  31.643  1.00  0.00     0.114 A 
HETATM    7  C14 UNL     1     163.314  14.827  31.664  1.00  0.00     0.158 A 
ENDROOT
BRANCH   6   8
HETATM    8  C4  UNL     1     161.140  13.570  32.197  1.00  0.00     0.242 C 
BRANCH   8   9
HETATM    9  N7  UNL     1     161.346  12.391  31.933  1.00  0.00    -0.333 NA
BRANCH   9  10
HETATM   10  N8  UNL     1     161.540  11.138  31.968  1.00  0.00    -0.197 N 
HETATM   11  C5  UNL     1     160.662  10.038  31.451  1.00  0.00     0.304 C 
HETATM   12  O2  UNL     1     159.650  10.532  30.911  1.00  0.00    -0.263 OA
ATOM     13  H8  UNL     1     162.411  10.838  32.407  1.00  0.00     0.205 HD
BRANCH  11  14
HETATM   14  C6  UNL     1     161.133   8.706  31.675  1.00  0.00     0.146 A 
HETATM   15  N9  UNL     1     160.243   8.522  32.981  1.00  0.00    -0.345 N 
HETATM   16  C7  UNL     1     160.226   7.492  33.657  1.00  0.00     0.052 A 
ATOM     17  H9  UNL     1     159.653   9.301  33.275  1.00  0.00     0.167 HD
HETATM   18  C8  UNL     1     159.439   7.249  34.835  1.00  0.00     0.062 A 
HETATM   19  C13 UNL     1     161.023   6.468  33.250  1.00  0.00     0.035 A 
HETATM   20  C9  UNL     1     159.527   6.053  35.457  1.00  0.00     0.065 A 
HETATM   21  C10 UNL     1     160.323   5.020  35.066  1.00  0.00     0.058 A 
HETATM   22  C12 UNL     1     161.083   5.231  33.945  1.00  0.00     0.040 A 
HETATM   23  S1  UNL     1     161.680   7.161  31.934  1.00  0.00    -0.065 SA
BRANCH  20  24
HETATM   24  N10 UNL     1     158.717   5.873  36.628  1.00  0.00    -0.306 N 
ATOM     25  H10 UNL     1     158.867   5.047  37.206  1.00  0.00     0.186 HD
BRANCH  24  26
HETATM   26  N11 UNL     1     157.736   6.781  37.003  1.00  0.00    -0.345 N 
ATOM     27 2H11 UNL     1     157.324   7.364  36.273  1.00  0.00     0.176 HD
ATOM     28 1H11 UNL     1     157.421   6.881  37.968  1.00  0.00     0.176 HD
ENDBRANCH  24  26
ENDBRANCH  20  24
BRANCH  21  29
HETATM   29  C11 UNL     1     160.386   3.729  35.734  1.00  0.00     0.267 C 
HETATM   30  N12 UNL     1     159.238   2.852  35.653  1.00  0.00    -0.057 NA
HETATM   31  O3  UNL     1     161.389   3.381  36.353  1.00  0.00    -0.271 OA
ENDBRANCH  21  29
ENDBRANCH  11  14
ENDBRANCH   9  10
ENDBRANCH   8   9
ENDBRANCH   6   8
BRANCH   7  32
HETATM   32  C15 UNL     1     164.281  14.011  32.413  1.00  0.00     0.273 C 
HETATM   33  O4  UNL     1     165.080  13.306  31.753  1.00  0.00    -0.266 OA
HETATM   34  N13 UNL     1     164.335  14.011  33.810  1.00  0.00    -0.351 N 
ATOM     35  H13 UNL     1     163.687  14.616  34.314  1.00  0.00     0.163 HD
BRANCH  34  36
HETATM   36  C16 UNL     1     165.271  13.191  34.596  1.00  0.00     0.085 A 
HETATM   37  C17 UNL     1     164.790  12.730  35.983  1.00  0.00     0.027 A 
HETATM   38  C18 UNL     1     165.760  13.848  35.846  1.00  0.00     0.027 A 
ENDBRANCH  34  36
ENDBRANCH   7  32
BRANCH   1  39
HETATM   39  C2  UNL     1     164.927  16.489  30.673  1.00  0.00     0.196 A 
HETATM   40  C1  UNL     1     165.940  16.076  29.836  1.00  0.00     0.169 A 
HETATM   41  N2  UNL     1     166.834  17.054  29.845  1.00  0.00    -0.222 N 
HETATM   42  O1  UNL     1     166.435  18.019  30.621  1.00  0.00    -0.153 OA
ATOM     43  H2  UNL     1     167.709  17.051  29.320  1.00  0.00     0.198 HD
HETATM   44  N3  UNL     1     165.293  17.731  31.145  1.00  0.00    -0.220 N 
ATOM     45  H3  UNL     1     164.759  18.314  31.790  1.00  0.00     0.198 HD
BRANCH  40  46
HETATM   46  N1  UNL     1     165.923  14.984  29.083  1.00  0.00    -0.381 N 
ATOM     47  H12 UNL     1     166.424  14.862  28.202  1.00  0.00     0.157 HD
ATOM     48  H11 UNL     1     165.516  14.074  29.297  1.00  0.00     0.157 HD
ENDBRANCH  40  46
ENDBRANCH   1  39
TORSDOF 11
ENDMDL
MODEL 3
REMARK VINA RESULT: -7.620355119      2.894     10.846
REMARK  11 active torsions:
REMARK  status: ('A' for Active; 'I' for Inactive)
REMARK    1  A    between atoms: N1_1  and  C1_4 
REMARK    2  A    between atoms: C2_10  and  N4_11 
REMARK    3  A    between atoms: C3_16  and  C4_17 
REMARK    4  A    between atoms: C4_17  and  N7_18 
REMARK    5  A    between atoms: N7_18  and  N8_19 
REMARK       I    between atoms: N8_19  and  C5_21 
REMARK    6  A    between atoms: C5_21  and  C6_23 
REMARK    7  A    between atoms: C9_28  and  N10_29 
REMARK    8  A    between atoms: N10_29  and  N11_31 
REMARK    9  A    between atoms: C10_34  and  C11_35 
REMARK   10  A    between atoms: C14_41  and  C15_42 
REMARK       I    between atoms: C15_42  and  N13_44 
REMARK   11  A    between atoms: N13_44  and  C16_46 
ROOT
HETATM    1  N4  UNL     1     160.001   5.660  35.919  1.00  0.00    -0.212 N 
HETATM    2  N5  UNL     1     158.888   5.549  35.150  1.00  0.00    -0.233 N 
ATOM      3  H5  UNL     1     158.216   4.784  35.213  1.00  0.00     0.209 HD
HETATM    4  N6  UNL     1     158.794   6.559  34.315  1.00  0.00    -0.281 N 
ATOM      5  H6  UNL     1     158.049   6.702  33.635  1.00  0.00     0.188 HD
HETATM    6  C3  UNL     1     159.879   7.397  34.514  1.00  0.00     0.114 A 
HETATM    7  C14 UNL     1     160.576   6.793  35.504  1.00  0.00     0.158 A 
ENDROOT
BRANCH   6   8
HETATM    8  C4  UNL     1     160.052   8.681  33.846  1.00  0.00     0.242 C 
BRANCH   8   9
HETATM    9  N7  UNL     1     161.117   9.286  33.895  1.00  0.00    -0.333 NA
BRANCH   9  10
HETATM   10  N8  UNL     1     162.033  10.161  33.975  1.00  0.00    -0.197 N 
HETATM   11  C5  UNL     1     162.341  11.283  33.031  1.00  0.00     0.304 C 
HETATM   12  O2  UNL     1     161.512  11.282  32.097  1.00  0.00    -0.263 OA
ATOM     13  H8  UNL     1     162.641  10.091  34.791  1.00  0.00     0.205 HD
BRANCH  11  14
HETATM   14  C6  UNL     1     163.474  12.090  33.368  1.00  0.00     0.146 A 
HETATM   15  N9  UNL     1     162.844  13.395  32.708  1.00  0.00    -0.345 N 
HETATM   16  C7  UNL     1     163.406  14.491  32.691  1.00  0.00     0.052 A 
ATOM     17  H9  UNL     1     161.924  13.319  32.274  1.00  0.00     0.167 HD
HETATM   18  C8  UNL     1     162.895  15.711  32.130  1.00  0.00     0.062 A 
HETATM   19  C13 UNL     1     164.634  14.569  33.271  1.00  0.00     0.035 A 
HETATM   20  C9  UNL     1     163.636  16.838  32.205  1.00  0.00     0.065 A 
HETATM   21  C10 UNL     1     164.868  16.932  32.777  1.00  0.00     0.058 A 
HETATM   22  C12 UNL     1     165.375  15.780  33.318  1.00  0.00     0.040 A 
HETATM   23  S1  UNL     1     164.787  13.026  33.759  1.00  0.00    -0.065 SA
BRANCH  20  24
HETATM   24  N10 UNL     1     163.070  18.023  31.626  1.00  0.00    -0.306 N 
ATOM     25  H10 UNL     1     162.633  18.710  32.241  1.00  0.00     0.186 HD
BRANCH  24  26
HETATM   26  N11 UNL     1     163.095  18.270  30.260  1.00  0.00    -0.345 N 
ATOM     27 2H11 UNL     1     163.971  18.595  29.852  1.00  0.00     0.176 HD
ATOM     28 1H11 UNL     1     162.277  18.138  29.664  1.00  0.00     0.176 HD
ENDBRANCH  24  26
ENDBRANCH  20  24
BRANCH  21  29
HETATM   29  C11 UNL     1     165.641  18.162  32.872  1.00  0.00     0.267 C 
HETATM   30  N12 UNL     1     166.897  18.247  32.161  1.00  0.00    -0.057 NA
HETATM   31  O3  UNL     1     165.240  19.115  33.537  1.00  0.00    -0.271 OA
ENDBRANCH  21  29
ENDBRANCH  11  14
ENDBRANCH   9  10
ENDBRANCH   8   9
ENDBRANCH   6   8
BRANCH   7  32
HETATM   32  C15 UNL     1     161.831   7.293  36.087  1.00  0.00     0.273 C 
HETATM   33  O4  UNL     1     162.902   6.786  35.680  1.00  0.00    -0.266 OA
HETATM   34  N13 UNL     1     161.855   8.304  37.053  1.00  0.00    -0.351 N 
ATOM     35  H13 UNL     1     160.966   8.711  37.341  1.00  0.00     0.163 HD
BRANCH  34  36
HETATM   36  C16 UNL     1     163.086   8.813  37.677  1.00  0.00     0.085 A 
HETATM   37  C17 UNL     1     162.956  10.092  38.522  1.00  0.00     0.027 A 
HETATM   38  C18 UNL     1     163.535  10.140  37.153  1.00  0.00     0.027 A 
ENDBRANCH  34  36
ENDBRANCH   7  32
BRANCH   1  39
HETATM   39  C2  UNL     1     160.363   4.678  36.857  1.00  0.00     0.196 A 
HETATM   40  C1  UNL     1     161.394   3.768  36.788  1.00  0.00     0.169 A 
HETATM   41  N2  UNL     1     161.410   3.153  37.962  1.00  0.00    -0.222 N 
HETATM   42  O1  UNL     1     160.469   3.624  38.727  1.00  0.00    -0.153 OA
ATOM     43  H2  UNL     1     162.065   2.418  38.227  1.00  0.00     0.198 HD
HETATM   44  N3  UNL     1     159.808   4.545  38.112  1.00  0.00    -0.220 N 
ATOM     45  H3  UNL     1     159.021   5.075  38.485  1.00  0.00     0.198 HD
BRANCH  40  46
HETATM   46  N1  UNL     1     162.262   3.659  35.790  1.00  0.00    -0.381 N 
ATOM     47  H12 UNL     1     163.264   3.493  35.890  1.00  0.00     0.157 HD
ATOM     48  H11 UNL     1     162.072   3.610  34.789  1.00  0.00     0.157 HD
ENDBRANCH  40  46
ENDBRANCH   1  39
TORSDOF 11
ENDMDL
MODEL 4
REMARK VINA RESULT: -7.572417586      2.229      3.479
REMARK  11 active torsions:
REMARK  status: ('A' for Active; 'I' for Inactive)
REMARK    1  A    between atoms: N1_1  and  C1_4 
REMARK    2  A    between atoms: C2_10  and  N4_11 
REMARK    3  A    between atoms: C3_16  and  C4_17 
REMARK    4  A    between atoms: C4_17  and  N7_18 
REMARK    5  A    between atoms: N7_18  and  N8_19 
REMARK       I    between atoms: N8_19  and  C5_21 
REMARK    6  A    between atoms: C5_21  and  C6_23 
REMARK    7  A    between atoms: C9_28  and  N10_29 
REMARK    8  A    between atoms: N10_29  and  N11_31 
REMARK    9  A    between atoms: C10_34  and  C11_35 
REMARK   10  A    between atoms: C14_41  and  C15_42 
REMARK       I    between atoms: C15_42  and  N13_44 
REMARK   11  A    between atoms: N13_44  and  C16_46 
ROOT
HETATM    1  N4  UNL     1     163.733  15.826  30.605  1.00  0.00    -0.212 N 
HETATM    2  N5  UNL     1     162.579  16.295  30.066  1.00  0.00    -0.233 N 
ATOM      3  H5  UNL     1     162.527  17.017  29.348  1.00  0.00     0.209 HD
HETATM    4  N6  UNL     1     161.539  15.691  30.594  1.00  0.00    -0.281 N 
ATOM      5  H6  UNL     1     160.563  15.868  30.356  1.00  0.00     0.188 HD
HETATM    6  C3  UNL     1     161.989  14.775  31.530  1.00  0.00     0.114 A 
HETATM    7  C14 UNL     1     163.335  14.906  31.488  1.00  0.00     0.158 A 
ENDROOT
BRANCH   6   8
HETATM    8  C4  UNL     1     161.124  13.838  32.237  1.00  0.00     0.242 C 
BRANCH   8   9
HETATM    9  N7  UNL     1     161.156  12.636  31.998  1.00  0.00    -0.333 NA
BRANCH   9  10
HETATM   10  N8  UNL     1     161.362  11.384  32.010  1.00  0.00    -0.197 N 
HETATM   11  C5  UNL     1     160.387  10.272  31.762  1.00  0.00     0.304 C 
HETATM   12  O2  UNL     1     159.267  10.753  31.490  1.00  0.00    -0.263 OA
ATOM     13  H8  UNL     1     162.318  11.095  32.216  1.00  0.00     0.205 HD
BRANCH  11  14
HETATM   14  C6  UNL     1     160.909   8.946  31.885  1.00  0.00     0.146 A 
HETATM   15  N9  UNL     1     160.073   8.651  33.208  1.00  0.00    -0.345 N 
HETATM   16  C7  UNL     1     160.114   7.583  33.818  1.00  0.00     0.052 A 
ATOM     17  H9  UNL     1     159.469   9.390  33.570  1.00  0.00     0.167 HD
HETATM   18  C8  UNL     1     159.378   7.241  35.005  1.00  0.00     0.062 A 
HETATM   19  C13 UNL     1     160.928   6.613  33.321  1.00  0.00     0.035 A 
HETATM   20  C9  UNL     1     159.528   6.013  35.548  1.00  0.00     0.065 A 
HETATM   21  C10 UNL     1     160.342   5.034  35.066  1.00  0.00     0.058 A 
HETATM   22  C12 UNL     1     161.054   5.339  33.935  1.00  0.00     0.040 A 
HETATM   23  S1  UNL     1     161.514   7.407  32.029  1.00  0.00    -0.065 SA
BRANCH  20  24
HETATM   24  N10 UNL     1     158.766   5.734  36.732  1.00  0.00    -0.306 N 
ATOM     25  H10 UNL     1     159.019   4.924  37.298  1.00  0.00     0.186 HD
BRANCH  24  26
HETATM   26  N11 UNL     1     157.699   6.525  37.136  1.00  0.00    -0.345 N 
ATOM     27 2H11 UNL     1     156.757   6.185  36.942  1.00  0.00     0.176 HD
ATOM     28 1H11 UNL     1     157.827   7.418  37.612  1.00  0.00     0.176 HD
ENDBRANCH  24  26
ENDBRANCH  20  24
BRANCH  21  29
HETATM   29  C11 UNL     1     160.470   3.707  35.650  1.00  0.00     0.267 C 
HETATM   30  N12 UNL     1     160.023   2.566  34.881  1.00  0.00    -0.057 NA
HETATM   31  O3  UNL     1     160.950   3.549  36.770  1.00  0.00    -0.271 OA
ENDBRANCH  21  29
ENDBRANCH  11  14
ENDBRANCH   9  10
ENDBRANCH   8   9
ENDBRANCH   6   8
BRANCH   7  32
HETATM   32  C15 UNL     1     164.288  14.142  32.308  1.00  0.00     0.273 C 
HETATM   33  O4  UNL     1     164.845  14.739  33.259  1.00  0.00    -0.266 OA
HETATM   34  N13 UNL     1     164.573  12.796  32.062  1.00  0.00    -0.351 N 
ATOM     35  H13 UNL     1     164.082  12.335  31.296  1.00  0.00     0.163 HD
BRANCH  34  36
HETATM   36  C16 UNL     1     165.538  12.005  32.842  1.00  0.00     0.085 A 
HETATM   37  C17 UNL     1     165.342  10.479  32.842  1.00  0.00     0.027 A 
HETATM   38  C18 UNL     1     164.943  11.297  34.017  1.00  0.00     0.027 A 
ENDBRANCH  34  36
ENDBRANCH   7  32
BRANCH   1  39
HETATM   39  C2  UNL     1     164.990  16.347  30.251  1.00  0.00     0.196 A 
HETATM   40  C1  UNL     1     165.797  17.199  30.971  1.00  0.00     0.169 A 
HETATM   41  N2  UNL     1     166.925  17.292  30.283  1.00  0.00    -0.222 N 
HETATM   42  O1  UNL     1     166.857  16.563  29.208  1.00  0.00    -0.153 OA
ATOM     43  H2  UNL     1     167.731  17.854  30.557  1.00  0.00     0.198 HD
HETATM   44  N3  UNL     1     165.713  15.972  29.138  1.00  0.00    -0.220 N 
ATOM     45  H3  UNL     1     165.401  15.344  28.398  1.00  0.00     0.198 HD
BRANCH  40  46
HETATM   46  N1  UNL     1     165.522  17.691  32.173  1.00  0.00    -0.381 N 
ATOM     47  H12 UNL     1     166.173  17.740  32.957  1.00  0.00     0.157 HD
ATOM     48  H11 UNL     1     164.685  18.188  32.477  1.00  0.00     0.157 HD
ENDBRANCH  40  46
ENDBRANCH   1  39
TORSDOF 11
ENDMDL
MODEL 5
REMARK VINA RESULT: -7.534101293      2.187      3.938
REMARK  11 active torsions:
REMARK  status: ('A' for Active; 'I' for Inactive)
REMARK    1  A    between atoms: N1_1  and  C1_4 
REMARK    2  A    between atoms: C2_10  and  N4_11 
REMARK    3  A    between atoms: C3_16  and  C4_17 
REMARK    4  A    between atoms: C4_17  and  N7_18 
REMARK    5  A    between atoms: N7_18  and  N8_19 
REMARK       I    between atoms: N8_19  and  C5_21 
REMARK    6  A    between atoms: C5_21  and  C6_23 
REMARK    7  A    between atoms: C9_28  and  N10_29 
REMARK    8  A    between atoms: N10_29  and  N11_31 
REMARK    9  A    between atoms: C10_34  and  C11_35 
REMARK   10  A    between atoms: C14_41  and  C15_42 
REMARK       I    between atoms: C15_42  and  N13_44 
REMARK   11  A    between atoms: N13_44  and  C16_46 
ROOT
HETATM    1  N4  UNL     1     163.186  16.672  30.742  1.00  0.00    -0.212 N 
HETATM    2  N5  UNL     1     162.013  16.230  30.219  1.00  0.00    -0.233 N 
ATOM      3  H5  UNL     1     161.592  16.586  29.361  1.00  0.00     0.209 HD
HETATM    4  N6  UNL     1     161.496  15.283  30.968  1.00  0.00    -0.281 N 
ATOM      5  H6  UNL     1     160.620  14.792  30.788  1.00  0.00     0.188 HD
HETATM    6  C3  UNL     1     162.339  15.062  32.045  1.00  0.00     0.114 A 
HETATM    7  C14 UNL     1     163.349  15.940  31.848  1.00  0.00     0.158 A 
ENDROOT
BRANCH   6   8
HETATM    8  C4  UNL     1     162.148  14.003  33.028  1.00  0.00     0.242 C 
BRANCH   8   9
HETATM    9  N7  UNL     1     162.094  12.824  32.693  1.00  0.00    -0.333 NA
BRANCH   9  10
HETATM   10  N8  UNL     1     162.094  11.556  32.649  1.00  0.00    -0.197 N 
HETATM   11  C5  UNL     1     160.925  10.621  32.591  1.00  0.00     0.304 C 
HETATM   12  O2  UNL     1     159.865  11.280  32.557  1.00  0.00    -0.263 OA
ATOM     13  H8  UNL     1     163.014  11.114  32.654  1.00  0.00     0.205 HD
BRANCH  11  14
HETATM   14  C6  UNL     1     161.241   9.225  32.592  1.00  0.00     0.146 A 
HETATM   15  N9  UNL     1     160.280   8.924  33.825  1.00  0.00    -0.345 N 
HETATM   16  C7  UNL     1     160.124   7.804  34.311  1.00  0.00     0.052 A 
ATOM     17  H9  UNL     1     159.764   9.703  34.234  1.00  0.00     0.167 HD
HETATM   18  C8  UNL     1     159.265   7.455  35.410  1.00  0.00     0.062 A 
HETATM   19  C13 UNL     1     160.825   6.780  33.753  1.00  0.00     0.035 A 
HETATM   20  C9  UNL     1     159.198   6.169  35.818  1.00  0.00     0.065 A 
HETATM   21  C10 UNL     1     159.896   5.134  35.273  1.00  0.00     0.058 A 
HETATM   22  C12 UNL     1     160.722   5.444  34.224  1.00  0.00     0.040 A 
HETATM   23  S1  UNL     1     161.607   7.607  32.593  1.00  0.00    -0.065 SA
BRANCH  20  24
HETATM   24  N10 UNL     1     158.323   5.885  36.919  1.00  0.00    -0.306 N 
ATOM     25  H10 UNL     1     158.460   5.022  37.445  1.00  0.00     0.186 HD
BRANCH  24  26
HETATM   26  N11 UNL     1     157.297   6.742  37.296  1.00  0.00    -0.345 N 
ATOM     27 2H11 UNL     1     157.445   7.743  37.171  1.00  0.00     0.176 HD
ATOM     28 1H11 UNL     1     156.417   6.405  37.687  1.00  0.00     0.176 HD
ENDBRANCH  24  26
ENDBRANCH  20  24
BRANCH  21  29
HETATM   29  C11 UNL     1     159.791   3.749  35.709  1.00  0.00     0.267 C 
HETATM   30  N12 UNL     1     159.912   3.457  37.121  1.00  0.00    -0.057 NA
HETATM   31  O3  UNL     1     159.599   2.842  34.903  1.00  0.00    -0.271 OA
ENDBRANCH  21  29
ENDBRANCH  11  14
ENDBRANCH   9  10
ENDBRANCH   8   9
ENDBRANCH   6   8
BRANCH   7  32
HETATM   32  C15 UNL     1     164.516  16.103  32.730  1.00  0.00     0.273 C 
HETATM   33  O4  UNL     1     164.627  17.186  33.350  1.00  0.00    -0.266 OA
HETATM   34  N13 UNL     1     165.473  15.098  32.895  1.00  0.00    -0.351 N 
ATOM     35  H13 UNL     1     165.337  14.220  32.396  1.00  0.00     0.163 HD
BRANCH  34  36
HETATM   36  C16 UNL     1     166.666  15.232  33.747  1.00  0.00     0.085 A 
HETATM   37  C17 UNL     1     167.586  14.004  33.847  1.00  0.00     0.027 A 
HETATM   38  C18 UNL     1     166.658  14.351  34.955  1.00  0.00     0.027 A 
ENDBRANCH  34  36
ENDBRANCH   7  32
BRANCH   1  39
HETATM   39  C2  UNL     1     163.915  17.723  30.160  1.00  0.00     0.196 A 
HETATM   40  C1  UNL     1     165.092  17.656  29.449  1.00  0.00     0.169 A 
HETATM   41  N2  UNL     1     165.309  18.883  28.997  1.00  0.00    -0.222 N 
HETATM   42  O1  UNL     1     164.353  19.678  29.382  1.00  0.00    -0.153 OA
ATOM     43  H2  UNL     1     166.108  19.164  28.430  1.00  0.00     0.198 HD
HETATM   44  N3  UNL     1     163.487  19.032  30.086  1.00  0.00    -0.220 N 
ATOM     45  H3  UNL     1     162.643  19.417  30.509  1.00  0.00     0.198 HD
BRANCH  40  46
HETATM   46  N1  UNL     1     165.766  16.547  29.174  1.00  0.00    -0.381 N 
ATOM     47  H12 UNL     1     165.358  15.622  29.040  1.00  0.00     0.157 HD
ATOM     48  H11 UNL     1     166.755  16.448  28.945  1.00  0.00     0.157 HD
ENDBRANCH  40  46
ENDBRANCH   1  39
TORSDOF 11
ENDMDL
