MODEL 1
REMARK VINA RESULT: -7.623227402      0.000      0.000
REMARK  10 active torsions:
REMARK  status: ('A' for Active; 'I' for Inactive)
REMARK    1  A    between atoms: N3_8  and  C4_10 
REMARK    2  A    between atoms: C7_13  and  N4_14 
REMARK    3  A    between atoms: N4_14  and  S1_16 
REMARK    4  A    between atoms: S1_16  and  C8_19 
REMARK    5  A    between atoms: C12_25  and  N6_26 
REMARK    6  A    between atoms: N6_26  and  C13_28 
REMARK    7  A    between atoms: C13_28  and  C14_29 
REMARK    8  A    between atoms: C14_29  and  C15_30 
REMARK    9  A    between atoms: C15_30  and  C16_31 
REMARK   10  A    between atoms: C16_31  and  C17_32 
ROOT
HETATM    1  C1  UNL     1      26.796  41.763  32.230  1.00  0.00     0.048 C 
HETATM    2  C2  UNL     1      27.219  41.844  30.985  1.00  0.00     0.083 A 
HETATM    3  N1  UNL     1      26.588  40.974  30.021  1.00  0.00    -0.284 N 
ATOM      4  H1  UNL     1      25.848  40.332  30.308  1.00  0.00     0.187 HD
HETATM    5  N2  UNL     1      27.006  41.023  28.690  1.00  0.00    -0.132 N 
ATOM      6  H2  UNL     1      26.559  40.406  28.011  1.00  0.00     0.205 HD
HETATM    7  C3  UNL     1      28.030  41.900  28.246  1.00  0.00     0.694 A 
HETATM    8  N3  UNL     1      28.370  41.904  27.026  1.00  0.00    -0.220 N 
ATOM      9  H3  UNL     1      29.113  42.560  26.788  1.00  0.00     0.178 HD
HETATM   10  N5  UNL     1      28.659  42.758  29.170  1.00  0.00    -0.173 N 
ATOM     11  H5  UNL     1      29.394  43.384  28.842  1.00  0.00     0.186 HD
HETATM   12  C12 UNL     1      28.285  42.777  30.596  1.00  0.00     0.148 A 
ENDROOT
BRANCH   8  13
HETATM   13  C4  UNL     1      27.878  41.136  25.937  1.00  0.00     0.099 C 
HETATM   14  C5  UNL     1      28.256  39.696  26.014  1.00  0.00     0.028 C 
HETATM   15  C6  UNL     1      28.875  39.277  24.688  1.00  0.00     0.028 C 
HETATM   16  C7  UNL     1      30.097  40.143  24.515  1.00  0.00     0.093 C 
HETATM   17  C10 UNL     1      29.690  41.528  24.211  1.00  0.00     0.028 C 
HETATM   18  C11 UNL     1      28.298  41.807  24.659  1.00  0.00     0.028 C 
BRANCH  16  19
HETATM   19  N4  UNL     1      31.063  39.574  23.618  1.00  0.00    -0.315 N 
ATOM     20  H4  UNL     1      31.223  39.935  22.677  1.00  0.00     0.172 HD
BRANCH  19  21
HETATM   21  S1  UNL     1      31.920  38.246  24.258  1.00  0.00     0.226 S 
HETATM   22  O1  UNL     1      33.183  37.940  23.523  1.00  0.00    -0.206 OA
HETATM   23  O2  UNL     1      31.046  37.026  24.177  1.00  0.00    -0.206 OA
BRANCH  21  24
HETATM   24  C8  UNL     1      32.209  38.565  25.986  1.00  0.00     0.158 C 
HETATM   25  C9  UNL     1      32.889  37.387  26.648  1.00  0.00     0.023 C 
ENDBRANCH  21  24
ENDBRANCH  19  21
ENDBRANCH  16  19
ENDBRANCH   8  13
BRANCH  12  26
HETATM   26  N6  UNL     1      28.849  43.541  31.351  1.00  0.00    -0.354 N 
ATOM     27  H6  UNL     1      28.222  44.346  31.351  1.00  0.00     0.166 HD
BRANCH  26  28
HETATM   28  C13 UNL     1      29.819  43.939  32.184  1.00  0.00     0.062 C 
BRANCH  28  29
HETATM   29  C14 UNL     1      29.654  43.545  33.660  1.00  0.00     0.044 C 
BRANCH  29  30
HETATM   30  C15 UNL     1      30.762  44.127  34.465  1.00  0.00     0.005 C 
BRANCH  30  31
HETATM   31  C16 UNL     1      30.206  44.944  35.599  1.00  0.00     0.000 C 
BRANCH  31  32
HETATM   32  C17 UNL     1      30.478  46.434  35.435  1.00  0.00    -0.005 C 
HETATM   33  C18 UNL     1      31.437  46.908  36.524  1.00  0.00     0.005 C 
ENDBRANCH  31  32
ENDBRANCH  30  31
ENDBRANCH  29  30
ENDBRANCH  28  29
ENDBRANCH  26  28
ENDBRANCH  12  26
TORSDOF 10
ENDMDL
MODEL 2
REMARK VINA RESULT: -7.402777659      0.971      1.385
REMARK  10 active torsions:
REMARK  status: ('A' for Active; 'I' for Inactive)
REMARK    1  A    between atoms: N3_8  and  C4_10 
REMARK    2  A    between atoms: C7_13  and  N4_14 
REMARK    3  A    between atoms: N4_14  and  S1_16 
REMARK    4  A    between atoms: S1_16  and  C8_19 
REMARK    5  A    between atoms: C12_25  and  N6_26 
REMARK    6  A    between atoms: N6_26  and  C13_28 
REMARK    7  A    between atoms: C13_28  and  C14_29 
REMARK    8  A    between atoms: C14_29  and  C15_30 
REMARK    9  A    between atoms: C15_30  and  C16_31 
REMARK   10  A    between atoms: C16_31  and  C17_32 
ROOT
HETATM    1  C1  UNL     1      26.720  41.731  32.184  1.00  0.00     0.048 C 
HETATM    2  C2  UNL     1      27.162  41.828  30.947  1.00  0.00     0.083 A 
HETATM    3  N1  UNL     1      26.497  41.023  29.949  1.00  0.00    -0.284 N 
ATOM      4  H1  UNL     1      25.720  40.414  30.208  1.00  0.00     0.187 HD
HETATM    5  N2  UNL     1      26.932  41.091  28.625  1.00  0.00    -0.132 N 
ATOM      6  H2  UNL     1      26.461  40.521  27.922  1.00  0.00     0.205 HD
HETATM    7  C3  UNL     1      28.008  41.924  28.220  1.00  0.00     0.694 A 
HETATM    8  N3  UNL     1      28.362  41.948  27.004  1.00  0.00    -0.220 N 
ATOM      9  H3  UNL     1      29.142  42.570  26.795  1.00  0.00     0.178 HD
HETATM   10  N5  UNL     1      28.671  42.718  29.176  1.00  0.00    -0.173 N 
ATOM     11  H5  UNL     1      29.442  43.313  28.876  1.00  0.00     0.186 HD
HETATM   12  C12 UNL     1      28.281  42.713  30.599  1.00  0.00     0.148 A 
ENDROOT
BRANCH   8  13
HETATM   13  C4  UNL     1      27.843  41.242  25.886  1.00  0.00     0.099 C 
HETATM   14  C5  UNL     1      28.121  39.779  25.933  1.00  0.00     0.028 C 
HETATM   15  C6  UNL     1      28.738  39.351  24.608  1.00  0.00     0.028 C 
HETATM   16  C7  UNL     1      30.019  40.137  24.482  1.00  0.00     0.093 C 
HETATM   17  C10 UNL     1      29.712  41.553  24.206  1.00  0.00     0.028 C 
HETATM   18  C11 UNL     1      28.333  41.914  24.635  1.00  0.00     0.028 C 
BRANCH  16  19
HETATM   19  N4  UNL     1      30.963  39.526  23.589  1.00  0.00    -0.315 N 
ATOM     20  H4  UNL     1      31.115  39.856  22.635  1.00  0.00     0.172 HD
BRANCH  19  21
HETATM   21  S1  UNL     1      31.808  38.203  24.257  1.00  0.00     0.226 S 
HETATM   22  O1  UNL     1      33.118  37.936  23.592  1.00  0.00    -0.206 OA
HETATM   23  O2  UNL     1      30.965  36.968  24.104  1.00  0.00    -0.206 OA
BRANCH  21  24
HETATM   24  C8  UNL     1      31.989  38.498  26.003  1.00  0.00     0.158 C 
HETATM   25  C9  UNL     1      32.865  37.443  26.642  1.00  0.00     0.023 C 
ENDBRANCH  21  24
ENDBRANCH  19  21
ENDBRANCH  16  19
ENDBRANCH   8  13
BRANCH  12  26
HETATM   26  N6  UNL     1      28.876  43.422  31.383  1.00  0.00    -0.354 N 
ATOM     27  H6  UNL     1      28.259  44.230  31.455  1.00  0.00     0.166 HD
BRANCH  26  28
HETATM   28  C13 UNL     1      29.877  43.756  32.209  1.00  0.00     0.062 C 
BRANCH  28  29
HETATM   29  C14 UNL     1      29.474  44.187  33.628  1.00  0.00     0.044 C 
BRANCH  29  30
HETATM   30  C15 UNL     1      30.382  43.558  34.624  1.00  0.00     0.005 C 
BRANCH  30  31
HETATM   31  C16 UNL     1      29.808  43.693  36.008  1.00  0.00     0.000 C 
BRANCH  31  32
HETATM   32  C17 UNL     1      28.922  42.515  36.391  1.00  0.00    -0.005 C 
HETATM   33  C18 UNL     1      29.254  42.057  37.809  1.00  0.00     0.005 C 
ENDBRANCH  31  32
ENDBRANCH  30  31
ENDBRANCH  29  30
ENDBRANCH  28  29
ENDBRANCH  26  28
ENDBRANCH  12  26
TORSDOF 10
ENDMDL
MODEL 3
REMARK VINA RESULT: -7.391398688      4.643      8.715
REMARK  10 active torsions:
REMARK  status: ('A' for Active; 'I' for Inactive)
REMARK    1  A    between atoms: N3_8  and  C4_10 
REMARK    2  A    between atoms: C7_13  and  N4_14 
REMARK    3  A    between atoms: N4_14  and  S1_16 
REMARK    4  A    between atoms: S1_16  and  C8_19 
REMARK    5  A    between atoms: C12_25  and  N6_26 
REMARK    6  A    between atoms: N6_26  and  C13_28 
REMARK    7  A    between atoms: C13_28  and  C14_29 
REMARK    8  A    between atoms: C14_29  and  C15_30 
REMARK    9  A    between atoms: C15_30  and  C16_31 
REMARK   10  A    between atoms: C16_31  and  C17_32 
ROOT
HETATM    1  C1  UNL     1      29.734  41.679  22.662  1.00  0.00     0.048 C 
HETATM    2  C2  UNL     1      29.466  41.526  23.943  1.00  0.00     0.083 A 
HETATM    3  N1  UNL     1      28.716  42.579  24.586  1.00  0.00    -0.284 N 
ATOM      4  H1  UNL     1      28.413  43.397  24.056  1.00  0.00     0.187 HD
HETATM    5  N2  UNL     1      28.411  42.461  25.943  1.00  0.00    -0.132 N 
ATOM      6  H2  UNL     1      27.882  43.207  26.394  1.00  0.00     0.205 HD
HETATM    7  C3  UNL     1      28.811  41.340  26.717  1.00  0.00     0.694 A 
HETATM    8  N3  UNL     1      28.507  41.284  27.946  1.00  0.00    -0.220 N 
ATOM      9  H3  UNL     1      28.832  40.449  28.431  1.00  0.00     0.178 HD
HETATM   10  N5  UNL     1      29.543  40.301  26.110  1.00  0.00    -0.173 N 
ATOM     11  H5  UNL     1      29.826  39.500  26.674  1.00  0.00     0.186 HD
HETATM   12  C12 UNL     1      29.912  40.338  24.682  1.00  0.00     0.148 A 
ENDROOT
BRANCH   8  13
HETATM   13  C4  UNL     1      27.785  42.203  28.752  1.00  0.00     0.099 C 
HETATM   14  C5  UNL     1      28.309  42.303  30.144  1.00  0.00     0.028 C 
HETATM   15  C6  UNL     1      27.154  42.129  31.120  1.00  0.00     0.028 C 
HETATM   16  C7  UNL     1      26.598  40.753  30.854  1.00  0.00     0.093 C 
HETATM   17  C10 UNL     1      25.881  40.743  29.564  1.00  0.00     0.028 C 
HETATM   18  C11 UNL     1      26.326  41.853  28.676  1.00  0.00     0.028 C 
BRANCH  16  19
HETATM   19  N4  UNL     1      25.865  40.221  31.968  1.00  0.00    -0.315 N 
ATOM     20  H4  UNL     1      25.459  40.810  32.695  1.00  0.00     0.172 HD
BRANCH  19  21
HETATM   21  S1  UNL     1      25.731  38.520  31.973  1.00  0.00     0.226 S 
HETATM   22  O1  UNL     1      24.467  38.020  31.356  1.00  0.00    -0.206 OA
HETATM   23  O2  UNL     1      25.757  38.041  33.397  1.00  0.00    -0.206 OA
BRANCH  21  24
HETATM   24  C8  UNL     1      27.177  37.857  31.174  1.00  0.00     0.158 C 
HETATM   25  C9  UNL     1      26.806  37.128  29.901  1.00  0.00     0.023 C 
ENDBRANCH  21  24
ENDBRANCH  19  21
ENDBRANCH  16  19
ENDBRANCH   8  13
BRANCH  12  26
HETATM   26  N6  UNL     1      30.534  39.413  24.203  1.00  0.00    -0.354 N 
ATOM     27  H6  UNL     1      29.968  39.170  23.391  1.00  0.00     0.166 HD
BRANCH  26  28
HETATM   28  C13 UNL     1      31.536  38.528  24.125  1.00  0.00     0.062 C 
BRANCH  28  29
HETATM   29  C14 UNL     1      32.615  38.622  25.214  1.00  0.00     0.044 C 
BRANCH  29  30
HETATM   30  C15 UNL     1      32.222  37.797  26.388  1.00  0.00     0.005 C 
BRANCH  30  31
HETATM   31  C16 UNL     1      33.250  36.728  26.640  1.00  0.00     0.000 C 
BRANCH  31  32
HETATM   32  C17 UNL     1      33.118  35.551  25.682  1.00  0.00    -0.005 C 
HETATM   33  C18 UNL     1      34.443  35.317  24.963  1.00  0.00     0.005 C 
ENDBRANCH  31  32
ENDBRANCH  30  31
ENDBRANCH  29  30
ENDBRANCH  28  29
ENDBRANCH  26  28
ENDBRANCH  12  26
TORSDOF 10
ENDMDL
MODEL 4
REMARK VINA RESULT: -7.327311701      2.541      3.936
REMARK  10 active torsions:
REMARK  status: ('A' for Active; 'I' for Inactive)
REMARK    1  A    between atoms: N3_8  and  C4_10 
REMARK    2  A    between atoms: C7_13  and  N4_14 
REMARK    3  A    between atoms: N4_14  and  S1_16 
REMARK    4  A    between atoms: S1_16  and  C8_19 
REMARK    5  A    between atoms: C12_25  and  N6_26 
REMARK    6  A    between atoms: N6_26  and  C13_28 
REMARK    7  A    between atoms: C13_28  and  C14_29 
REMARK    8  A    between atoms: C14_29  and  C15_30 
REMARK    9  A    between atoms: C15_30  and  C16_31 
REMARK   10  A    between atoms: C16_31  and  C17_32 
ROOT
HETATM    1  C1  UNL     1      29.773  43.295  35.577  1.00  0.00     0.048 C 
HETATM    2  C2  UNL     1      29.441  43.168  34.308  1.00  0.00     0.083 A 
HETATM    3  N1  UNL     1      28.284  42.357  34.011  1.00  0.00    -0.284 N 
ATOM      4  H1  UNL     1      27.757  41.911  34.763  1.00  0.00     0.187 HD
HETATM    5  N2  UNL     1      27.897  42.191  32.680  1.00  0.00    -0.132 N 
ATOM      6  H2  UNL     1      27.080  41.617  32.474  1.00  0.00     0.205 HD
HETATM    7  C3  UNL     1      28.600  42.793  31.603  1.00  0.00     0.694 A 
HETATM    8  N3  UNL     1      28.205  42.609  30.414  1.00  0.00    -0.220 N 
ATOM      9  H3  UNL     1      28.765  43.074  29.699  1.00  0.00     0.178 HD
HETATM   10  N5  UNL     1      29.732  43.588  31.871  1.00  0.00    -0.173 N 
ATOM     11  H5  UNL     1      30.231  44.017  31.091  1.00  0.00     0.186 HD
HETATM   12  C12 UNL     1      30.216  43.821  33.244  1.00  0.00     0.148 A 
ENDROOT
BRANCH   8  13
HETATM   13  C4  UNL     1      27.106  41.858  29.921  1.00  0.00     0.099 C 
HETATM   14  C5  UNL     1      27.498  40.520  29.393  1.00  0.00     0.028 C 
HETATM   15  C6  UNL     1      26.911  40.349  27.998  1.00  0.00     0.028 C 
HETATM   16  C7  UNL     1      27.512  41.452  27.164  1.00  0.00     0.093 C 
HETATM   17  C10 UNL     1      26.932  42.750  27.557  1.00  0.00     0.028 C 
HETATM   18  C11 UNL     1      26.360  42.708  28.931  1.00  0.00     0.028 C 
BRANCH  16  19
HETATM   19  N4  UNL     1      27.485  41.166  25.757  1.00  0.00    -0.315 N 
ATOM     20  H4  UNL     1      26.769  41.535  25.131  1.00  0.00     0.172 HD
BRANCH  19  21
HETATM   21  S1  UNL     1      28.752  40.158  25.220  1.00  0.00     0.226 S 
HETATM   22  O1  UNL     1      28.520  38.709  25.499  1.00  0.00    -0.206 OA
HETATM   23  O2  UNL     1      30.016  40.555  25.930  1.00  0.00    -0.206 OA
BRANCH  21  24
HETATM   24  C8  UNL     1      29.005  40.476  23.487  1.00  0.00     0.158 C 
HETATM   25  C9  UNL     1      29.786  41.755  23.280  1.00  0.00     0.023 C 
ENDBRANCH  21  24
ENDBRANCH  19  21
ENDBRANCH  16  19
ENDBRANCH   8  13
BRANCH  12  26
HETATM   26  N6  UNL     1      31.189  44.522  33.424  1.00  0.00    -0.354 N 
ATOM     27  H6  UNL     1      31.956  43.865  33.287  1.00  0.00     0.166 HD
BRANCH  26  28
HETATM   28  C13 UNL     1      31.837  45.662  33.697  1.00  0.00     0.062 C 
BRANCH  28  29
HETATM   29  C14 UNL     1      31.003  46.951  33.644  1.00  0.00     0.044 C 
BRANCH  29  30
HETATM   30  C15 UNL     1      29.883  46.869  34.620  1.00  0.00     0.005 C 
BRANCH  30  31
HETATM   31  C16 UNL     1      30.281  47.513  35.921  1.00  0.00     0.000 C 
BRANCH  31  32
HETATM   32  C17 UNL     1      31.162  46.610  36.775  1.00  0.00    -0.005 C 
HETATM   33  C18 UNL     1      32.519  47.272  36.998  1.00  0.00     0.005 C 
ENDBRANCH  31  32
ENDBRANCH  30  31
ENDBRANCH  29  30
ENDBRANCH  28  29
ENDBRANCH  26  28
ENDBRANCH  12  26
TORSDOF 10
ENDMDL
MODEL 5
REMARK VINA RESULT: -7.116887826      6.959     10.603
REMARK  10 active torsions:
REMARK  status: ('A' for Active; 'I' for Inactive)
REMARK    1  A    between atoms: N3_8  and  C4_10 
REMARK    2  A    between atoms: C7_13  and  N4_14 
REMARK    3  A    between atoms: N4_14  and  S1_16 
REMARK    4  A    between atoms: S1_16  and  C8_19 
REMARK    5  A    between atoms: C12_25  and  N6_26 
REMARK    6  A    between atoms: N6_26  and  C13_28 
REMARK    7  A    between atoms: C13_28  and  C14_29 
REMARK    8  A    between atoms: C14_29  and  C15_30 
REMARK    9  A    between atoms: C15_30  and  C16_31 
REMARK   10  A    between atoms: C16_31  and  C17_32 
ROOT
HETATM    1  C1  UNL     1      27.383  33.434  36.121  1.00  0.00     0.048 C 
HETATM    2  C2  UNL     1      27.611  34.732  36.085  1.00  0.00     0.083 A 
HETATM    3  N1  UNL     1      28.126  35.340  37.289  1.00  0.00    -0.284 N 
ATOM      4  H1  UNL     1      28.302  34.774  38.120  1.00  0.00     0.187 HD
HETATM    5  N2  UNL     1      28.380  36.712  37.298  1.00  0.00    -0.132 N 
ATOM      6  H2  UNL     1      28.744  37.139  38.151  1.00  0.00     0.205 HD
HETATM    7  C3  UNL     1      28.151  37.536  36.165  1.00  0.00     0.694 A 
HETATM    8  N3  UNL     1      28.399  38.776  36.229  1.00  0.00    -0.220 N 
ATOM      9  H3  UNL     1      28.207  39.298  35.374  1.00  0.00     0.178 HD
HETATM   10  N5  UNL     1      27.649  36.963  34.980  1.00  0.00    -0.173 N 
ATOM     11  H5  UNL     1      27.487  37.563  34.171  1.00  0.00     0.186 HD
HETATM   12  C12 UNL     1      27.351  35.523  34.875  1.00  0.00     0.148 A 
ENDROOT
BRANCH   8  13
HETATM   13  C4  UNL     1      28.904  39.554  37.304  1.00  0.00     0.099 C 
HETATM   14  C5  UNL     1      28.023  40.702  37.664  1.00  0.00     0.028 C 
HETATM   15  C6  UNL     1      28.863  41.972  37.711  1.00  0.00     0.028 C 
HETATM   16  C7  UNL     1      29.425  42.141  36.322  1.00  0.00     0.093 C 
HETATM   17  C10 UNL     1      30.465  41.125  36.076  1.00  0.00     0.028 C 
HETATM   18  C11 UNL     1      30.316  39.950  36.978  1.00  0.00     0.028 C 
BRANCH  16  19
HETATM   19  N4  UNL     1      29.808  43.495  36.036  1.00  0.00    -0.315 N 
ATOM     20  H4  UNL     1      29.894  44.210  36.759  1.00  0.00     0.172 HD
BRANCH  19  21
HETATM   21  S1  UNL     1      30.107  43.807  34.386  1.00  0.00     0.226 S 
HETATM   22  O1  UNL     1      29.310  42.946  33.463  1.00  0.00    -0.206 OA
HETATM   23  O2  UNL     1      31.559  43.546  34.103  1.00  0.00    -0.206 OA
BRANCH  21  24
HETATM   24  C8  UNL     1      29.823  45.541  34.099  1.00  0.00     0.158 C 
HETATM   25  C9  UNL     1      29.505  46.259  35.392  1.00  0.00     0.023 C 
ENDBRANCH  21  24
ENDBRANCH  19  21
ENDBRANCH  16  19
ENDBRANCH   8  13
BRANCH  12  26
HETATM   26  N6  UNL     1      26.929  35.075  33.829  1.00  0.00    -0.354 N 
ATOM     27  H6  UNL     1      26.102  34.562  34.132  1.00  0.00     0.166 HD
BRANCH  26  28
HETATM   28  C13 UNL     1      26.923  34.867  32.506  1.00  0.00     0.062 C 
BRANCH  28  29
HETATM   29  C14 UNL     1      26.078  35.837  31.667  1.00  0.00     0.044 C 
BRANCH  29  30
HETATM   30  C15 UNL     1      26.968  36.755  30.907  1.00  0.00     0.005 C 
BRANCH  30  31
HETATM   31  C16 UNL     1      26.872  38.150  31.461  1.00  0.00     0.000 C 
BRANCH  31  32
HETATM   32  C17 UNL     1      25.552  38.405  32.177  1.00  0.00    -0.005 C 
HETATM   33  C18 UNL     1      25.240  39.899  32.169  1.00  0.00     0.005 C 
ENDBRANCH  31  32
ENDBRANCH  30  31
ENDBRANCH  29  30
ENDBRANCH  28  29
ENDBRANCH  26  28
ENDBRANCH  12  26
TORSDOF 10
ENDMDL
