MODEL 1
REMARK VINA RESULT: -6.914307652      0.000      0.000
REMARK  13 active torsions:
REMARK  status: ('A' for Active; 'I' for Inactive)
REMARK    1  A    between atoms: N1_1  and  C1_4 
REMARK    2  A    between atoms: C2_7  and  N3_8 
REMARK    3  A    between atoms: N4_11  and  C3_12 
REMARK    4  A    between atoms: C4_14  and  C5_15 
REMARK    5  A    between atoms: C5_15  and  N5_16 
REMARK    6  A    between atoms: N5_16  and  C6_19 
REMARK    7  A    between atoms: C6_19  and  C7_20 
REMARK    8  A    between atoms: C8_21  and  C9_22 
REMARK    9  A    between atoms: C10_23  and  C11_24 
REMARK   10  A    between atoms: C11_24  and  C12_25 
REMARK   11  A    between atoms: C12_25  and  N6_26 
REMARK   12  A    between atoms: C13_30  and  O2_31 
REMARK   13  A    between atoms: C14_33  and  O3_34 
ROOT
HETATM    1  C3  UNL     1      -2.949  75.962  33.344  1.00  0.00     0.282 C 
HETATM    2  O1  UNL     1      -3.704  76.825  34.117  1.00  0.00    -0.353 OA
HETATM    3  C4  UNL     1      -2.924  77.148  35.224  1.00  0.00     0.181 C 
HETATM    4  C13 UNL     1      -1.540  77.310  34.649  1.00  0.00     0.181 C 
HETATM    5  C14 UNL     1      -1.515  76.224  33.606  1.00  0.00     0.199 C 
ENDROOT
BRANCH   1   6
HETATM    6  N4  UNL     1      -3.304  76.081  31.928  1.00  0.00    -0.102 N 
HETATM    7  C2  UNL     1      -3.555  77.291  31.413  1.00  0.00     0.699 A 
HETATM    8  N2  UNL     1      -3.877  77.374  30.111  1.00  0.00    -0.022 N 
HETATM    9  C1  UNL     1      -3.946  76.263  29.349  1.00  0.00     0.694 A 
ATOM     10  H2  UNL     1      -4.072  78.285  29.696  1.00  0.00     0.203 HD
HETATM   11  N7  UNL     1      -3.685  75.056  29.901  1.00  0.00    -0.140 N 
HETATM   12  C15 UNL     1      -3.361  74.954  31.199  1.00  0.00     0.357 A 
ATOM     13  H7  UNL     1      -3.735  74.216  29.325  1.00  0.00     0.189 HD
HETATM   14  O4  UNL     1      -3.113  73.824  31.737  1.00  0.00    -0.245 OA
BRANCH   7  15
HETATM   15  N3  UNL     1      -3.481  78.350  32.169  1.00  0.00    -0.234 N 
ATOM     16  H32 UNL     1      -3.573  79.278  31.757  1.00  0.00     0.174 HD
ATOM     17  H31 UNL     1      -3.335  78.281  33.175  1.00  0.00     0.174 HD
ENDBRANCH   7  15
BRANCH   9  18
HETATM   18  N1  UNL     1      -4.255  76.350  28.103  1.00  0.00    -0.234 N 
ATOM     19  H12 UNL     1      -5.183  76.673  27.826  1.00  0.00     0.174 HD
ATOM     20  H11 UNL     1      -3.576  76.096  27.386  1.00  0.00     0.174 HD
ENDBRANCH   9  18
ENDBRANCH   1   6
BRANCH   5  21
HETATM   21  O3  UNL     1      -0.831  76.724  32.498  1.00  0.00    -0.388 OA
ATOM     22  H3  UNL     1      -0.047  76.232  32.283  1.00  0.00     0.210 HD
ENDBRANCH   5  21
BRANCH   3  23
HETATM   23  C5  UNL     1      -3.406  78.420  35.893  1.00  0.00     0.267 C 
BRANCH  23  24
HETATM   24  N5  UNL     1      -3.167  78.291  37.294  1.00  0.00    -0.070 N 
ATOM     25  H52 UNL     1      -4.011  78.518  37.819  1.00  0.00     0.277 HD
ATOM     26  H51 UNL     1      -3.061  77.308  37.546  1.00  0.00     0.277 HD
BRANCH  24  27
HETATM   27  C6  UNL     1      -2.057  79.052  37.784  1.00  0.00     0.259 C 
BRANCH  27  28
HETATM   28  C7  UNL     1      -2.343  80.485  37.828  1.00  0.00     0.000 C 
HETATM   29  C8  UNL     1      -1.446  81.394  38.137  1.00  0.00    -0.003 C 
BRANCH  29  30
HETATM   30  C9  UNL     1      -1.869  82.784  38.138  1.00  0.00    -0.004 C 
HETATM   31  C10 UNL     1      -1.050  83.790  37.963  1.00  0.00    -0.025 C 
BRANCH  31  32
HETATM   32  C11 UNL     1       0.395  83.649  37.743  1.00  0.00     0.054 C 
BRANCH  32  33
HETATM   33  C12 UNL     1       1.096  84.427  38.849  1.00  0.00     0.233 C 
BRANCH  33  34
HETATM   34  N6  UNL     1       2.517  84.206  38.690  1.00  0.00    -0.079 N 
ATOM     35  H63 UNL     1       2.755  83.225  38.545  1.00  0.00     0.274 HD
ATOM     36  H62 UNL     1       2.881  84.562  37.807  1.00  0.00     0.274 HD
ATOM     37  H61 UNL     1       2.978  84.612  39.505  1.00  0.00     0.274 HD
ENDBRANCH  33  34
ENDBRANCH  32  33
ENDBRANCH  31  32
ENDBRANCH  29  30
ENDBRANCH  27  28
ENDBRANCH  24  27
ENDBRANCH  23  24
ENDBRANCH   3  23
BRANCH   4  38
HETATM   38  O2  UNL     1      -0.550  77.136  35.613  1.00  0.00    -0.390 OA
ATOM     39  H2  UNL     1       0.066  77.859  35.627  1.00  0.00     0.210 HD
ENDBRANCH   4  38
TORSDOF 13
ENDMDL
MODEL 2
REMARK VINA RESULT: -6.860656858      1.969      2.820
REMARK  13 active torsions:
REMARK  status: ('A' for Active; 'I' for Inactive)
REMARK    1  A    between atoms: N1_1  and  C1_4 
REMARK    2  A    between atoms: C2_7  and  N3_8 
REMARK    3  A    between atoms: N4_11  and  C3_12 
REMARK    4  A    between atoms: C4_14  and  C5_15 
REMARK    5  A    between atoms: C5_15  and  N5_16 
REMARK    6  A    between atoms: N5_16  and  C6_19 
REMARK    7  A    between atoms: C6_19  and  C7_20 
REMARK    8  A    between atoms: C8_21  and  C9_22 
REMARK    9  A    between atoms: C10_23  and  C11_24 
REMARK   10  A    between atoms: C11_24  and  C12_25 
REMARK   11  A    between atoms: C12_25  and  N6_26 
REMARK   12  A    between atoms: C13_30  and  O2_31 
REMARK   13  A    between atoms: C14_33  and  O3_34 
ROOT
HETATM    1  C3  UNL     1      -2.766  77.264  35.294  1.00  0.00     0.282 C 
HETATM    2  O1  UNL     1      -1.786  78.215  35.077  1.00  0.00    -0.353 OA
HETATM    3  C4  UNL     1      -1.092  78.348  36.276  1.00  0.00     0.181 C 
HETATM    4  C13 UNL     1      -0.983  76.932  36.782  1.00  0.00     0.181 C 
HETATM    5  C14 UNL     1      -2.316  76.360  36.379  1.00  0.00     0.199 C 
ENDROOT
BRANCH   1   6
HETATM    6  N4  UNL     1      -3.091  76.554  34.055  1.00  0.00    -0.102 N 
HETATM    7  C2  UNL     1      -4.370  76.271  33.776  1.00  0.00     0.699 A 
HETATM    8  N2  UNL     1      -4.642  75.621  32.633  1.00  0.00    -0.022 N 
HETATM    9  C1  UNL     1      -3.649  75.263  31.793  1.00  0.00     0.694 A 
ATOM     10  H2  UNL     1      -5.609  75.395  32.398  1.00  0.00     0.203 HD
HETATM   11  N7  UNL     1      -2.368  75.565  32.106  1.00  0.00    -0.140 N 
HETATM   12  C15 UNL     1      -2.077  76.214  33.242  1.00  0.00     0.357 A 
ATOM     13  H7  UNL     1      -1.617  75.296  31.470  1.00  0.00     0.189 HD
HETATM   14  O4  UNL     1      -0.875  76.506  33.553  1.00  0.00    -0.245 OA
BRANCH   7  15
HETATM   15  N3  UNL     1      -5.313  76.629  34.602  1.00  0.00    -0.234 N 
ATOM     16  H32 UNL     1      -6.275  76.711  34.274  1.00  0.00     0.174 HD
ATOM     17  H31 UNL     1      -5.118  76.830  35.583  1.00  0.00     0.174 HD
ENDBRANCH   7  15
BRANCH   9  18
HETATM   18  N1  UNL     1      -3.918  74.640  30.700  1.00  0.00    -0.234 N 
ATOM     19  H12 UNL     1      -3.472  74.921  29.826  1.00  0.00     0.174 HD
ATOM     20  H11 UNL     1      -4.578  73.862  30.700  1.00  0.00     0.174 HD
ENDBRANCH   9  18
ENDBRANCH   1   6
BRANCH   5  21
HETATM   21  O3  UNL     1      -2.099  75.050  35.954  1.00  0.00    -0.388 OA
ATOM     22  H3  UNL     1      -2.001  74.432  36.670  1.00  0.00     0.210 HD
ENDBRANCH   5  21
BRANCH   3  23
HETATM   23  C5  UNL     1       0.272  78.974  36.065  1.00  0.00     0.267 C 
BRANCH  23  24
HETATM   24  N5  UNL     1       0.212  80.317  36.542  1.00  0.00    -0.070 N 
ATOM     25  H52 UNL     1       1.053  80.541  37.076  1.00  0.00     0.277 HD
ATOM     26  H51 UNL     1       0.316  80.973  35.768  1.00  0.00     0.277 HD
BRANCH  24  27
HETATM   27  C6  UNL     1      -0.958  80.629  37.305  1.00  0.00     0.259 C 
BRANCH  27  28
HETATM   28  C7  UNL     1      -0.961  82.014  37.776  1.00  0.00     0.000 C 
HETATM   29  C8  UNL     1       0.089  82.800  37.720  1.00  0.00    -0.003 C 
BRANCH  29  30
HETATM   30  C9  UNL     1      -0.057  84.156  38.222  1.00  0.00    -0.004 C 
HETATM   31  C10 UNL     1       0.859  84.769  38.929  1.00  0.00    -0.025 C 
BRANCH  31  32
HETATM   32  C11 UNL     1       2.145  84.173  39.308  1.00  0.00     0.054 C 
BRANCH  32  33
HETATM   33  C12 UNL     1       3.097  85.319  39.624  1.00  0.00     0.233 C 
BRANCH  33  34
HETATM   34  N6  UNL     1       3.683  85.042  40.917  1.00  0.00    -0.079 N 
ATOM     35  H63 UNL     1       4.696  85.160  40.931  1.00  0.00     0.274 HD
ATOM     36  H62 UNL     1       3.459  85.749  41.617  1.00  0.00     0.274 HD
ATOM     37  H61 UNL     1       3.387  84.104  41.188  1.00  0.00     0.274 HD
ENDBRANCH  33  34
ENDBRANCH  32  33
ENDBRANCH  31  32
ENDBRANCH  29  30
ENDBRANCH  27  28
ENDBRANCH  24  27
ENDBRANCH  23  24
ENDBRANCH   3  23
BRANCH   4  38
HETATM   38  O2  UNL     1      -0.786  76.883  38.160  1.00  0.00    -0.390 OA
ATOM     39  H2  UNL     1      -1.043  76.046  38.529  1.00  0.00     0.210 HD
ENDBRANCH   4  38
TORSDOF 13
ENDMDL
MODEL 3
REMARK VINA RESULT: -6.841446919      1.319      1.495
REMARK  13 active torsions:
REMARK  status: ('A' for Active; 'I' for Inactive)
REMARK    1  A    between atoms: N1_1  and  C1_4 
REMARK    2  A    between atoms: C2_7  and  N3_8 
REMARK    3  A    between atoms: N4_11  and  C3_12 
REMARK    4  A    between atoms: C4_14  and  C5_15 
REMARK    5  A    between atoms: C5_15  and  N5_16 
REMARK    6  A    between atoms: N5_16  and  C6_19 
REMARK    7  A    between atoms: C6_19  and  C7_20 
REMARK    8  A    between atoms: C8_21  and  C9_22 
REMARK    9  A    between atoms: C10_23  and  C11_24 
REMARK   10  A    between atoms: C11_24  and  C12_25 
REMARK   11  A    between atoms: C12_25  and  N6_26 
REMARK   12  A    between atoms: C13_30  and  O2_31 
REMARK   13  A    between atoms: C14_33  and  O3_34 
ROOT
HETATM    1  C3  UNL     1      -2.886  75.977  33.353  1.00  0.00     0.282 C 
HETATM    2  O1  UNL     1      -3.683  76.805  34.121  1.00  0.00    -0.353 OA
HETATM    3  C4  UNL     1      -2.928  77.157  35.236  1.00  0.00     0.181 C 
HETATM    4  C13 UNL     1      -1.547  77.379  34.674  1.00  0.00     0.181 C 
HETATM    5  C14 UNL     1      -1.467  76.298  33.628  1.00  0.00     0.199 C 
ENDROOT
BRANCH   1   6
HETATM    6  N4  UNL     1      -3.233  76.085  31.934  1.00  0.00    -0.102 N 
HETATM    7  C2  UNL     1      -3.496  77.289  31.412  1.00  0.00     0.699 A 
HETATM    8  N2  UNL     1      -3.810  77.362  30.108  1.00  0.00    -0.022 N 
HETATM    9  C1  UNL     1      -3.860  76.247  29.350  1.00  0.00     0.694 A 
ATOM     10  H2  UNL     1      -4.013  78.269  29.687  1.00  0.00     0.203 HD
HETATM   11  N7  UNL     1      -3.588  75.046  29.910  1.00  0.00    -0.140 N 
HETATM   12  C15 UNL     1      -3.272  74.954  31.210  1.00  0.00     0.357 A 
ATOM     13  H7  UNL     1      -3.624  74.203  29.337  1.00  0.00     0.189 HD
HETATM   14  O4  UNL     1      -3.014  73.830  31.754  1.00  0.00    -0.245 OA
BRANCH   7  15
HETATM   15  N3  UNL     1      -3.440  78.353  32.163  1.00  0.00    -0.234 N 
ATOM     16  H32 UNL     1      -2.939  79.180  31.840  1.00  0.00     0.174 HD
ATOM     17  H31 UNL     1      -3.890  78.387  33.078  1.00  0.00     0.174 HD
ENDBRANCH   7  15
BRANCH   9  18
HETATM   18  N1  UNL     1      -4.162  76.325  28.101  1.00  0.00    -0.234 N 
ATOM     19  H12 UNL     1      -3.533  76.796  27.450  1.00  0.00     0.174 HD
ATOM     20  H11 UNL     1      -5.031  75.917  27.757  1.00  0.00     0.174 HD
ENDBRANCH   9  18
ENDBRANCH   1   6
BRANCH   5  21
HETATM   21  O3  UNL     1      -0.795  76.829  32.528  1.00  0.00    -0.388 OA
ATOM     22  H3  UNL     1      -0.938  77.762  32.412  1.00  0.00     0.210 HD
ENDBRANCH   5  21
BRANCH   3  23
HETATM   23  C5  UNL     1      -3.468  78.406  35.904  1.00  0.00     0.267 C 
BRANCH  23  24
HETATM   24  N5  UNL     1      -2.806  78.548  37.160  1.00  0.00    -0.070 N 
ATOM     25  H52 UNL     1      -3.121  77.827  37.809  1.00  0.00     0.277 HD
ATOM     26  H51 UNL     1      -1.823  78.289  37.074  1.00  0.00     0.277 HD
BRANCH  24  27
HETATM   27  C6  UNL     1      -2.928  79.843  37.758  1.00  0.00     0.259 C 
BRANCH  27  28
HETATM   28  C7  UNL     1      -1.748  80.674  37.527  1.00  0.00     0.000 C 
HETATM   29  C8  UNL     1      -1.563  81.844  38.095  1.00  0.00    -0.003 C 
BRANCH  29  30
HETATM   30  C9  UNL     1      -0.340  82.561  37.776  1.00  0.00    -0.004 C 
HETATM   31  C10 UNL     1      -0.180  83.844  37.980  1.00  0.00    -0.025 C 
BRANCH  31  32
HETATM   32  C11 UNL     1      -1.205  84.724  38.554  1.00  0.00     0.054 C 
BRANCH  32  33
HETATM   33  C12 UNL     1      -1.834  85.495  37.401  1.00  0.00     0.233 C 
BRANCH  33  34
HETATM   34  N6  UNL     1      -3.266  85.477  37.607  1.00  0.00    -0.079 N 
ATOM     35  H63 UNL     1      -3.530  85.545  38.589  1.00  0.00     0.274 HD
ATOM     36  H62 UNL     1      -3.725  86.330  37.287  1.00  0.00     0.274 HD
ATOM     37  H61 UNL     1      -3.624  84.637  37.154  1.00  0.00     0.274 HD
ENDBRANCH  33  34
ENDBRANCH  32  33
ENDBRANCH  31  32
ENDBRANCH  29  30
ENDBRANCH  27  28
ENDBRANCH  24  27
ENDBRANCH  23  24
ENDBRANCH   3  23
BRANCH   4  38
HETATM   38  O2  UNL     1      -0.559  77.243  35.646  1.00  0.00    -0.390 OA
ATOM     39  H2  UNL     1      -0.456  78.033  36.164  1.00  0.00     0.210 HD
ENDBRANCH   4  38
TORSDOF 13
ENDMDL
MODEL 4
REMARK VINA RESULT: -6.808593992      0.857      1.564
REMARK  13 active torsions:
REMARK  status: ('A' for Active; 'I' for Inactive)
REMARK    1  A    between atoms: N1_1  and  C1_4 
REMARK    2  A    between atoms: C2_7  and  N3_8 
REMARK    3  A    between atoms: N4_11  and  C3_12 
REMARK    4  A    between atoms: C4_14  and  C5_15 
REMARK    5  A    between atoms: C5_15  and  N5_16 
REMARK    6  A    between atoms: N5_16  and  C6_19 
REMARK    7  A    between atoms: C6_19  and  C7_20 
REMARK    8  A    between atoms: C8_21  and  C9_22 
REMARK    9  A    between atoms: C10_23  and  C11_24 
REMARK   10  A    between atoms: C11_24  and  C12_25 
REMARK   11  A    between atoms: C12_25  and  N6_26 
REMARK   12  A    between atoms: C13_30  and  O2_31 
REMARK   13  A    between atoms: C14_33  and  O3_34 
ROOT
HETATM    1  C3  UNL     1      -3.010  75.962  33.343  1.00  0.00     0.282 C 
HETATM    2  O1  UNL     1      -3.754  76.849  34.099  1.00  0.00    -0.353 OA
HETATM    3  C4  UNL     1      -2.978  77.169  35.208  1.00  0.00     0.181 C 
HETATM    4  C13 UNL     1      -1.586  77.298  34.644  1.00  0.00     0.181 C 
HETATM    5  C14 UNL     1      -1.573  76.199  33.614  1.00  0.00     0.199 C 
ENDROOT
BRANCH   1   6
HETATM    6  N4  UNL     1      -3.350  76.071  31.922  1.00  0.00    -0.102 N 
HETATM    7  C2  UNL     1      -3.485  74.957  31.192  1.00  0.00     0.699 A 
HETATM    8  N2  UNL     1      -3.799  75.083  29.892  1.00  0.00    -0.022 N 
HETATM    9  C1  UNL     1      -3.970  76.303  29.342  1.00  0.00     0.694 A 
ATOM     10  H2  UNL     1      -3.908  74.248  29.316  1.00  0.00     0.203 HD
HETATM   11  N7  UNL     1      -3.826  77.407  30.109  1.00  0.00    -0.140 N 
HETATM   12  C15 UNL     1      -3.514  77.302  31.409  1.00  0.00     0.357 A 
ATOM     13  H7  UNL     1      -3.957  78.330  29.694  1.00  0.00     0.189 HD
HETATM   14  O4  UNL     1      -3.373  78.332  32.146  1.00  0.00    -0.245 OA
BRANCH   7  15
HETATM   15  N3  UNL     1      -3.317  73.789  31.746  1.00  0.00    -0.234 N 
ATOM     16  H32 UNL     1      -3.630  72.946  31.265  1.00  0.00     0.174 HD
ATOM     17  H31 UNL     1      -2.872  73.688  32.658  1.00  0.00     0.174 HD
ENDBRANCH   7  15
BRANCH   9  18
HETATM   18  N1  UNL     1      -4.270  76.415  28.096  1.00  0.00    -0.234 N 
ATOM     19  H12 UNL     1      -4.951  77.113  27.794  1.00  0.00     0.174 HD
ATOM     20  H11 UNL     1      -3.831  75.808  27.404  1.00  0.00     0.174 HD
ENDBRANCH   9  18
ENDBRANCH   1   6
BRANCH   5  21
HETATM   21  O3  UNL     1      -0.870  76.672  32.506  1.00  0.00    -0.388 OA
ATOM     22  H3  UNL     1      -0.023  76.258  32.391  1.00  0.00     0.210 HD
ENDBRANCH   5  21
BRANCH   3  23
HETATM   23  C5  UNL     1      -3.439  78.459  35.859  1.00  0.00     0.267 C 
BRANCH  23  24
HETATM   24  N5  UNL     1      -3.213  78.343  37.262  1.00  0.00    -0.070 N 
ATOM     25  H52 UNL     1      -4.058  78.589  37.779  1.00  0.00     0.277 HD
ATOM     26  H51 UNL     1      -3.125  77.362  37.527  1.00  0.00     0.277 HD
BRANCH  24  27
HETATM   27  C6  UNL     1      -2.095  79.092  37.752  1.00  0.00     0.259 C 
BRANCH  27  28
HETATM   28  C7  UNL     1      -2.364  80.529  37.790  1.00  0.00     0.000 C 
HETATM   29  C8  UNL     1      -1.478  81.421  38.168  1.00  0.00    -0.003 C 
BRANCH  29  30
HETATM   30  C9  UNL     1      -1.881  82.818  38.153  1.00  0.00    -0.004 C 
HETATM   31  C10 UNL     1      -1.046  83.810  37.973  1.00  0.00    -0.025 C 
BRANCH  31  32
HETATM   32  C11 UNL     1       0.398  83.646  37.764  1.00  0.00     0.054 C 
BRANCH  32  33
HETATM   33  C12 UNL     1       1.104  84.414  38.873  1.00  0.00     0.233 C 
BRANCH  33  34
HETATM   34  N6  UNL     1       2.526  84.222  38.687  1.00  0.00    -0.079 N 
ATOM     35  H63 UNL     1       2.832  83.273  38.900  1.00  0.00     0.274 HD
ATOM     36  H62 UNL     1       2.806  84.233  37.707  1.00  0.00     0.274 HD
ATOM     37  H61 UNL     1       3.001  84.930  39.247  1.00  0.00     0.274 HD
ENDBRANCH  33  34
ENDBRANCH  32  33
ENDBRANCH  31  32
ENDBRANCH  29  30
ENDBRANCH  27  28
ENDBRANCH  24  27
ENDBRANCH  23  24
ENDBRANCH   3  23
BRANCH   4  38
HETATM   38  O2  UNL     1      -0.608  77.116  35.619  1.00  0.00    -0.390 OA
ATOM     39  H2  UNL     1      -0.078  77.895  35.743  1.00  0.00     0.210 HD
ENDBRANCH   4  38
TORSDOF 13
ENDMDL
MODEL 5
REMARK VINA RESULT: -6.798102498      3.462      8.839
REMARK  13 active torsions:
REMARK  status: ('A' for Active; 'I' for Inactive)
REMARK    1  A    between atoms: N1_1  and  C1_4 
REMARK    2  A    between atoms: C2_7  and  N3_8 
REMARK    3  A    between atoms: N4_11  and  C3_12 
REMARK    4  A    between atoms: C4_14  and  C5_15 
REMARK    5  A    between atoms: C5_15  and  N5_16 
REMARK    6  A    between atoms: N5_16  and  C6_19 
REMARK    7  A    between atoms: C6_19  and  C7_20 
REMARK    8  A    between atoms: C8_21  and  C9_22 
REMARK    9  A    between atoms: C10_23  and  C11_24 
REMARK   10  A    between atoms: C11_24  and  C12_25 
REMARK   11  A    between atoms: C12_25  and  N6_26 
REMARK   12  A    between atoms: C13_30  and  O2_31 
REMARK   13  A    between atoms: C14_33  and  O3_34 
ROOT
HETATM    1  C3  UNL     1      -3.727  76.429  33.546  1.00  0.00     0.282 C 
HETATM    2  O1  UNL     1      -3.324  75.624  32.497  1.00  0.00    -0.353 OA
HETATM    3  C4  UNL     1      -4.327  75.697  31.535  1.00  0.00     0.181 C 
HETATM    4  C13 UNL     1      -4.729  77.149  31.550  1.00  0.00     0.181 C 
HETATM    5  C14 UNL     1      -4.631  77.477  33.017  1.00  0.00     0.199 C 
ENDROOT
BRANCH   1   6
HETATM    6  N4  UNL     1      -2.571  76.977  34.260  1.00  0.00    -0.102 N 
HETATM    7  C2  UNL     1      -1.467  77.299  33.574  1.00  0.00     0.699 A 
HETATM    8  N2  UNL     1      -0.421  77.800  34.251  1.00  0.00    -0.022 N 
HETATM    9  C1  UNL     1      -0.487  77.972  35.587  1.00  0.00     0.694 A 
ATOM     10  H2  UNL     1       0.430  78.053  33.749  1.00  0.00     0.203 HD
HETATM   11  N7  UNL     1      -1.618  77.637  36.249  1.00  0.00    -0.140 N 
HETATM   12  C15 UNL     1      -2.672  77.135  35.590  1.00  0.00     0.357 A 
ATOM     13  H7  UNL     1      -1.669  77.768  37.259  1.00  0.00     0.189 HD
HETATM   14  O4  UNL     1      -3.746  76.813  36.198  1.00  0.00    -0.245 OA
BRANCH   7  15
HETATM   15  N3  UNL     1      -1.428  77.125  32.282  1.00  0.00    -0.234 N 
ATOM     16  H32 UNL     1      -1.156  76.221  31.896  1.00  0.00     0.174 HD
ATOM     17  H31 UNL     1      -1.665  77.876  31.634  1.00  0.00     0.174 HD
ENDBRANCH   7  15
BRANCH   9  18
HETATM   18  N1  UNL     1       0.520  78.453  36.229  1.00  0.00    -0.234 N 
ATOM     19  H12 UNL     1       0.782  79.432  36.112  1.00  0.00     0.174 HD
ATOM     20  H11 UNL     1       1.060  77.859  36.857  1.00  0.00     0.174 HD
ENDBRANCH   9  18
ENDBRANCH   1   6
BRANCH   5  21
HETATM   21  O3  UNL     1      -4.109  78.765  33.125  1.00  0.00    -0.388 OA
ATOM     22  H3  UNL     1      -4.246  79.158  33.979  1.00  0.00     0.210 HD
ENDBRANCH   5  21
BRANCH   3  23
HETATM   23  C5  UNL     1      -3.823  75.269  30.171  1.00  0.00     0.267 C 
BRANCH  23  24
HETATM   24  N5  UNL     1      -3.444  76.446  29.459  1.00  0.00    -0.070 N 
ATOM     25  H52 UNL     1      -3.845  77.273  29.902  1.00  0.00     0.277 HD
ATOM     26  H51 UNL     1      -2.451  76.638  29.595  1.00  0.00     0.277 HD
BRANCH  24  27
HETATM   27  C6  UNL     1      -3.759  76.429  28.063  1.00  0.00     0.259 C 
BRANCH  27  28
HETATM   28  C7  UNL     1      -4.767  77.428  27.709  1.00  0.00     0.000 C 
HETATM   29  C8  UNL     1      -4.526  78.454  26.926  1.00  0.00    -0.003 C 
BRANCH  29  30
HETATM   30  C9  UNL     1      -5.624  79.368  26.656  1.00  0.00    -0.004 C 
HETATM   31  C10 UNL     1      -5.661  80.169  25.621  1.00  0.00    -0.025 C 
BRANCH  31  32
HETATM   32  C11 UNL     1      -4.607  80.252  24.603  1.00  0.00     0.054 C 
BRANCH  32  33
HETATM   33  C12 UNL     1      -5.167  81.059  23.440  1.00  0.00     0.233 C 
BRANCH  33  34
HETATM   34  N6  UNL     1      -4.153  82.020  23.060  1.00  0.00    -0.079 N 
ATOM     35  H63 UNL     1      -4.136  82.842  23.663  1.00  0.00     0.274 HD
ATOM     36  H62 UNL     1      -3.205  81.697  23.252  1.00  0.00     0.274 HD
ATOM     37  H61 UNL     1      -4.307  82.247  22.078  1.00  0.00     0.274 HD
ENDBRANCH  33  34
ENDBRANCH  32  33
ENDBRANCH  31  32
ENDBRANCH  29  30
ENDBRANCH  27  28
ENDBRANCH  24  27
ENDBRANCH  23  24
ENDBRANCH   3  23
BRANCH   4  38
HETATM   38  O2  UNL     1      -6.016  77.341  31.055  1.00  0.00    -0.390 OA
ATOM     39  H2  UNL     1      -6.621  76.675  31.363  1.00  0.00     0.210 HD
ENDBRANCH   4  38
TORSDOF 13
ENDMDL
