MODEL 1
REMARK VINA RESULT: -6.223259292      0.000      0.000
REMARK  15 active torsions:
REMARK  status: ('A' for Active; 'I' for Inactive)
REMARK    1  A    between atoms: C2_2  and  C3_3 
REMARK    2  A    between atoms: C3_3  and  C4_4 
REMARK    3  A    between atoms: C4_4  and  C5_5 
REMARK    4  A    between atoms: C5_5  and  C6_6 
REMARK    5  A    between atoms: C6_6  and  O2_8 
REMARK    6  A    between atoms: O2_8  and  C7_9 
REMARK    7  A    between atoms: C7_9  and  C8_10 
REMARK    8  A    between atoms: C23_25  and  O3_26 
REMARK    9  A    between atoms: O3_26  and  C24_27 
REMARK   10  A    between atoms: C24_27  and  O4_28 
REMARK   11  A    between atoms: C24_27  and  C25_30 
REMARK   12  A    between atoms: C25_30  and  C26_31 
REMARK   13  A    between atoms: C26_31  and  C27_32 
REMARK   14  A    between atoms: C32_38  and  C33_39 
REMARK   15  A    between atoms: C33_39  and  O6_40 
ROOT
HETATM    1  C8  UNL     1      12.577  35.938   0.528  1.00  0.00    -0.018 C 
HETATM    2  C9  UNL     1      12.724  37.383   0.098  1.00  0.00     0.018 C 
HETATM    3  C10 UNL     1      13.956  35.332   0.272  1.00  0.00     0.012 C 
HETATM    4  C11 UNL     1      14.211  34.845  -1.090  1.00  0.00     0.002 C 
HETATM    5  C12 UNL     1      12.983  34.495  -1.895  1.00  0.00     0.010 C 
HETATM    6  C13 UNL     1      11.873  34.009  -0.979  1.00  0.00    -0.030 C 
HETATM    7  C14 UNL     1      12.489  32.960  -0.085  1.00  0.00     0.016 C 
HETATM    8  C15 UNL     1      11.474  35.251  -0.210  1.00  0.00     0.005 C 
HETATM    9  C16 UNL     1      10.218  35.090   0.579  1.00  0.00     0.007 C 
HETATM   10  C17 UNL     1       9.108  34.384  -0.147  1.00  0.00     0.007 C 
HETATM   11  C18 UNL     1       9.679  33.071  -0.670  1.00  0.00     0.007 C 
HETATM   12  C19 UNL     1       8.716  32.001  -0.957  1.00  0.00    -0.013 C 
HETATM   13  C20 UNL     1       9.013  30.788  -0.053  1.00  0.00     0.018 C 
HETATM   14  C21 UNL     1       7.259  32.315  -0.655  1.00  0.00     0.017 C 
HETATM   15  C22 UNL     1       6.405  31.080  -0.947  1.00  0.00     0.062 C 
HETATM   16  C23 UNL     1       6.789  30.270  -2.090  1.00  0.00     0.263 C 
HETATM   17  O5  UNL     1       8.209  30.142  -2.282  1.00  0.00    -0.355 OA
HETATM   18  C29 UNL     1       8.687  31.453  -2.362  1.00  0.00     0.133 C 
HETATM   19  C30 UNL     1       9.922  31.573  -3.154  1.00  0.00     0.034 C 
HETATM   20  C31 UNL     1      11.092  32.181  -2.480  1.00  0.00     0.015 C 
HETATM   21  C32 UNL     1      10.704  33.415  -1.694  1.00  0.00    -0.007 C 
ENDROOT
BRANCH   1  22
HETATM   22  C7  UNL     1      12.406  35.985   2.028  1.00  0.00     0.188 C 
BRANCH  22  23
HETATM   23  O2  UNL     1      13.083  35.069   2.717  1.00  0.00    -0.321 OA
BRANCH  23  24
HETATM   24  C6  UNL     1      13.144  34.300   3.772  1.00  0.00     0.258 C 
HETATM   25  O1  UNL     1      13.261  34.770   4.914  1.00  0.00    -0.265 OA
BRANCH  24  26
HETATM   26  C5  UNL     1      13.074  32.793   3.635  1.00  0.00     0.111 C 
BRANCH  26  27
HETATM   27  C4  UNL     1      12.927  32.174   4.987  1.00  0.00     0.010 C 
BRANCH  27  28
HETATM   28  C3  UNL     1      11.967  31.066   5.102  1.00  0.00     0.000 C 
BRANCH  28  29
HETATM   29  C2  UNL     1      11.921  30.008   4.069  1.00  0.00    -0.005 C 
HETATM   30  C1  UNL     1      10.785  30.041   3.103  1.00  0.00     0.005 C 
ENDBRANCH  28  29
ENDBRANCH  27  28
ENDBRANCH  26  27
ENDBRANCH  24  26
ENDBRANCH  23  24
ENDBRANCH  22  23
ENDBRANCH   1  22
BRANCH  21  31
HETATM   31  C33 UNL     1      10.162  34.299  -2.817  1.00  0.00     0.174 C 
BRANCH  31  32
HETATM   32  O6  UNL     1      11.031  34.270  -3.897  1.00  0.00    -0.400 OA
ATOM     33  H6  UNL     1      11.203  33.370  -4.147  1.00  0.00     0.209 HD
ENDBRANCH  31  32
ENDBRANCH  21  31
BRANCH  16  34
HETATM   34  O3  UNL     1       6.296  28.968  -2.005  1.00  0.00    -0.332 OA
BRANCH  34  35
HETATM   35  C24 UNL     1       7.366  28.053  -1.867  1.00  0.00     0.260 C 
BRANCH  35  36
HETATM   36  O4  UNL     1       7.438  27.235  -3.002  1.00  0.00    -0.371 OA
ATOM     37  H4  UNL     1       8.298  27.309  -3.397  1.00  0.00     0.212 HD
ENDBRANCH  35  36
BRANCH  35  38
HETATM   38  C25 UNL     1       7.246  27.253  -0.625  1.00  0.00     0.060 C 
BRANCH  38  39
HETATM   39  C26 UNL     1       8.584  27.026   0.049  1.00  0.00     0.004 C 
BRANCH  39  40
HETATM   40  C27 UNL     1       8.486  27.446   1.484  1.00  0.00    -0.004 C 
HETATM   41  C28 UNL     1       9.483  26.702   2.358  1.00  0.00     0.005 C 
ENDBRANCH  39  40
ENDBRANCH  38  39
ENDBRANCH  35  38
ENDBRANCH  34  35
ENDBRANCH  16  34
TORSDOF 15
ENDMDL
MODEL 2
REMARK VINA RESULT: -6.122039252      1.371      7.277
REMARK  15 active torsions:
REMARK  status: ('A' for Active; 'I' for Inactive)
REMARK    1  A    between atoms: C2_2  and  C3_3 
REMARK    2  A    between atoms: C3_3  and  C4_4 
REMARK    3  A    between atoms: C4_4  and  C5_5 
REMARK    4  A    between atoms: C5_5  and  C6_6 
REMARK    5  A    between atoms: C6_6  and  O2_8 
REMARK    6  A    between atoms: O2_8  and  C7_9 
REMARK    7  A    between atoms: C7_9  and  C8_10 
REMARK    8  A    between atoms: C23_25  and  O3_26 
REMARK    9  A    between atoms: O3_26  and  C24_27 
REMARK   10  A    between atoms: C24_27  and  O4_28 
REMARK   11  A    between atoms: C24_27  and  C25_30 
REMARK   12  A    between atoms: C25_30  and  C26_31 
REMARK   13  A    between atoms: C26_31  and  C27_32 
REMARK   14  A    between atoms: C32_38  and  C33_39 
REMARK   15  A    between atoms: C33_39  and  O6_40 
ROOT
HETATM    1  C8  UNL     1       7.099  30.486  -2.917  1.00  0.00    -0.018 C 
HETATM    2  C9  UNL     1       6.578  30.690  -4.325  1.00  0.00     0.018 C 
HETATM    3  C10 UNL     1       5.836  30.436  -2.058  1.00  0.00     0.012 C 
HETATM    4  C11 UNL     1       5.299  31.729  -1.614  1.00  0.00     0.002 C 
HETATM    5  C12 UNL     1       6.291  32.866  -1.575  1.00  0.00     0.010 C 
HETATM    6  C13 UNL     1       7.684  32.339  -1.271  1.00  0.00    -0.030 C 
HETATM    7  C14 UNL     1       7.544  31.442  -0.064  1.00  0.00     0.016 C 
HETATM    8  C15 UNL     1       8.053  31.564  -2.519  1.00  0.00     0.005 C 
HETATM    9  C16 UNL     1       9.489  31.160  -2.570  1.00  0.00     0.007 C 
HETATM   10  C17 UNL     1      10.456  32.231  -2.153  1.00  0.00     0.007 C 
HETATM   11  C18 UNL     1      10.007  32.734  -0.786  1.00  0.00     0.007 C 
HETATM   12  C19 UNL     1      11.026  33.387   0.044  1.00  0.00    -0.013 C 
HETATM   13  C20 UNL     1      11.220  32.584   1.346  1.00  0.00     0.018 C 
HETATM   14  C21 UNL     1      12.427  33.447  -0.544  1.00  0.00     0.017 C 
HETATM   15  C22 UNL     1      13.373  34.097   0.469  1.00  0.00     0.062 C 
HETATM   16  C23 UNL     1      12.833  35.183   1.268  1.00  0.00     0.263 C 
HETATM   17  O5  UNL     1      11.464  35.006   1.673  1.00  0.00    -0.355 OA
HETATM   18  C29 UNL     1      10.756  34.803   0.486  1.00  0.00     0.133 C 
HETATM   19  C30 UNL     1       9.346  35.220   0.573  1.00  0.00     0.034 C 
HETATM   20  C31 UNL     1       8.325  34.196   0.261  1.00  0.00     0.015 C 
HETATM   21  C32 UNL     1       8.691  33.402  -0.975  1.00  0.00    -0.007 C 
ENDROOT
BRANCH   1  22
HETATM   22  C7  UNL     1       7.675  29.089  -2.905  1.00  0.00     0.188 C 
BRANCH  22  23
HETATM   23  O2  UNL     1       7.356  28.339  -1.853  1.00  0.00    -0.321 OA
BRANCH  23  24
HETATM   24  C6  UNL     1       7.762  27.566  -0.882  1.00  0.00     0.258 C 
HETATM   25  O1  UNL     1       7.141  26.540  -0.564  1.00  0.00    -0.265 OA
BRANCH  24  26
HETATM   26  C5  UNL     1       9.018  27.899  -0.102  1.00  0.00     0.111 C 
BRANCH  26  27
HETATM   27  C4  UNL     1       9.004  27.172   1.203  1.00  0.00     0.010 C 
BRANCH  27  28
HETATM   28  C3  UNL     1       8.645  27.960   2.391  1.00  0.00     0.000 C 
BRANCH  28  29
HETATM   29  C2  UNL     1       9.218  29.309   2.593  1.00  0.00    -0.005 C 
HETATM   30  C1  UNL     1      10.617  29.390   3.101  1.00  0.00     0.005 C 
ENDBRANCH  28  29
ENDBRANCH  27  28
ENDBRANCH  26  27
ENDBRANCH  24  26
ENDBRANCH  23  24
ENDBRANCH  22  23
ENDBRANCH   1  22
BRANCH  21  31
HETATM   31  C33 UNL     1       8.725  34.518  -2.020  1.00  0.00     0.174 C 
BRANCH  31  32
HETATM   32  O6  UNL     1       7.642  35.365  -1.836  1.00  0.00    -0.400 OA
ATOM     33  H6  UNL     1       7.481  35.857  -2.632  1.00  0.00     0.209 HD
ENDBRANCH  31  32
ENDBRANCH  21  31
BRANCH  16  34
HETATM   34  O3  UNL     1      13.557  35.384   2.445  1.00  0.00    -0.332 OA
BRANCH  34  35
HETATM   35  C24 UNL     1      13.089  34.511   3.455  1.00  0.00     0.260 C 
BRANCH  35  36
HETATM   36  O4  UNL     1      12.485  35.252   4.479  1.00  0.00    -0.371 OA
ATOM     37  H4  UNL     1      11.819  34.727   4.906  1.00  0.00     0.212 HD
ENDBRANCH  35  36
BRANCH  35  38
HETATM   38  C25 UNL     1      14.174  33.646   3.976  1.00  0.00     0.060 C 
BRANCH  38  39
HETATM   39  C26 UNL     1      13.766  32.895   5.227  1.00  0.00     0.004 C 
BRANCH  39  40
HETATM   40  C27 UNL     1      12.671  31.932   4.884  1.00  0.00    -0.004 C 
HETATM   41  C28 UNL     1      12.228  31.128   6.096  1.00  0.00     0.005 C 
ENDBRANCH  39  40
ENDBRANCH  38  39
ENDBRANCH  35  38
ENDBRANCH  34  35
ENDBRANCH  16  34
TORSDOF 15
ENDMDL
MODEL 3
REMARK VINA RESULT: -6.120204665      4.759      8.308
REMARK  15 active torsions:
REMARK  status: ('A' for Active; 'I' for Inactive)
REMARK    1  A    between atoms: C2_2  and  C3_3 
REMARK    2  A    between atoms: C3_3  and  C4_4 
REMARK    3  A    between atoms: C4_4  and  C5_5 
REMARK    4  A    between atoms: C5_5  and  C6_6 
REMARK    5  A    between atoms: C6_6  and  O2_8 
REMARK    6  A    between atoms: O2_8  and  C7_9 
REMARK    7  A    between atoms: C7_9  and  C8_10 
REMARK    8  A    between atoms: C23_25  and  O3_26 
REMARK    9  A    between atoms: O3_26  and  C24_27 
REMARK   10  A    between atoms: C24_27  and  O4_28 
REMARK   11  A    between atoms: C24_27  and  C25_30 
REMARK   12  A    between atoms: C25_30  and  C26_31 
REMARK   13  A    between atoms: C26_31  and  C27_32 
REMARK   14  A    between atoms: C32_38  and  C33_39 
REMARK   15  A    between atoms: C33_39  and  O6_40 
ROOT
HETATM    1  C8  UNL     1       2.371  35.091  -0.424  1.00  0.00    -0.018 C 
HETATM    2  C9  UNL     1       1.597  35.683  -1.585  1.00  0.00     0.018 C 
HETATM    3  C10 UNL     1       2.143  36.082   0.717  1.00  0.00     0.012 C 
HETATM    4  C11 UNL     1       3.051  37.235   0.769  1.00  0.00     0.002 C 
HETATM    5  C12 UNL     1       4.381  37.047   0.080  1.00  0.00     0.010 C 
HETATM    6  C13 UNL     1       4.804  35.589   0.141  1.00  0.00    -0.030 C 
HETATM    7  C14 UNL     1       4.656  35.164   1.582  1.00  0.00     0.016 C 
HETATM    8  C15 UNL     1       3.811  34.890  -0.765  1.00  0.00     0.005 C 
HETATM    9  C16 UNL     1       4.175  33.476  -1.075  1.00  0.00     0.007 C 
HETATM   10  C17 UNL     1       5.625  33.259  -1.400  1.00  0.00     0.007 C 
HETATM   11  C18 UNL     1       6.436  33.868  -0.262  1.00  0.00     0.007 C 
HETATM   12  C19 UNL     1       7.802  33.362  -0.082  1.00  0.00    -0.013 C 
HETATM   13  C20 UNL     1       7.928  32.710   1.310  1.00  0.00     0.018 C 
HETATM   14  C21 UNL     1       8.234  32.254  -1.028  1.00  0.00     0.017 C 
HETATM   15  C22 UNL     1       9.649  31.800  -0.664  1.00  0.00     0.062 C 
HETATM   16  C23 UNL     1      10.574  32.828  -0.221  1.00  0.00     0.263 C 
HETATM   17  O5  UNL     1       9.984  33.851   0.601  1.00  0.00    -0.355 OA
HETATM   18  C29 UNL     1       8.928  34.363  -0.155  1.00  0.00     0.133 C 
HETATM   19  C30 UNL     1       8.603  35.761   0.172  1.00  0.00     0.034 C 
HETATM   20  C31 UNL     1       7.211  36.045   0.588  1.00  0.00     0.015 C 
HETATM   21  C32 UNL     1       6.209  35.338  -0.299  1.00  0.00    -0.007 C 
ENDROOT
BRANCH   1  22
HETATM   22  C7  UNL     1       1.624  33.833  -0.048  1.00  0.00     0.188 C 
BRANCH  22  23
HETATM   23  O2  UNL     1       1.397  33.660   1.252  1.00  0.00    -0.321 OA
BRANCH  23  24
HETATM   24  C6  UNL     1       0.578  33.261   2.189  1.00  0.00     0.258 C 
HETATM   25  O1  UNL     1      -0.189  32.302   2.016  1.00  0.00    -0.265 OA
BRANCH  24  26
HETATM   26  C5  UNL     1       0.535  33.965   3.529  1.00  0.00     0.111 C 
BRANCH  26  27
HETATM   27  C4  UNL     1       1.758  33.617   4.315  1.00  0.00     0.010 C 
BRANCH  27  28
HETATM   28  C3  UNL     1       2.664  34.728   4.646  1.00  0.00     0.000 C 
BRANCH  28  29
HETATM   29  C2  UNL     1       2.272  36.124   4.354  1.00  0.00    -0.005 C 
HETATM   30  C1  UNL     1       3.349  37.155   4.366  1.00  0.00     0.005 C 
ENDBRANCH  28  29
ENDBRANCH  27  28
ENDBRANCH  26  27
ENDBRANCH  24  26
ENDBRANCH  23  24
ENDBRANCH  22  23
ENDBRANCH   1  22
BRANCH  21  31
HETATM   31  C33 UNL     1       6.546  35.968  -1.651  1.00  0.00     0.174 C 
BRANCH  31  32
HETATM   32  O6  UNL     1       6.746  37.331  -1.497  1.00  0.00    -0.400 OA
ATOM     33  H6  UNL     1       7.214  37.498  -0.688  1.00  0.00     0.209 HD
ENDBRANCH  31  32
ENDBRANCH  21  31
BRANCH  16  34
HETATM   34  O3  UNL     1      11.632  32.303   0.523  1.00  0.00    -0.332 OA
BRANCH  34  35
HETATM   35  C24 UNL     1      11.941  33.165   1.601  1.00  0.00     0.260 C 
BRANCH  35  36
HETATM   36  O4  UNL     1      12.866  34.130   1.185  1.00  0.00    -0.371 OA
ATOM     37  H4  UNL     1      12.409  34.914   0.903  1.00  0.00     0.212 HD
ENDBRANCH  35  36
BRANCH  35  38
HETATM   38  C25 UNL     1      12.431  32.413   2.780  1.00  0.00     0.060 C 
BRANCH  38  39
HETATM   39  C26 UNL     1      11.829  31.026   2.874  1.00  0.00     0.004 C 
BRANCH  39  40
HETATM   40  C27 UNL     1      11.802  30.601   4.310  1.00  0.00    -0.004 C 
HETATM   41  C28 UNL     1      12.484  31.619   5.211  1.00  0.00     0.005 C 
ENDBRANCH  39  40
ENDBRANCH  38  39
ENDBRANCH  35  38
ENDBRANCH  34  35
ENDBRANCH  16  34
TORSDOF 15
ENDMDL
MODEL 4
REMARK VINA RESULT: -5.998213828      4.304      5.715
REMARK  15 active torsions:
REMARK  status: ('A' for Active; 'I' for Inactive)
REMARK    1  A    between atoms: C2_2  and  C3_3 
REMARK    2  A    between atoms: C3_3  and  C4_4 
REMARK    3  A    between atoms: C4_4  and  C5_5 
REMARK    4  A    between atoms: C5_5  and  C6_6 
REMARK    5  A    between atoms: C6_6  and  O2_8 
REMARK    6  A    between atoms: O2_8  and  C7_9 
REMARK    7  A    between atoms: C7_9  and  C8_10 
REMARK    8  A    between atoms: C23_25  and  O3_26 
REMARK    9  A    between atoms: O3_26  and  C24_27 
REMARK   10  A    between atoms: C24_27  and  O4_28 
REMARK   11  A    between atoms: C24_27  and  C25_30 
REMARK   12  A    between atoms: C25_30  and  C26_31 
REMARK   13  A    between atoms: C26_31  and  C27_32 
REMARK   14  A    between atoms: C32_38  and  C33_39 
REMARK   15  A    between atoms: C33_39  and  O6_40 
ROOT
HETATM    1  C8  UNL     1      10.560  35.116  -0.239  1.00  0.00    -0.018 C 
HETATM    2  C9  UNL     1      11.429  35.472  -1.428  1.00  0.00     0.018 C 
HETATM    3  C10 UNL     1      10.964  33.681   0.099  1.00  0.00     0.012 C 
HETATM    4  C11 UNL     1      10.280  32.619  -0.651  1.00  0.00     0.002 C 
HETATM    5  C12 UNL     1       8.938  32.994  -1.232  1.00  0.00     0.010 C 
HETATM    6  C13 UNL     1       8.258  34.034  -0.358  1.00  0.00    -0.030 C 
HETATM    7  C14 UNL     1       8.326  33.509   1.057  1.00  0.00     0.016 C 
HETATM    8  C15 UNL     1       9.108  35.273  -0.548  1.00  0.00     0.005 C 
HETATM    9  C16 UNL     1       8.494  36.513   0.012  1.00  0.00     0.007 C 
HETATM   10  C17 UNL     1       7.029  36.672  -0.277  1.00  0.00     0.007 C 
HETATM   11  C18 UNL     1       6.341  35.388   0.172  1.00  0.00     0.007 C 
HETATM   12  C19 UNL     1       4.906  35.476   0.466  1.00  0.00    -0.013 C 
HETATM   13  C20 UNL     1       4.663  35.120   1.947  1.00  0.00     0.018 C 
HETATM   14  C21 UNL     1       4.280  36.856   0.331  1.00  0.00     0.017 C 
HETATM   15  C22 UNL     1       2.806  36.785   0.735  1.00  0.00     0.062 C 
HETATM   16  C23 UNL     1       2.083  35.580   0.369  1.00  0.00     0.263 C 
HETATM   17  O5  UNL     1       2.848  34.367   0.474  1.00  0.00    -0.355 OA
HETATM   18  C29 UNL     1       3.980  34.579  -0.316  1.00  0.00     0.133 C 
HETATM   19  C30 UNL     1       4.553  33.335  -0.857  1.00  0.00     0.034 C 
HETATM   20  C31 UNL     1       5.973  33.060  -0.543  1.00  0.00     0.015 C 
HETATM   21  C32 UNL     1       6.831  34.296  -0.713  1.00  0.00    -0.007 C 
ENDROOT
BRANCH   1  22
HETATM   22  C7  UNL     1      11.067  35.975   0.895  1.00  0.00     0.188 C 
BRANCH  22  23
HETATM   23  O2  UNL     1      12.039  35.446   1.635  1.00  0.00    -0.321 OA
BRANCH  23  24
HETATM   24  C6  UNL     1      12.995  35.635   2.506  1.00  0.00     0.258 C 
HETATM   25  O1  UNL     1      13.913  36.443   2.298  1.00  0.00    -0.265 OA
BRANCH  24  26
HETATM   26  C5  UNL     1      13.015  34.865   3.810  1.00  0.00     0.111 C 
BRANCH  26  27
HETATM   27  C4  UNL     1      13.450  33.459   3.553  1.00  0.00     0.010 C 
BRANCH  27  28
HETATM   28  C3  UNL     1      12.440  32.410   3.764  1.00  0.00     0.000 C 
BRANCH  28  29
HETATM   29  C2  UNL     1      12.099  31.473   2.672  1.00  0.00    -0.005 C 
HETATM   30  C1  UNL     1      10.786  30.771   2.756  1.00  0.00     0.005 C 
ENDBRANCH  28  29
ENDBRANCH  27  28
ENDBRANCH  26  27
ENDBRANCH  24  26
ENDBRANCH  23  24
ENDBRANCH  22  23
ENDBRANCH   1  22
BRANCH  21  31
HETATM   31  C33 UNL     1       6.614  34.579  -2.199  1.00  0.00     0.174 C 
BRANCH  31  32
HETATM   32  O6  UNL     1       6.650  33.391  -2.913  1.00  0.00    -0.400 OA
ATOM     33  H6  UNL     1       6.213  33.505  -3.748  1.00  0.00     0.209 HD
ENDBRANCH  31  32
ENDBRANCH  21  31
BRANCH  16  34
HETATM   34  O3  UNL     1       0.947  35.386   1.156  1.00  0.00    -0.332 OA
BRANCH  34  35
HETATM   35  C24 UNL     1       1.083  34.201   1.918  1.00  0.00     0.260 C 
BRANCH  35  36
HETATM   36  O4  UNL     1       0.233  33.211   1.408  1.00  0.00    -0.371 OA
ATOM     37  H4  UNL     1       0.441  33.048   0.496  1.00  0.00     0.212 HD
ENDBRANCH  35  36
BRANCH  35  38
HETATM   38  C25 UNL     1       0.834  34.445   3.358  1.00  0.00     0.060 C 
BRANCH  38  39
HETATM   39  C26 UNL     1       2.080  34.263   4.201  1.00  0.00     0.004 C 
BRANCH  39  40
HETATM   40  C27 UNL     1       1.821  33.210   5.235  1.00  0.00    -0.004 C 
HETATM   41  C28 UNL     1       1.355  31.906   4.607  1.00  0.00     0.005 C 
ENDBRANCH  39  40
ENDBRANCH  38  39
ENDBRANCH  35  38
ENDBRANCH  34  35
ENDBRANCH  16  34
TORSDOF 15
ENDMDL
MODEL 5
REMARK VINA RESULT: -5.953434524      3.628      6.502
REMARK  15 active torsions:
REMARK  status: ('A' for Active; 'I' for Inactive)
REMARK    1  A    between atoms: C2_2  and  C3_3 
REMARK    2  A    between atoms: C3_3  and  C4_4 
REMARK    3  A    between atoms: C4_4  and  C5_5 
REMARK    4  A    between atoms: C5_5  and  C6_6 
REMARK    5  A    between atoms: C6_6  and  O2_8 
REMARK    6  A    between atoms: O2_8  and  C7_9 
REMARK    7  A    between atoms: C7_9  and  C8_10 
REMARK    8  A    between atoms: C23_25  and  O3_26 
REMARK    9  A    between atoms: O3_26  and  C24_27 
REMARK   10  A    between atoms: C24_27  and  O4_28 
REMARK   11  A    between atoms: C24_27  and  C25_30 
REMARK   12  A    between atoms: C25_30  and  C26_31 
REMARK   13  A    between atoms: C26_31  and  C27_32 
REMARK   14  A    between atoms: C32_38  and  C33_39 
REMARK   15  A    between atoms: C33_39  and  O6_40 
ROOT
HETATM    1  C8  UNL     1       7.372  37.786  -3.066  1.00  0.00    -0.018 C 
HETATM    2  C9  UNL     1       7.794  38.242  -4.448  1.00  0.00     0.018 C 
HETATM    3  C10 UNL     1       7.595  39.016  -2.186  1.00  0.00     0.012 C 
HETATM    4  C11 UNL     1       8.952  39.198  -1.653  1.00  0.00     0.002 C 
HETATM    5  C12 UNL     1       9.788  37.944  -1.564  1.00  0.00     0.010 C 
HETATM    6  C13 UNL     1       8.901  36.735  -1.321  1.00  0.00    -0.030 C 
HETATM    7  C14 UNL     1       7.995  37.098  -0.169  1.00  0.00     0.016 C 
HETATM    8  C15 UNL     1       8.138  36.584  -2.621  1.00  0.00     0.005 C 
HETATM    9  C16 UNL     1       7.380  35.302  -2.727  1.00  0.00     0.007 C 
HETATM   10  C17 UNL     1       8.135  34.089  -2.265  1.00  0.00     0.007 C 
HETATM   11  C18 UNL     1       8.648  34.387  -0.860  1.00  0.00     0.007 C 
HETATM   12  C19 UNL     1       8.961  33.230  -0.013  1.00  0.00    -0.013 C 
HETATM   13  C20 UNL     1       8.053  33.247   1.234  1.00  0.00     0.018 C 
HETATM   14  C21 UNL     1       8.694  31.863  -0.623  1.00  0.00     0.017 C 
HETATM   15  C22 UNL     1       9.010  30.778   0.408  1.00  0.00     0.062 C 
HETATM   16  C23 UNL     1      10.144  31.014   1.283  1.00  0.00     0.263 C 
HETATM   17  O5  UNL     1      10.302  32.381   1.703  1.00  0.00    -0.355 OA
HETATM   18  C29 UNL     1      10.367  33.122   0.521  1.00  0.00     0.133 C 
HETATM   19  C30 UNL     1      11.128  34.374   0.661  1.00  0.00     0.034 C 
HETATM   20  C31 UNL     1      10.425  35.628   0.308  1.00  0.00     0.015 C 
HETATM   21  C32 UNL     1       9.645  35.485  -0.982  1.00  0.00    -0.007 C 
ENDROOT
BRANCH   1  22
HETATM   22  C7  UNL     1       5.876  37.593  -3.151  1.00  0.00     0.188 C 
BRANCH  22  23
HETATM   23  O2  UNL     1       5.185  37.934  -2.065  1.00  0.00    -0.321 OA
BRANCH  23  24
HETATM   24  C6  UNL     1       4.299  37.595  -1.166  1.00  0.00     0.258 C 
HETATM   25  O1  UNL     1       3.756  38.439  -0.438  1.00  0.00    -0.265 OA
BRANCH  24  26
HETATM   26  C5  UNL     1       3.903  36.144  -0.981  1.00  0.00     0.111 C 
BRANCH  26  27
HETATM   27  C4  UNL     1       4.794  35.511   0.038  1.00  0.00     0.010 C 
BRANCH  27  28
HETATM   28  C3  UNL     1       4.938  34.048  -0.034  1.00  0.00     0.000 C 
BRANCH  28  29
HETATM   29  C2  UNL     1       4.548  33.320  -1.261  1.00  0.00    -0.005 C 
HETATM   30  C1  UNL     1       5.174  31.986  -1.493  1.00  0.00     0.005 C 
ENDBRANCH  28  29
ENDBRANCH  27  28
ENDBRANCH  26  27
ENDBRANCH  24  26
ENDBRANCH  23  24
ENDBRANCH  22  23
ENDBRANCH   1  22
BRANCH  21  31
HETATM   31  C33 UNL     1      10.779  35.166  -1.956  1.00  0.00     0.174 C 
BRANCH  31  32
HETATM   32  O6  UNL     1      11.855  36.006  -1.713  1.00  0.00    -0.400 OA
ATOM     33  H6  UNL     1      11.574  36.745  -1.187  1.00  0.00     0.209 HD
ENDBRANCH  31  32
ENDBRANCH  21  31
BRANCH  16  34
HETATM   34  O3  UNL     1      10.075  30.259   2.454  1.00  0.00    -0.332 OA
BRANCH  34  35
HETATM   35  C24 UNL     1      11.265  30.417   3.203  1.00  0.00     0.260 C 
BRANCH  35  36
HETATM   36  O4  UNL     1      12.328  30.721   2.343  1.00  0.00    -0.371 OA
ATOM     37  H4  UNL     1      12.341  31.655   2.166  1.00  0.00     0.212 HD
ENDBRANCH  35  36
BRANCH  35  38
HETATM   38  C25 UNL     1      11.556  29.220   4.026  1.00  0.00     0.060 C 
BRANCH  38  39
HETATM   39  C26 UNL     1      12.532  29.511   5.149  1.00  0.00     0.004 C 
BRANCH  39  40
HETATM   40  C27 UNL     1      13.124  28.222   5.629  1.00  0.00    -0.004 C 
HETATM   41  C28 UNL     1      13.861  28.397   6.948  1.00  0.00     0.005 C 
ENDBRANCH  39  40
ENDBRANCH  38  39
ENDBRANCH  35  38
ENDBRANCH  34  35
ENDBRANCH  16  34
TORSDOF 15
ENDMDL
