MODEL 1
REMARK VINA RESULT: -8.829071836      0.000      0.000
REMARK  11 active torsions:
REMARK  status: ('A' for Active; 'I' for Inactive)
REMARK    1  A    between atoms: C2_2  and  C3_3 
REMARK    2  A    between atoms: C3_3  and  C4_4 
REMARK    3  A    between atoms: C4_4  and  C5_5 
REMARK    4  A    between atoms: C7_10  and  C8_11 
REMARK    5  A    between atoms: C8_11  and  C9_12 
REMARK    6  A    between atoms: C10_13  and  C11_14 
REMARK    7  A    between atoms: C11_14  and  N2_15 
REMARK    8  A    between atoms: C15_22  and  C16_23 
REMARK    9  A    between atoms: C22_34  and  C23_35 
REMARK   10  A    between atoms: C27_42  and  C28_43 
REMARK   11  A    between atoms: C28_43  and  C29_44 
ROOT
HETATM    1  C5  UNL     1      19.474 -14.629  20.553  1.00  0.00     0.176 C 
HETATM    2  N1  UNL     1      18.115 -14.959  20.970  1.00  0.00    -0.346 N 
ATOM      3  H1  UNL     1      18.024 -15.884  21.390  1.00  0.00     0.163 HD
HETATM    4  C6  UNL     1      16.937 -14.256  20.904  1.00  0.00     0.241 C 
HETATM    5  O1  UNL     1      16.452 -13.758  22.001  1.00  0.00    -0.271 OA
HETATM    6  C7  UNL     1      16.037 -13.925  19.772  1.00  0.00     0.180 C 
HETATM    7  N3  UNL     1      14.669 -14.414  19.963  1.00  0.00    -0.346 N 
ATOM      8  H3  UNL     1      13.954 -13.878  19.471  1.00  0.00     0.163 HD
HETATM    9  C14 UNL     1      14.181 -15.486  20.703  1.00  0.00     0.241 C 
HETATM   10  O2  UNL     1      13.394 -15.170  21.684  1.00  0.00    -0.271 OA
HETATM   11  C15 UNL     1      14.387 -16.933  20.581  1.00  0.00     0.180 C 
HETATM   12  N4  UNL     1      15.472 -17.510  21.309  1.00  0.00    -0.346 N 
ATOM     13  H4  UNL     1      16.354 -17.513  20.797  1.00  0.00     0.163 HD
HETATM   14  C19 UNL     1      15.561 -18.065  22.574  1.00  0.00     0.235 C 
HETATM   15  O3  UNL     1      15.930 -19.295  22.689  1.00  0.00    -0.272 OA
HETATM   16  C20 UNL     1      15.279 -17.420  23.895  1.00  0.00     0.217 C 
HETATM   17  N5  UNL     1      16.271 -16.425  24.223  1.00  0.00    -0.411 N 
ATOM     18  H5  UNL     1      16.366 -15.565  23.684  1.00  0.00     0.153 HD
HETATM   19  C21 UNL     1      17.116 -16.710  25.345  1.00  0.00     0.139 C 
HETATM   20  C22 UNL     1      18.342 -17.461  25.009  1.00  0.00     0.105 C 
HETATM   21  N6  UNL     1      19.560 -16.756  24.785  1.00  0.00    -0.353 N 
ATOM     22  H6  UNL     1      20.349 -17.148  25.299  1.00  0.00     0.163 HD
HETATM   23  C26 UNL     1      19.904 -15.654  24.019  1.00  0.00     0.240 C 
HETATM   24  O4  UNL     1      20.794 -15.830  23.107  1.00  0.00    -0.271 OA
HETATM   25  C27 UNL     1      19.417 -14.242  24.061  1.00  0.00     0.177 C 
HETATM   26  N7  UNL     1      19.719 -13.494  22.877  1.00  0.00    -0.346 N 
ATOM     27  H7  UNL     1      19.557 -12.491  22.971  1.00  0.00     0.163 HD
HETATM   28  C32 UNL     1      20.195 -13.878  21.614  1.00  0.00     0.241 C 
HETATM   29  O5  UNL     1      21.402 -13.538  21.340  1.00  0.00    -0.271 OA
ENDROOT
BRANCH   6  30
HETATM   30  C8  UNL     1      15.962 -12.363  19.831  1.00  0.00     0.061 C 
BRANCH  30  31
HETATM   31  C9  UNL     1      14.690 -11.897  19.281  1.00  0.00    -0.026 C 
HETATM   32  C10 UNL     1      13.866 -11.081  19.907  1.00  0.00    -0.001 C 
BRANCH  32  33
HETATM   33  C11 UNL     1      14.030 -10.480  21.239  1.00  0.00     0.298 C 
BRANCH  33  34
HETATM   34  N2  UNL     1      12.733 -10.599  21.925  1.00  0.00     0.083 N 
HETATM   35  C12 UNL     1      12.631 -11.863  22.617  1.00  0.00     0.309 C 
HETATM   36  C13 UNL     1      12.662  -9.477  22.836  1.00  0.00     0.309 C 
ENDBRANCH  33  34
ENDBRANCH  32  33
ENDBRANCH  30  31
ENDBRANCH   6  30
BRANCH   1  37
HETATM   37  C4  UNL     1      19.498 -14.033  19.178  1.00  0.00     0.035 C 
BRANCH  37  38
HETATM   38  C3  UNL     1      20.452 -14.685  18.218  1.00  0.00     0.002 C 
BRANCH  38  39
HETATM   39  C2  UNL     1      20.811 -13.628  17.161  1.00  0.00    -0.004 C 
HETATM   40  C1  UNL     1      21.323 -12.439  17.932  1.00  0.00     0.005 C 
ENDBRANCH  38  39
ENDBRANCH  37  38
ENDBRANCH   1  37
BRANCH  11  41
HETATM   41  C16 UNL     1      14.533 -17.356  19.096  1.00  0.00     0.009 C 
HETATM   42  C17 UNL     1      16.036 -17.585  18.917  1.00  0.00     0.012 C 
HETATM   43  C18 UNL     1      13.882 -18.708  18.931  1.00  0.00     0.012 C 
ENDBRANCH  11  41
BRANCH  25  44
HETATM   44  C28 UNL     1      19.925 -13.681  25.354  1.00  0.00     0.038 C 
BRANCH  44  45
HETATM   45  C29 UNL     1      20.962 -12.649  25.396  1.00  0.00    -0.020 C 
HETATM   46  C30 UNL     1      21.178 -12.392  26.936  1.00  0.00     0.009 C 
HETATM   47  C31 UNL     1      22.360 -13.121  24.989  1.00  0.00     0.009 C 
ENDBRANCH  44  45
ENDBRANCH  25  44
BRANCH  20  48
HETATM   48  C23 UNL     1      18.557 -18.468  26.142  1.00  0.00     0.002 C 
HETATM   49  C24 UNL     1      18.534 -17.855  27.500  1.00  0.00     0.011 C 
HETATM   50  C25 UNL     1      17.529 -19.571  26.095  1.00  0.00     0.011 C 
ENDBRANCH  20  48
TORSDOF 11
ENDMDL
MODEL 2
REMARK VINA RESULT: -8.144839965      1.515      1.738
REMARK  11 active torsions:
REMARK  status: ('A' for Active; 'I' for Inactive)
REMARK    1  A    between atoms: C2_2  and  C3_3 
REMARK    2  A    between atoms: C3_3  and  C4_4 
REMARK    3  A    between atoms: C4_4  and  C5_5 
REMARK    4  A    between atoms: C7_10  and  C8_11 
REMARK    5  A    between atoms: C8_11  and  C9_12 
REMARK    6  A    between atoms: C10_13  and  C11_14 
REMARK    7  A    between atoms: C11_14  and  N2_15 
REMARK    8  A    between atoms: C15_22  and  C16_23 
REMARK    9  A    between atoms: C22_34  and  C23_35 
REMARK   10  A    between atoms: C27_42  and  C28_43 
REMARK   11  A    between atoms: C28_43  and  C29_44 
ROOT
HETATM    1  C5  UNL     1      19.826 -13.807  19.556  1.00  0.00     0.176 C 
HETATM    2  N1  UNL     1      18.717 -14.513  20.190  1.00  0.00    -0.346 N 
ATOM      3  H1  UNL     1      18.908 -15.495  20.383  1.00  0.00     0.163 HD
HETATM    4  C6  UNL     1      17.464 -14.100  20.574  1.00  0.00     0.241 C 
HETATM    5  O1  UNL     1      17.228 -13.940  21.841  1.00  0.00    -0.271 OA
HETATM    6  C7  UNL     1      16.240 -13.779  19.800  1.00  0.00     0.180 C 
HETATM    7  N3  UNL     1      15.087 -14.596  20.184  1.00  0.00    -0.346 N 
ATOM      8  H3  UNL     1      14.181 -14.157  20.018  1.00  0.00     0.163 HD
HETATM    9  C14 UNL     1      15.018 -15.870  20.738  1.00  0.00     0.241 C 
HETATM   10  O2  UNL     1      14.495 -15.933  21.923  1.00  0.00    -0.271 OA
HETATM   11  C15 UNL     1      15.427 -17.182  20.226  1.00  0.00     0.180 C 
HETATM   12  N4  UNL     1      16.756 -17.620  20.517  1.00  0.00    -0.346 N 
ATOM     13  H4  UNL     1      17.445 -17.325  19.827  1.00  0.00     0.163 HD
HETATM   14  C19 UNL     1      17.290 -18.366  21.553  1.00  0.00     0.235 C 
HETATM   15  O3  UNL     1      17.883 -19.477  21.278  1.00  0.00    -0.272 OA
HETATM   16  C20 UNL     1      17.283 -18.061  23.019  1.00  0.00     0.217 C 
HETATM   17  N5  UNL     1      18.140 -16.945  23.333  1.00  0.00    -0.411 N 
ATOM     18  H5  UNL     1      17.930 -16.000  23.011  1.00  0.00     0.153 HD
HETATM   19  C21 UNL     1      19.302 -17.231  24.122  1.00  0.00     0.139 C 
HETATM   20  C22 UNL     1      20.495 -17.605  23.336  1.00  0.00     0.105 C 
HETATM   21  N6  UNL     1      21.460 -16.610  23.008  1.00  0.00    -0.353 N 
ATOM     22  H6  UNL     1      22.418 -16.898  23.212  1.00  0.00     0.163 HD
HETATM   23  C26 UNL     1      21.380 -15.334  22.472  1.00  0.00     0.240 C 
HETATM   24  O4  UNL     1      21.996 -15.128  21.360  1.00  0.00    -0.271 OA
HETATM   25  C27 UNL     1      20.689 -14.106  22.965  1.00  0.00     0.177 C 
HETATM   26  N7  UNL     1      20.513 -13.101  21.960  1.00  0.00    -0.346 N 
ATOM     27  H7  UNL     1      20.213 -12.198  22.328  1.00  0.00     0.163 HD
HETATM   28  C32 UNL     1      20.674 -13.122  20.566  1.00  0.00     0.241 C 
HETATM   29  O5  UNL     1      21.679 -12.469  20.106  1.00  0.00    -0.271 OA
ENDROOT
BRANCH   6  30
HETATM   30  C8  UNL     1      15.917 -12.315  20.249  1.00  0.00     0.061 C 
BRANCH  30  31
HETATM   31  C9  UNL     1      14.730 -11.823  19.551  1.00  0.00    -0.026 C 
HETATM   32  C10 UNL     1      13.855 -10.988  20.073  1.00  0.00    -0.001 C 
BRANCH  32  33
HETATM   33  C11 UNL     1      13.872 -10.386  21.415  1.00  0.00     0.298 C 
BRANCH  33  34
HETATM   34  N2  UNL     1      12.581 -10.712  22.046  1.00  0.00     0.083 N 
HETATM   35  C12 UNL     1      12.624 -12.019  22.658  1.00  0.00     0.309 C 
HETATM   36  C13 UNL     1      12.342  -9.667  23.018  1.00  0.00     0.309 C 
ENDBRANCH  33  34
ENDBRANCH  32  33
ENDBRANCH  30  31
ENDBRANCH   6  30
BRANCH   1  37
HETATM   37  C4  UNL     1      19.361 -12.976  18.400  1.00  0.00     0.035 C 
BRANCH  37  38
HETATM   38  C3  UNL     1      19.521 -13.616  17.050  1.00  0.00     0.002 C 
BRANCH  38  39
HETATM   39  C2  UNL     1      21.017 -13.555  16.704  1.00  0.00    -0.004 C 
HETATM   40  C1  UNL     1      21.344 -12.090  16.570  1.00  0.00     0.005 C 
ENDBRANCH  38  39
ENDBRANCH  37  38
ENDBRANCH   1  37
BRANCH  11  41
HETATM   41  C16 UNL     1      15.222 -17.276  18.691  1.00  0.00     0.009 C 
HETATM   42  C17 UNL     1      16.631 -17.118  18.113  1.00  0.00     0.012 C 
HETATM   43  C18 UNL     1      14.791 -18.685  18.364  1.00  0.00     0.012 C 
ENDBRANCH  11  41
BRANCH  25  44
HETATM   44  C28 UNL     1      21.434 -13.695  24.198  1.00  0.00     0.038 C 
BRANCH  44  45
HETATM   45  C29 UNL     1      20.892 -13.915  25.541  1.00  0.00    -0.020 C 
HETATM   46  C30 UNL     1      21.190 -12.563  26.295  1.00  0.00     0.009 C 
HETATM   47  C31 UNL     1      19.365 -13.953  25.622  1.00  0.00     0.009 C 
ENDBRANCH  44  45
ENDBRANCH  25  44
BRANCH  20  48
HETATM   48  C23 UNL     1      21.189 -18.729  24.110  1.00  0.00     0.002 C 
HETATM   49  C24 UNL     1      21.562 -18.355  25.503  1.00  0.00     0.011 C 
HETATM   50  C25 UNL     1      20.331 -19.969  24.159  1.00  0.00     0.011 C 
ENDBRANCH  20  48
TORSDOF 11
ENDMDL
MODEL 3
REMARK VINA RESULT: -8.098215417      1.454      2.566
REMARK  11 active torsions:
REMARK  status: ('A' for Active; 'I' for Inactive)
REMARK    1  A    between atoms: C2_2  and  C3_3 
REMARK    2  A    between atoms: C3_3  and  C4_4 
REMARK    3  A    between atoms: C4_4  and  C5_5 
REMARK    4  A    between atoms: C7_10  and  C8_11 
REMARK    5  A    between atoms: C8_11  and  C9_12 
REMARK    6  A    between atoms: C10_13  and  C11_14 
REMARK    7  A    between atoms: C11_14  and  N2_15 
REMARK    8  A    between atoms: C15_22  and  C16_23 
REMARK    9  A    between atoms: C22_34  and  C23_35 
REMARK   10  A    between atoms: C27_42  and  C28_43 
REMARK   11  A    between atoms: C28_43  and  C29_44 
ROOT
HETATM    1  C5  UNL     1      19.608 -14.638  20.541  1.00  0.00     0.176 C 
HETATM    2  N1  UNL     1      18.242 -14.966  20.937  1.00  0.00    -0.346 N 
ATOM      3  H1  UNL     1      18.142 -15.888  21.359  1.00  0.00     0.163 HD
HETATM    4  C6  UNL     1      17.065 -14.263  20.846  1.00  0.00     0.241 C 
HETATM    5  O1  UNL     1      16.561 -13.758  21.931  1.00  0.00    -0.271 OA
HETATM    6  C7  UNL     1      16.185 -13.937  19.697  1.00  0.00     0.180 C 
HETATM    7  N3  UNL     1      14.814 -14.424  19.866  1.00  0.00    -0.346 N 
ATOM      8  H3  UNL     1      14.109 -13.890  19.358  1.00  0.00     0.163 HD
HETATM    9  C14 UNL     1      14.312 -15.492  20.602  1.00  0.00     0.241 C 
HETATM   10  O2  UNL     1      13.508 -15.170  21.568  1.00  0.00    -0.271 OA
HETATM   11  C15 UNL     1      14.519 -16.940  20.492  1.00  0.00     0.180 C 
HETATM   12  N4  UNL     1      15.591 -17.513  21.242  1.00  0.00    -0.346 N 
ATOM     13  H4  UNL     1      16.482 -17.520  20.746  1.00  0.00     0.163 HD
HETATM   14  C19 UNL     1      15.657 -18.063  22.511  1.00  0.00     0.235 C 
HETATM   15  O3  UNL     1      16.024 -19.292  22.639  1.00  0.00    -0.272 OA
HETATM   16  C20 UNL     1      15.353 -17.410  23.823  1.00  0.00     0.217 C 
HETATM   17  N5  UNL     1      16.339 -16.414  24.164  1.00  0.00    -0.411 N 
ATOM     18  H5  UNL     1      16.444 -15.556  23.622  1.00  0.00     0.153 HD
HETATM   19  C21 UNL     1      17.164 -16.693  25.302  1.00  0.00     0.139 C 
HETATM   20  C22 UNL     1      18.396 -17.447  24.992  1.00  0.00     0.105 C 
HETATM   21  N6  UNL     1      19.618 -16.743  24.786  1.00  0.00    -0.353 N 
ATOM     22  H6  UNL     1      20.397 -17.133  25.316  1.00  0.00     0.163 HD
HETATM   23  C26 UNL     1      19.976 -15.645  24.020  1.00  0.00     0.240 C 
HETATM   24  O4  UNL     1      20.882 -15.827  23.125  1.00  0.00    -0.271 OA
HETATM   25  C27 UNL     1      19.488 -14.233  24.046  1.00  0.00     0.177 C 
HETATM   26  N7  UNL     1      19.812 -13.492  22.864  1.00  0.00    -0.346 N 
ATOM     27  H7  UNL     1      19.649 -12.488  22.950  1.00  0.00     0.163 HD
HETATM   28  C32 UNL     1      20.310 -13.882  21.611  1.00  0.00     0.241 C 
HETATM   29  O5  UNL     1      21.522 -13.544  21.357  1.00  0.00    -0.271 OA
ENDROOT
BRANCH   6  30
HETATM   30  C8  UNL     1      16.111 -12.374  19.746  1.00  0.00     0.061 C 
BRANCH  30  31
HETATM   31  C9  UNL     1      15.563 -11.855  18.493  1.00  0.00    -0.026 C 
HETATM   32  C10 UNL     1      16.257 -11.713  17.383  1.00  0.00    -0.001 C 
BRANCH  32  33
HETATM   33  C11 UNL     1      17.677 -12.028  17.159  1.00  0.00     0.298 C 
BRANCH  33  34
HETATM   34  N2  UNL     1      17.999 -11.599  15.788  1.00  0.00     0.083 N 
HETATM   35  C12 UNL     1      18.108 -12.736  14.906  1.00  0.00     0.309 C 
HETATM   36  C13 UNL     1      16.931 -10.706  15.391  1.00  0.00     0.309 C 
ENDBRANCH  33  34
ENDBRANCH  32  33
ENDBRANCH  30  31
ENDBRANCH   6  30
BRANCH   1  37
HETATM   37  C4  UNL     1      19.656 -14.049  19.165  1.00  0.00     0.035 C 
BRANCH  37  38
HETATM   38  C3  UNL     1      20.604 -14.727  18.216  1.00  0.00     0.002 C 
BRANCH  38  39
HETATM   39  C2  UNL     1      20.954 -13.699  17.128  1.00  0.00    -0.004 C 
HETATM   40  C1  UNL     1      21.303 -12.431  17.863  1.00  0.00     0.005 C 
ENDBRANCH  38  39
ENDBRANCH  37  38
ENDBRANCH   1  37
BRANCH  11  41
HETATM   41  C16 UNL     1      14.692 -17.371  19.012  1.00  0.00     0.009 C 
HETATM   42  C17 UNL     1      16.198 -17.599  18.860  1.00  0.00     0.012 C 
HETATM   43  C18 UNL     1      14.044 -18.724  18.843  1.00  0.00     0.012 C 
ENDBRANCH  11  41
BRANCH  25  44
HETATM   44  C28 UNL     1      19.974 -13.666  25.345  1.00  0.00     0.038 C 
BRANCH  44  45
HETATM   45  C29 UNL     1      21.006 -12.628  25.399  1.00  0.00    -0.020 C 
HETATM   46  C30 UNL     1      21.186 -12.355  26.942  1.00  0.00     0.009 C 
HETATM   47  C31 UNL     1      22.414 -13.099  25.030  1.00  0.00     0.009 C 
ENDBRANCH  44  45
ENDBRANCH  25  44
BRANCH  20  48
HETATM   48  C23 UNL     1      18.589 -18.448  26.133  1.00  0.00     0.002 C 
HETATM   49  C24 UNL     1      19.922 -19.114  26.126  1.00  0.00     0.011 C 
HETATM   50  C25 UNL     1      18.388 -17.792  27.477  1.00  0.00     0.011 C 
ENDBRANCH  20  48
TORSDOF 11
ENDMDL
MODEL 4
REMARK VINA RESULT: -7.998474853      1.784      2.257
REMARK  11 active torsions:
REMARK  status: ('A' for Active; 'I' for Inactive)
REMARK    1  A    between atoms: C2_2  and  C3_3 
REMARK    2  A    between atoms: C3_3  and  C4_4 
REMARK    3  A    between atoms: C4_4  and  C5_5 
REMARK    4  A    between atoms: C7_10  and  C8_11 
REMARK    5  A    between atoms: C8_11  and  C9_12 
REMARK    6  A    between atoms: C10_13  and  C11_14 
REMARK    7  A    between atoms: C11_14  and  N2_15 
REMARK    8  A    between atoms: C15_22  and  C16_23 
REMARK    9  A    between atoms: C22_34  and  C23_35 
REMARK   10  A    between atoms: C27_42  and  C28_43 
REMARK   11  A    between atoms: C28_43  and  C29_44 
ROOT
HETATM    1  C5  UNL     1      19.318 -13.733  19.507  1.00  0.00     0.176 C 
HETATM    2  N1  UNL     1      18.446 -14.681  20.194  1.00  0.00    -0.346 N 
ATOM      3  H1  UNL     1      18.873 -15.593  20.357  1.00  0.00     0.163 HD
HETATM    4  C6  UNL     1      17.159 -14.575  20.661  1.00  0.00     0.241 C 
HETATM    5  O1  UNL     1      16.972 -14.480  21.943  1.00  0.00    -0.271 OA
HETATM    6  C7  UNL     1      15.847 -14.546  19.970  1.00  0.00     0.180 C 
HETATM    7  N3  UNL     1      14.943 -15.612  20.408  1.00  0.00    -0.346 N 
ATOM      8  H3  UNL     1      13.951 -15.396  20.305  1.00  0.00     0.163 HD
HETATM    9  C14 UNL     1      15.208 -16.869  20.940  1.00  0.00     0.241 C 
HETATM   10  O2  UNL     1      14.791 -17.057  22.154  1.00  0.00    -0.271 OA
HETATM   11  C15 UNL     1      15.879 -18.047  20.380  1.00  0.00     0.180 C 
HETATM   12  N4  UNL     1      17.289 -18.163  20.582  1.00  0.00    -0.346 N 
ATOM     13  H4  UNL     1      17.845 -17.711  19.856  1.00  0.00     0.163 HD
HETATM   14  C19 UNL     1      18.047 -18.768  21.569  1.00  0.00     0.235 C 
HETATM   15  O3  UNL     1      18.864 -19.708  21.238  1.00  0.00    -0.272 OA
HETATM   16  C20 UNL     1      18.062 -18.478  23.038  1.00  0.00     0.217 C 
HETATM   17  N5  UNL     1      18.653 -17.194  23.321  1.00  0.00    -0.411 N 
ATOM     18  H5  UNL     1      18.209 -16.323  23.030  1.00  0.00     0.153 HD
HETATM   19  C21 UNL     1      19.898 -17.204  24.032  1.00  0.00     0.139 C 
HETATM   20  C22 UNL     1      21.093 -17.284  23.168  1.00  0.00     0.105 C 
HETATM   21  N6  UNL     1      21.776 -16.089  22.801  1.00  0.00    -0.353 N 
ATOM     22  H6  UNL     1      22.785 -16.147  22.941  1.00  0.00     0.163 HD
HETATM   23  C26 UNL     1      21.367 -14.866  22.294  1.00  0.00     0.240 C 
HETATM   24  O4  UNL     1      21.845 -14.517  21.152  1.00  0.00    -0.271 OA
HETATM   25  C27 UNL     1      20.441 -13.836  22.852  1.00  0.00     0.177 C 
HETATM   26  N7  UNL     1      19.972 -12.896  21.879  1.00  0.00    -0.346 N 
ATOM     27  H7  UNL     1      19.494 -12.089  22.281  1.00  0.00     0.163 HD
HETATM   28  C32 UNL     1      20.045 -12.873  20.477  1.00  0.00     0.241 C 
HETATM   29  O5  UNL     1      20.838 -12.001  19.969  1.00  0.00    -0.271 OA
ENDROOT
BRANCH   6  30
HETATM   30  C8  UNL     1      15.220 -13.200  20.465  1.00  0.00     0.061 C 
BRANCH  30  31
HETATM   31  C9  UNL     1      13.764 -13.245  20.338  1.00  0.00    -0.026 C 
HETATM   32  C10 UNL     1      12.932 -12.571  21.107  1.00  0.00    -0.001 C 
BRANCH  32  33
HETATM   33  C11 UNL     1      13.262 -11.663  22.215  1.00  0.00     0.298 C 
BRANCH  33  34
HETATM   34  N2  UNL     1      12.853 -10.312  21.798  1.00  0.00     0.083 N 
HETATM   35  C12 UNL     1      12.222  -9.606  22.887  1.00  0.00     0.309 C 
HETATM   36  C13 UNL     1      14.062  -9.652  21.354  1.00  0.00     0.309 C 
ENDBRANCH  33  34
ENDBRANCH  32  33
ENDBRANCH  30  31
ENDBRANCH   6  30
BRANCH   1  37
HETATM   37  C4  UNL     1      18.598 -13.029  18.398  1.00  0.00     0.035 C 
BRANCH  37  38
HETATM   38  C3  UNL     1      19.012 -13.436  17.012  1.00  0.00     0.002 C 
BRANCH  38  39
HETATM   39  C2  UNL     1      20.525 -13.705  17.061  1.00  0.00    -0.004 C 
HETATM   40  C1  UNL     1      21.169 -12.535  16.364  1.00  0.00     0.005 C 
ENDBRANCH  38  39
ENDBRANCH  37  38
ENDBRANCH   1  37
BRANCH  11  41
HETATM   41  C16 UNL     1      15.605 -18.180  18.859  1.00  0.00     0.009 C 
HETATM   42  C17 UNL     1      16.897 -17.690  18.200  1.00  0.00     0.012 C 
HETATM   43  C18 UNL     1      15.499 -19.649  18.532  1.00  0.00     0.012 C 
ENDBRANCH  11  41
BRANCH  25  44
HETATM   44  C28 UNL     1      21.146 -13.266  24.045  1.00  0.00     0.038 C 
BRANCH  44  45
HETATM   45  C29 UNL     1      20.895 -13.758  25.401  1.00  0.00    -0.020 C 
HETATM   46  C30 UNL     1      21.155 -12.499  26.314  1.00  0.00     0.009 C 
HETATM   47  C31 UNL     1      19.426 -14.041  25.723  1.00  0.00     0.009 C 
ENDBRANCH  44  45
ENDBRANCH  25  44
BRANCH  20  48
HETATM   48  C23 UNL     1      22.077 -18.218  23.877  1.00  0.00     0.002 C 
HETATM   49  C24 UNL     1      22.513 -17.725  25.214  1.00  0.00     0.011 C 
HETATM   50  C25 UNL     1      21.498 -19.601  24.040  1.00  0.00     0.011 C 
ENDBRANCH  20  48
TORSDOF 11
ENDMDL
MODEL 5
REMARK VINA RESULT: -7.832737974      1.416      1.706
REMARK  11 active torsions:
REMARK  status: ('A' for Active; 'I' for Inactive)
REMARK    1  A    between atoms: C2_2  and  C3_3 
REMARK    2  A    between atoms: C3_3  and  C4_4 
REMARK    3  A    between atoms: C4_4  and  C5_5 
REMARK    4  A    between atoms: C7_10  and  C8_11 
REMARK    5  A    between atoms: C8_11  and  C9_12 
REMARK    6  A    between atoms: C10_13  and  C11_14 
REMARK    7  A    between atoms: C11_14  and  N2_15 
REMARK    8  A    between atoms: C15_22  and  C16_23 
REMARK    9  A    between atoms: C22_34  and  C23_35 
REMARK   10  A    between atoms: C27_42  and  C28_43 
REMARK   11  A    between atoms: C28_43  and  C29_44 
ROOT
HETATM    1  C5  UNL     1      18.427 -13.826  19.523  1.00  0.00     0.176 C 
HETATM    2  N1  UNL     1      17.258 -14.195  20.316  1.00  0.00    -0.346 N 
ATOM      3  H1  UNL     1      17.225 -15.182  20.570  1.00  0.00     0.163 HD
HETATM    4  C6  UNL     1      16.195 -13.461  20.785  1.00  0.00     0.241 C 
HETATM    5  O1  UNL     1      16.150 -13.178  22.051  1.00  0.00    -0.271 OA
HETATM    6  C7  UNL     1      15.006 -12.887  20.109  1.00  0.00     0.180 C 
HETATM    7  N3  UNL     1      13.740 -13.366  20.668  1.00  0.00    -0.346 N 
ATOM      8  H3  UNL     1      12.956 -12.723  20.554  1.00  0.00     0.163 HD
HETATM    9  C14 UNL     1      13.426 -14.550  21.327  1.00  0.00     0.241 C 
HETATM   10  O2  UNL     1      13.042 -14.414  22.558  1.00  0.00    -0.271 OA
HETATM   11  C15 UNL     1      13.443 -15.949  20.886  1.00  0.00     0.180 C 
HETATM   12  N4  UNL     1      14.650 -16.689  21.083  1.00  0.00    -0.346 N 
ATOM     13  H4  UNL     1      15.307 -16.614  20.307  1.00  0.00     0.163 HD
HETATM   14  C19 UNL     1      15.100 -17.487  22.120  1.00  0.00     0.235 C 
HETATM   15  O3  UNL     1      15.369 -18.725  21.880  1.00  0.00    -0.272 OA
HETATM   16  C20 UNL     1      15.334 -17.110  23.550  1.00  0.00     0.217 C 
HETATM   17  N5  UNL     1      16.467 -16.229  23.688  1.00  0.00    -0.411 N 
ATOM     18  H5  UNL     1      16.458 -15.281  23.312  1.00  0.00     0.153 HD
HETATM   19  C21 UNL     1      17.605 -16.754  24.383  1.00  0.00     0.139 C 
HETATM   20  C22 UNL     1      18.575 -17.457  23.518  1.00  0.00     0.105 C 
HETATM   21  N6  UNL     1      19.710 -16.755  23.019  1.00  0.00    -0.353 N 
ATOM     22  H6  UNL     1      20.585 -17.263  23.153  1.00  0.00     0.163 HD
HETATM   23  C26 UNL     1      19.883 -15.532  22.391  1.00  0.00     0.240 C 
HETATM   24  O4  UNL     1      20.399 -15.548  21.212  1.00  0.00    -0.271 OA
HETATM   25  C27 UNL     1      19.571 -14.144  22.847  1.00  0.00     0.177 C 
HETATM   26  N7  UNL     1      19.533 -13.184  21.786  1.00  0.00    -0.346 N 
ATOM     27  H7  UNL     1      19.506 -12.216  22.106  1.00  0.00     0.163 HD
HETATM   28  C32 UNL     1      19.525 -13.322  20.388  1.00  0.00     0.241 C 
HETATM   29  O5  UNL     1      20.599 -12.967  19.782  1.00  0.00    -0.271 OA
ENDROOT
BRANCH   6  30
HETATM   30  C8  UNL     1      15.103 -11.366  20.466  1.00  0.00     0.061 C 
BRANCH  30  31
HETATM   31  C9  UNL     1      13.898 -10.666  20.023  1.00  0.00    -0.026 C 
HETATM   32  C10 UNL     1      13.137  -9.929  20.808  1.00  0.00    -0.001 C 
BRANCH  32  33
HETATM   33  C11 UNL     1      13.318  -9.655  22.241  1.00  0.00     0.298 C 
BRANCH  33  34
HETATM   34  N2  UNL     1      12.013  -9.875  22.887  1.00  0.00     0.083 N 
HETATM   35  C12 UNL     1      11.869 -11.251  23.299  1.00  0.00     0.309 C 
HETATM   36  C13 UNL     1      11.971  -8.966  24.012  1.00  0.00     0.309 C 
ENDBRANCH  33  34
ENDBRANCH  32  33
ENDBRANCH  30  31
ENDBRANCH   6  30
BRANCH   1  37
HETATM   37  C4  UNL     1      18.049 -12.969  18.354  1.00  0.00     0.035 C 
BRANCH  37  38
HETATM   38  C3  UNL     1      18.365 -13.556  17.008  1.00  0.00     0.002 C 
BRANCH  38  39
HETATM   39  C2  UNL     1      19.256 -12.538  16.277  1.00  0.00    -0.004 C 
HETATM   40  C1  UNL     1      20.650 -13.108  16.328  1.00  0.00     0.005 C 
ENDBRANCH  38  39
ENDBRANCH  37  38
ENDBRANCH   1  37
BRANCH  11  41
HETATM   41  C16 UNL     1      13.049 -16.072  19.391  1.00  0.00     0.009 C 
HETATM   42  C17 UNL     1      13.410 -17.514  19.025  1.00  0.00     0.012 C 
HETATM   43  C18 UNL     1      11.545 -15.979  19.298  1.00  0.00     0.012 C 
ENDBRANCH  11  41
BRANCH  25  44
HETATM   44  C28 UNL     1      20.529 -13.866  23.965  1.00  0.00     0.038 C 
BRANCH  44  45
HETATM   45  C29 UNL     1      20.111 -13.189  25.194  1.00  0.00    -0.020 C 
HETATM   46  C30 UNL     1      19.645 -14.365  26.135  1.00  0.00     0.009 C 
HETATM   47  C31 UNL     1      21.251 -12.597  26.025  1.00  0.00     0.009 C 
ENDBRANCH  44  45
ENDBRANCH  25  44
BRANCH  20  48
HETATM   48  C23 UNL     1      19.057 -18.675  24.310  1.00  0.00     0.002 C 
HETATM   49  C24 UNL     1      20.421 -18.512  24.887  1.00  0.00     0.011 C 
HETATM   50  C25 UNL     1      18.101 -19.015  25.426  1.00  0.00     0.011 C 
ENDBRANCH  20  48
TORSDOF 11
ENDMDL
