MODEL 1
REMARK VINA RESULT: -8.032159108      0.000      0.000
REMARK  12 active torsions:
REMARK  status: ('A' for Active; 'I' for Inactive)
REMARK    1  A    between atoms: C3_3  and  C4_4 
REMARK    2  A    between atoms: C4_4  and  C5_5 
REMARK    3  A    between atoms: C5_5  and  C6_6 
REMARK    4  A    between atoms: C6_6  and  C7_7 
REMARK    5  A    between atoms: C7_7  and  C8_8 
REMARK    6  A    between atoms: C9_11  and  O1_12 
REMARK    7  A    between atoms: C10_14  and  C11_15 
REMARK    8  A    between atoms: C11_15  and  C12_16 
REMARK    9  A    between atoms: C16_23  and  C17_24 
REMARK   10  A    between atoms: C17_24  and  C18_25 
REMARK   11  A    between atoms: C22_32  and  C23_33 
REMARK   12  A    between atoms: C23_33  and  C25_35 
ROOT
HETATM    1  C1  UNL     1      21.254 -12.658  26.080  1.00  0.00     0.012 C 
HETATM    2  C2  UNL     1      20.328 -13.265  25.602  1.00  0.00    -0.117 C 
HETATM    3  C3  UNL     1      19.207 -13.990  25.000  1.00  0.00     0.093 C 
ENDROOT
BRANCH   3   4
HETATM    4  C4  UNL     1      18.573 -14.893  26.027  1.00  0.00     0.012 C 
BRANCH   4   5
HETATM    5  C5  UNL     1      19.174 -16.259  26.006  1.00  0.00     0.001 C 
BRANCH   5   6
HETATM    6  C6  UNL     1      18.109 -17.339  26.087  1.00  0.00     0.002 C 
BRANCH   6   7
HETATM    7  C7  UNL     1      18.330 -18.381  25.038  1.00  0.00     0.035 C 
BRANCH   7   8
HETATM    8  C8  UNL     1      18.001 -17.913  23.621  1.00  0.00     0.175 C 
HETATM    9  N1  UNL     1      16.602 -18.153  23.355  1.00  0.00    -0.359 N 
HETATM   10  C9  UNL     1      15.523 -17.292  23.262  1.00  0.00     0.135 C 
ATOM     11  H1  UNL     1      16.368 -19.135  23.209  1.00  0.00     0.162 HD
HETATM   12  C10 UNL     1      15.251 -16.168  22.336  1.00  0.00     0.159 C 
HETATM   13  N2  UNL     1      16.221 -16.040  21.275  1.00  0.00    -0.347 N 
HETATM   14  C15 UNL     1      16.121 -15.373  20.070  1.00  0.00     0.241 C 
ATOM     15  H2  UNL     1      17.112 -16.510  21.440  1.00  0.00     0.163 HD
HETATM   16  O2  UNL     1      16.289 -16.058  18.989  1.00  0.00    -0.271 OA
HETATM   17  C16 UNL     1      15.840 -13.942  19.799  1.00  0.00     0.177 C 
HETATM   18  N3  UNL     1      16.552 -13.416  18.658  1.00  0.00    -0.346 N 
HETATM   19  C21 UNL     1      17.829 -13.709  18.195  1.00  0.00     0.241 C 
ATOM     20  H3  UNL     1      16.039 -12.724  18.109  1.00  0.00     0.163 HD
HETATM   21  O3  UNL     1      17.922 -14.080  16.962  1.00  0.00    -0.271 OA
HETATM   22  C22 UNL     1      19.117 -13.661  18.895  1.00  0.00     0.180 C 
HETATM   23  N4  UNL     1      19.617 -15.047  18.959  1.00  0.00    -0.346 N 
HETATM   24  C27 UNL     1      20.589 -15.509  19.846  1.00  0.00     0.236 C 
ATOM     25  H4  UNL     1      19.221 -15.722  18.303  1.00  0.00     0.163 HD
HETATM   26  O4  UNL     1      21.433 -16.345  19.368  1.00  0.00    -0.272 OA
HETATM   27  C28 UNL     1      20.724 -15.115  21.280  1.00  0.00     0.225 C 
HETATM   28  N5  UNL     1      21.962 -15.659  21.784  1.00  0.00    -0.351 N 
HETATM   29  C29 UNL     1      22.119 -17.023  22.139  1.00  0.00     0.240 C 
ATOM     30  H5  UNL     1      22.760 -15.034  21.889  1.00  0.00     0.163 HD
HETATM   31  O5  UNL     1      23.139 -17.684  21.730  1.00  0.00    -0.271 OA
HETATM   32  C30 UNL     1      21.146 -17.765  22.983  1.00  0.00     0.172 C 
HETATM   33  C31 UNL     1      21.959 -18.885  23.658  1.00  0.00     0.042 C 
HETATM   34  N6  UNL     1      20.081 -18.346  22.190  1.00  0.00    -0.346 N 
HETATM   35  C32 UNL     1      18.859 -18.759  22.747  1.00  0.00     0.241 C 
ATOM     36  H6  UNL     1      20.225 -18.458  21.187  1.00  0.00     0.163 HD
HETATM   37  O6  UNL     1      18.444 -19.922  22.499  1.00  0.00    -0.271 OA
BRANCH  10  38
HETATM   38  O1  UNL     1      14.517 -17.417  24.095  1.00  0.00    -0.348 OA
ATOM     39  H1  UNL     1      13.717 -17.844  23.809  1.00  0.00     0.219 HD
ENDBRANCH  10  38
BRANCH  12  40
HETATM   40  C11 UNL     1      13.844 -16.133  21.858  1.00  0.00     0.037 C 
BRANCH  40  41
HETATM   41  C12 UNL     1      13.329 -17.169  20.970  1.00  0.00    -0.020 C 
HETATM   42  C13 UNL     1      12.342 -18.158  21.457  1.00  0.00     0.009 C 
HETATM   43  C14 UNL     1      12.616 -16.429  19.813  1.00  0.00     0.009 C 
ENDBRANCH  40  41
ENDBRANCH  12  40
BRANCH  17  44
HETATM   44  C17 UNL     1      16.050 -13.035  20.959  1.00  0.00     0.038 C 
BRANCH  44  45
HETATM   45  C18 UNL     1      14.719 -12.455  21.388  1.00  0.00    -0.020 C 
HETATM   46  C19 UNL     1      14.766 -10.949  21.346  1.00  0.00     0.009 C 
HETATM   47  C20 UNL     1      13.705 -12.855  20.302  1.00  0.00     0.009 C 
ENDBRANCH  44  45
ENDBRANCH  17  44
BRANCH  22  48
HETATM   48  C23 UNL     1      20.204 -12.880  18.243  1.00  0.00     0.013 C 
HETATM   49  C24 UNL     1      21.115 -12.201  19.272  1.00  0.00     0.012 C 
BRANCH  48  50
HETATM   50  C25 UNL     1      21.021 -13.547  17.213  1.00  0.00     0.002 C 
HETATM   51  C26 UNL     1      21.133 -12.889  15.886  1.00  0.00     0.005 C 
ENDBRANCH  48  50
ENDBRANCH  22  48
ENDBRANCH   7   8
ENDBRANCH   6   7
ENDBRANCH   5   6
ENDBRANCH   4   5
ENDBRANCH   3   4
TORSDOF 12
ENDMDL
MODEL 2
REMARK VINA RESULT: -7.711376276      1.724      7.548
REMARK  12 active torsions:
REMARK  status: ('A' for Active; 'I' for Inactive)
REMARK    1  A    between atoms: C3_3  and  C4_4 
REMARK    2  A    between atoms: C4_4  and  C5_5 
REMARK    3  A    between atoms: C5_5  and  C6_6 
REMARK    4  A    between atoms: C6_6  and  C7_7 
REMARK    5  A    between atoms: C7_7  and  C8_8 
REMARK    6  A    between atoms: C9_11  and  O1_12 
REMARK    7  A    between atoms: C10_14  and  C11_15 
REMARK    8  A    between atoms: C11_15  and  C12_16 
REMARK    9  A    between atoms: C16_23  and  C17_24 
REMARK   10  A    between atoms: C17_24  and  C18_25 
REMARK   11  A    between atoms: C22_32  and  C23_33 
REMARK   12  A    between atoms: C23_33  and  C25_35 
ROOT
HETATM    1  C1  UNL     1      11.966  -9.529  23.583  1.00  0.00     0.012 C 
HETATM    2  C2  UNL     1      12.761  -9.563  22.676  1.00  0.00    -0.117 C 
HETATM    3  C3  UNL     1      13.731  -9.579  21.580  1.00  0.00     0.093 C 
ENDROOT
BRANCH   3   4
HETATM    4  C4  UNL     1      13.772 -10.951  20.956  1.00  0.00     0.012 C 
BRANCH   4   5
HETATM    5  C5  UNL     1      14.088 -12.005  21.964  1.00  0.00     0.001 C 
BRANCH   5   6
HETATM    6  C6  UNL     1      13.333 -13.293  21.681  1.00  0.00     0.002 C 
BRANCH   6   7
HETATM    7  C7  UNL     1      13.861 -13.956  20.449  1.00  0.00     0.035 C 
BRANCH   7   8
HETATM    8  C8  UNL     1      15.278 -14.507  20.600  1.00  0.00     0.175 C 
HETATM    9  N1  UNL     1      16.162 -13.793  19.709  1.00  0.00    -0.359 N 
HETATM   10  C9  UNL     1      17.136 -12.839  19.949  1.00  0.00     0.135 C 
ATOM     11  H1  UNL     1      16.049 -14.037  18.725  1.00  0.00     0.162 HD
HETATM   12  C10 UNL     1      18.387 -12.902  20.740  1.00  0.00     0.159 C 
HETATM   13  N2  UNL     1      18.698 -14.222  21.233  1.00  0.00    -0.347 N 
HETATM   14  C15 UNL     1      19.902 -14.729  21.683  1.00  0.00     0.241 C 
ATOM     15  H2  UNL     1      17.915 -14.876  21.253  1.00  0.00     0.163 HD
HETATM   16  O2  UNL     1      20.377 -15.767  21.081  1.00  0.00    -0.271 OA
HETATM   17  C16 UNL     1      20.774 -14.262  22.787  1.00  0.00     0.177 C 
HETATM   18  N3  UNL     1      21.431 -15.330  23.502  1.00  0.00    -0.346 N 
HETATM   19  C21 UNL     1      20.972 -16.605  23.814  1.00  0.00     0.241 C 
ATOM     20  H3  UNL     1      22.374 -15.118  23.827  1.00  0.00     0.163 HD
HETATM   21  O3  UNL     1      21.716 -17.591  23.441  1.00  0.00    -0.271 OA
HETATM   22  C22 UNL     1      19.752 -17.019  24.515  1.00  0.00     0.180 C 
HETATM   23  N4  UNL     1      18.931 -17.759  23.538  1.00  0.00    -0.346 N 
HETATM   24  C27 UNL     1      17.562 -17.994  23.657  1.00  0.00     0.236 C 
ATOM     25  H4  UNL     1      19.401 -18.127  22.711  1.00  0.00     0.163 HD
HETATM   26  O4  UNL     1      17.157 -19.151  23.286  1.00  0.00    -0.272 OA
HETATM   27  C28 UNL     1      16.548 -17.027  24.172  1.00  0.00     0.225 C 
HETATM   28  N5  UNL     1      15.292 -17.722  24.316  1.00  0.00    -0.351 N 
HETATM   29  C29 UNL     1      14.448 -18.028  23.218  1.00  0.00     0.240 C 
ATOM     30  H5  UNL     1      14.997 -18.005  25.250  1.00  0.00     0.163 HD
HETATM   31  O5  UNL     1      13.957 -19.206  23.089  1.00  0.00    -0.271 OA
HETATM   32  C30 UNL     1      14.080 -17.042  22.169  1.00  0.00     0.172 C 
HETATM   33  C31 UNL     1      12.723 -17.514  21.618  1.00  0.00     0.042 C 
HETATM   34  N6  UNL     1      15.056 -17.009  21.097  1.00  0.00    -0.346 N 
HETATM   35  C32 UNL     1      15.161 -15.935  20.198  1.00  0.00     0.241 C 
ATOM     36  H6  UNL     1      15.693 -17.799  20.993  1.00  0.00     0.163 HD
HETATM   37  O6  UNL     1      15.159 -16.178  18.962  1.00  0.00    -0.271 OA
BRANCH  10  38
HETATM   38  O1  UNL     1      17.016 -11.642  19.425  1.00  0.00    -0.348 OA
ATOM     39  H1  UNL     1      17.795 -11.143  19.205  1.00  0.00     0.219 HD
ENDBRANCH  10  38
BRANCH  12  40
HETATM   40  C11 UNL     1      19.534 -12.234  20.071  1.00  0.00     0.037 C 
BRANCH  40  41
HETATM   41  C12 UNL     1      20.322 -12.933  19.062  1.00  0.00    -0.020 C 
HETATM   42  C13 UNL     1      19.877 -12.974  17.652  1.00  0.00     0.009 C 
HETATM   43  C14 UNL     1      21.700 -12.227  19.027  1.00  0.00     0.009 C 
ENDBRANCH  40  41
ENDBRANCH  12  40
BRANCH  17  44
HETATM   44  C17 UNL     1      20.109 -13.362  23.768  1.00  0.00     0.038 C 
BRANCH  44  45
HETATM   45  C18 UNL     1      20.766 -13.524  25.122  1.00  0.00    -0.020 C 
HETATM   46  C19 UNL     1      21.311 -12.204  25.602  1.00  0.00     0.009 C 
HETATM   47  C20 UNL     1      19.639 -13.875  26.108  1.00  0.00     0.009 C 
ENDBRANCH  44  45
ENDBRANCH  17  44
BRANCH  22  48
HETATM   48  C23 UNL     1      19.925 -17.947  25.667  1.00  0.00     0.013 C 
HETATM   49  C24 UNL     1      21.388 -18.032  26.116  1.00  0.00     0.012 C 
BRANCH  48  50
HETATM   50  C25 UNL     1      19.049 -17.773  26.840  1.00  0.00     0.002 C 
HETATM   51  C26 UNL     1      18.097 -18.866  27.161  1.00  0.00     0.005 C 
ENDBRANCH  48  50
ENDBRANCH  22  48
ENDBRANCH   7   8
ENDBRANCH   6   7
ENDBRANCH   5   6
ENDBRANCH   4   5
ENDBRANCH   3   4
TORSDOF 12
ENDMDL
MODEL 3
REMARK VINA RESULT: -7.281223427      2.125      7.813
REMARK  12 active torsions:
REMARK  status: ('A' for Active; 'I' for Inactive)
REMARK    1  A    between atoms: C3_3  and  C4_4 
REMARK    2  A    between atoms: C4_4  and  C5_5 
REMARK    3  A    between atoms: C5_5  and  C6_6 
REMARK    4  A    between atoms: C6_6  and  C7_7 
REMARK    5  A    between atoms: C7_7  and  C8_8 
REMARK    6  A    between atoms: C9_11  and  O1_12 
REMARK    7  A    between atoms: C10_14  and  C11_15 
REMARK    8  A    between atoms: C11_15  and  C12_16 
REMARK    9  A    between atoms: C16_23  and  C17_24 
REMARK   10  A    between atoms: C17_24  and  C18_25 
REMARK   11  A    between atoms: C22_32  and  C23_33 
REMARK   12  A    between atoms: C23_33  and  C25_35 
ROOT
HETATM    1  C1  UNL     1      11.684  -9.576  23.874  1.00  0.00     0.012 C 
HETATM    2  C2  UNL     1      12.438  -9.816  22.964  1.00  0.00    -0.117 C 
HETATM    3  C3  UNL     1      13.352 -10.082  21.850  1.00  0.00     0.093 C 
ENDROOT
BRANCH   3   4
HETATM    4  C4  UNL     1      13.802 -11.520  21.894  1.00  0.00     0.012 C 
BRANCH   4   5
HETATM    5  C5  UNL     1      12.675 -12.458  21.615  1.00  0.00     0.001 C 
BRANCH   5   6
HETATM    6  C6  UNL     1      13.051 -13.894  21.939  1.00  0.00     0.002 C 
BRANCH   6   7
HETATM    7  C7  UNL     1      13.687 -14.554  20.757  1.00  0.00     0.035 C 
BRANCH   7   8
HETATM    8  C8  UNL     1      15.076 -15.126  21.039  1.00  0.00     0.175 C 
HETATM    9  N1  UNL     1      16.059 -14.370  20.300  1.00  0.00    -0.359 N 
HETATM   10  C9  UNL     1      17.000 -13.441  20.706  1.00  0.00     0.135 C 
ATOM     11  H1  UNL     1      16.060 -14.555  19.296  1.00  0.00     0.162 HD
HETATM   12  C10 UNL     1      18.151 -13.561  21.631  1.00  0.00     0.159 C 
HETATM   13  N2  UNL     1      18.399 -14.910  22.079  1.00  0.00    -0.347 N 
HETATM   14  C15 UNL     1      19.541 -15.454  22.634  1.00  0.00     0.241 C 
ATOM     15  H2  UNL     1      17.618 -15.557  21.969  1.00  0.00     0.163 HD
HETATM   16  O2  UNL     1      20.081 -16.459  22.032  1.00  0.00    -0.271 OA
HETATM   17  C16 UNL     1      20.281 -15.060  23.857  1.00  0.00     0.177 C 
HETATM   18  N3  UNL     1      20.848 -16.174  24.579  1.00  0.00    -0.346 N 
HETATM   19  C21 UNL     1      20.352 -17.460  24.761  1.00  0.00     0.241 C 
ATOM     20  H3  UNL     1      21.748 -15.989  25.023  1.00  0.00     0.163 HD
HETATM   21  O3  UNL     1      21.133 -18.430  24.419  1.00  0.00    -0.271 OA
HETATM   22  C22 UNL     1      19.058 -17.903  25.291  1.00  0.00     0.180 C 
HETATM   23  N4  UNL     1      18.354 -18.577  24.183  1.00  0.00    -0.346 N 
HETATM   24  C27 UNL     1      16.980 -18.806  24.129  1.00  0.00     0.236 C 
ATOM     25  H4  UNL     1      18.917 -18.901  23.396  1.00  0.00     0.163 HD
HETATM   26  O4  UNL     1      16.619 -19.936  23.646  1.00  0.00    -0.272 OA
HETATM   27  C28 UNL     1      15.916 -17.861  24.579  1.00  0.00     0.225 C 
HETATM   28  N5  UNL     1      14.650 -18.552  24.536  1.00  0.00    -0.351 N 
HETATM   29  C29 UNL     1      13.939 -18.786  23.331  1.00  0.00     0.240 C 
ATOM     30  H5  UNL     1      14.248 -18.886  25.411  1.00  0.00     0.163 HD
HETATM   31  O5  UNL     1      13.463 -19.950  23.077  1.00  0.00    -0.271 OA
HETATM   32  C30 UNL     1      13.698 -17.737  22.307  1.00  0.00     0.172 C 
HETATM   33  C31 UNL     1      12.412 -18.164  21.576  1.00  0.00     0.042 C 
HETATM   34  N6  UNL     1      14.791 -17.651  21.359  1.00  0.00    -0.346 N 
HETATM   35  C32 UNL     1      15.002 -16.527  20.542  1.00  0.00     0.241 C 
ATOM     36  H6  UNL     1      15.434 -18.440  21.282  1.00  0.00     0.163 HD
HETATM   37  O6  UNL     1      15.143 -16.698  19.302  1.00  0.00    -0.271 OA
BRANCH  10  38
HETATM   38  O1  UNL     1      16.945 -12.214  20.243  1.00  0.00    -0.348 OA
ATOM     39  H1  UNL     1      17.450 -11.976  19.474  1.00  0.00     0.219 HD
ENDBRANCH  10  38
BRANCH  12  40
HETATM   40  C11 UNL     1      19.369 -12.866  21.140  1.00  0.00     0.037 C 
BRANCH  40  41
HETATM   41  C12 UNL     1      20.164 -13.427  20.053  1.00  0.00    -0.020 C 
HETATM   42  C13 UNL     1      20.081 -12.861  18.689  1.00  0.00     0.009 C 
HETATM   43  C14 UNL     1      21.645 -13.254  20.469  1.00  0.00     0.009 C 
ENDBRANCH  40  41
ENDBRANCH  12  40
BRANCH  17  44
HETATM   44  C17 UNL     1      19.509 -14.212  24.806  1.00  0.00     0.038 C 
BRANCH  44  45
HETATM   45  C18 UNL     1      20.293 -12.951  25.103  1.00  0.00    -0.020 C 
HETATM   46  C19 UNL     1      20.789 -12.965  26.525  1.00  0.00     0.009 C 
HETATM   47  C20 UNL     1      21.561 -13.019  24.234  1.00  0.00     0.009 C 
ENDBRANCH  44  45
ENDBRANCH  17  44
BRANCH  22  48
HETATM   48  C23 UNL     1      19.095 -18.897  26.398  1.00  0.00     0.013 C 
HETATM   49  C24 UNL     1      18.150 -18.512  27.541  1.00  0.00     0.012 C 
BRANCH  48  50
HETATM   50  C25 UNL     1      18.921 -20.322  26.062  1.00  0.00     0.002 C 
HETATM   51  C26 UNL     1      17.955 -21.111  26.867  1.00  0.00     0.005 C 
ENDBRANCH  48  50
ENDBRANCH  22  48
ENDBRANCH   7   8
ENDBRANCH   6   7
ENDBRANCH   5   6
ENDBRANCH   4   5
ENDBRANCH   3   4
TORSDOF 12
ENDMDL
MODEL 4
REMARK VINA RESULT: -7.214494536      1.998      7.529
REMARK  12 active torsions:
REMARK  status: ('A' for Active; 'I' for Inactive)
REMARK    1  A    between atoms: C3_3  and  C4_4 
REMARK    2  A    between atoms: C4_4  and  C5_5 
REMARK    3  A    between atoms: C5_5  and  C6_6 
REMARK    4  A    between atoms: C6_6  and  C7_7 
REMARK    5  A    between atoms: C7_7  and  C8_8 
REMARK    6  A    between atoms: C9_11  and  O1_12 
REMARK    7  A    between atoms: C10_14  and  C11_15 
REMARK    8  A    between atoms: C11_15  and  C12_16 
REMARK    9  A    between atoms: C16_23  and  C17_24 
REMARK   10  A    between atoms: C17_24  and  C18_25 
REMARK   11  A    between atoms: C22_32  and  C23_33 
REMARK   12  A    between atoms: C23_33  and  C25_35 
ROOT
HETATM    1  C1  UNL     1      11.968  -9.200  23.568  1.00  0.00     0.012 C 
HETATM    2  C2  UNL     1      12.503  -9.985  22.824  1.00  0.00    -0.117 C 
HETATM    3  C3  UNL     1      13.164 -10.918  21.909  1.00  0.00     0.093 C 
ENDROOT
BRANCH   3   4
HETATM    4  C4  UNL     1      12.729 -12.328  22.218  1.00  0.00     0.012 C 
BRANCH   4   5
HETATM    5  C5  UNL     1      12.962 -13.241  21.061  1.00  0.00     0.001 C 
BRANCH   5   6
HETATM    6  C6  UNL     1      12.670 -14.688  21.423  1.00  0.00     0.002 C 
BRANCH   6   7
HETATM    7  C7  UNL     1      13.156 -15.610  20.352  1.00  0.00     0.035 C 
BRANCH   7   8
HETATM    8  C8  UNL     1      14.594 -16.087  20.549  1.00  0.00     0.175 C 
HETATM    9  N1  UNL     1      15.429 -15.519  19.518  1.00  0.00    -0.359 N 
HETATM   10  C9  UNL     1      16.377 -14.513  19.552  1.00  0.00     0.135 C 
ATOM     11  H1  UNL     1      15.295 -15.936  18.596  1.00  0.00     0.162 HD
HETATM   12  C10 UNL     1      17.652 -14.401  20.300  1.00  0.00     0.159 C 
HETATM   13  N2  UNL     1      18.019 -15.605  21.006  1.00  0.00    -0.347 N 
HETATM   14  C15 UNL     1      19.251 -15.992  21.497  1.00  0.00     0.241 C 
ATOM     15  H2  UNL     1      17.258 -16.265  21.167  1.00  0.00     0.163 HD
HETATM   16  O2  UNL     1      19.743 -17.107  21.071  1.00  0.00    -0.271 OA
HETATM   17  C16 UNL     1      20.139 -15.314  22.472  1.00  0.00     0.177 C 
HETATM   18  N3  UNL     1      20.850 -16.222  23.340  1.00  0.00    -0.346 N 
HETATM   19  C21 UNL     1      20.441 -17.433  23.886  1.00  0.00     0.241 C 
ATOM     20  H3  UNL     1      21.795 -15.930  23.591  1.00  0.00     0.163 HD
HETATM   21  O3  UNL     1      21.207 -18.450  23.668  1.00  0.00    -0.271 OA
HETATM   22  C22 UNL     1      19.256 -17.750  24.690  1.00  0.00     0.180 C 
HETATM   23  N4  UNL     1      18.432 -18.672  23.887  1.00  0.00    -0.346 N 
HETATM   24  C27 UNL     1      17.075 -18.919  24.091  1.00  0.00     0.236 C 
ATOM     25  H4  UNL     1      18.890 -19.168  23.122  1.00  0.00     0.163 HD
HETATM   26  O4  UNL     1      16.697 -20.134  23.943  1.00  0.00    -0.272 OA
HETATM   27  C28 UNL     1      16.046 -17.903  24.463  1.00  0.00     0.225 C 
HETATM   28  N5  UNL     1      14.817 -18.595  24.769  1.00  0.00    -0.351 N 
HETATM   29  C29 UNL     1      13.953 -19.113  23.771  1.00  0.00     0.240 C 
ATOM     30  H5  UNL     1      14.558 -18.717  25.748  1.00  0.00     0.163 HD
HETATM   31  O5  UNL     1      13.496 -20.308  23.867  1.00  0.00    -0.271 OA
HETATM   32  C30 UNL     1      13.524 -18.337  22.578  1.00  0.00     0.172 C 
HETATM   33  C31 UNL     1      12.167 -18.935  22.165  1.00  0.00     0.042 C 
HETATM   34  N6  UNL     1      14.467 -18.468  21.485  1.00  0.00    -0.346 N 
HETATM   35  C32 UNL     1      14.511 -17.567  20.408  1.00  0.00     0.241 C 
ATOM     36  H6  UNL     1      15.125 -19.247  21.499  1.00  0.00     0.163 HD
HETATM   37  O6  UNL     1      14.481 -18.024  19.235  1.00  0.00    -0.271 OA
BRANCH  10  38
HETATM   38  O1  UNL     1      16.204 -13.430  18.831  1.00  0.00    -0.348 OA
ATOM     39  H1  UNL     1      15.953 -12.616  19.253  1.00  0.00     0.219 HD
ENDBRANCH  10  38
BRANCH  12  40
HETATM   40  C11 UNL     1      18.757 -13.831  19.485  1.00  0.00     0.037 C 
BRANCH  40  41
HETATM   41  C12 UNL     1      19.230 -12.471  19.713  1.00  0.00    -0.020 C 
HETATM   42  C13 UNL     1      18.681 -11.657  20.820  1.00  0.00     0.009 C 
HETATM   43  C14 UNL     1      20.744 -12.585  20.013  1.00  0.00     0.009 C 
ENDBRANCH  40  41
ENDBRANCH  12  40
BRANCH  17  44
HETATM   44  C17 UNL     1      19.474 -14.274  23.301  1.00  0.00     0.038 C 
BRANCH  44  45
HETATM   45  C18 UNL     1      20.281 -14.047  24.562  1.00  0.00    -0.020 C 
HETATM   46  C19 UNL     1      20.796 -12.631  24.607  1.00  0.00     0.009 C 
HETATM   47  C20 UNL     1      19.288 -14.150  25.733  1.00  0.00     0.009 C 
ENDBRANCH  44  45
ENDBRANCH  17  44
BRANCH  22  48
HETATM   48  C23 UNL     1      19.492 -18.455  25.981  1.00  0.00     0.013 C 
HETATM   49  C24 UNL     1      20.977 -18.470  26.359  1.00  0.00     0.012 C 
BRANCH  48  50
HETATM   50  C25 UNL     1      18.680 -18.063  27.147  1.00  0.00     0.002 C 
HETATM   51  C26 UNL     1      17.728 -19.063  27.694  1.00  0.00     0.005 C 
ENDBRANCH  48  50
ENDBRANCH  22  48
ENDBRANCH   7   8
ENDBRANCH   6   7
ENDBRANCH   5   6
ENDBRANCH   4   5
ENDBRANCH   3   4
TORSDOF 12
ENDMDL
MODEL 5
REMARK VINA RESULT: -6.892934660      2.682      7.349
REMARK  12 active torsions:
REMARK  status: ('A' for Active; 'I' for Inactive)
REMARK    1  A    between atoms: C3_3  and  C4_4 
REMARK    2  A    between atoms: C4_4  and  C5_5 
REMARK    3  A    between atoms: C5_5  and  C6_6 
REMARK    4  A    between atoms: C6_6  and  C7_7 
REMARK    5  A    between atoms: C7_7  and  C8_8 
REMARK    6  A    between atoms: C9_11  and  O1_12 
REMARK    7  A    between atoms: C10_14  and  C11_15 
REMARK    8  A    between atoms: C11_15  and  C12_16 
REMARK    9  A    between atoms: C16_23  and  C17_24 
REMARK   10  A    between atoms: C17_24  and  C18_25 
REMARK   11  A    between atoms: C22_32  and  C23_33 
REMARK   12  A    between atoms: C23_33  and  C25_35 
ROOT
HETATM    1  C1  UNL     1      20.964 -12.851  16.591  1.00  0.00     0.012 C 
HETATM    2  C2  UNL     1      21.286 -12.550  17.714  1.00  0.00    -0.117 C 
HETATM    3  C3  UNL     1      21.695 -12.170  19.067  1.00  0.00     0.093 C 
ENDROOT
BRANCH   3   4
HETATM    4  C4  UNL     1      20.817 -12.862  20.078  1.00  0.00     0.012 C 
BRANCH   4   5
HETATM    5  C5  UNL     1      20.951 -14.346  20.000  1.00  0.00     0.001 C 
BRANCH   5   6
HETATM    6  C6  UNL     1      19.597 -15.023  19.865  1.00  0.00     0.002 C 
BRANCH   6   7
HETATM    7  C7  UNL     1      18.523 -14.181  20.475  1.00  0.00     0.035 C 
BRANCH   7   8
HETATM    8  C8  UNL     1      17.601 -14.945  21.425  1.00  0.00     0.175 C 
HETATM    9  N1  UNL     1      16.303 -15.092  20.810  1.00  0.00    -0.359 N 
HETATM   10  C9  UNL     1      15.669 -16.187  20.251  1.00  0.00     0.135 C 
ATOM     11  H1  UNL     1      15.753 -14.233  20.783  1.00  0.00     0.162 HD
HETATM   12  C10 UNL     1      15.261 -17.483  20.843  1.00  0.00     0.159 C 
HETATM   13  N2  UNL     1      15.444 -17.553  22.273  1.00  0.00    -0.347 N 
HETATM   14  C15 UNL     1      14.876 -18.417  23.189  1.00  0.00     0.241 C 
ATOM     15  H2  UNL     1      16.086 -16.864  22.665  1.00  0.00     0.163 HD
HETATM   16  O2  UNL     1      14.193 -17.903  24.155  1.00  0.00    -0.271 OA
HETATM   17  C16 UNL     1      14.922 -19.898  23.250  1.00  0.00     0.177 C 
HETATM   18  N3  UNL     1      14.976 -20.424  24.593  1.00  0.00    -0.346 N 
HETATM   19  C21 UNL     1      15.612 -19.918  25.721  1.00  0.00     0.241 C 
ATOM     20  H3  UNL     1      14.471 -21.299  24.736  1.00  0.00     0.163 HD
HETATM   21  O3  UNL     1      14.875 -19.747  26.768  1.00  0.00    -0.271 OA
HETATM   22  C22 UNL     1      17.015 -19.539  25.919  1.00  0.00     0.180 C 
HETATM   23  N4  UNL     1      17.033 -18.084  26.155  1.00  0.00    -0.346 N 
HETATM   24  C27 UNL     1      18.150 -17.262  26.013  1.00  0.00     0.236 C 
ATOM     25  H4  UNL     1      16.160 -17.643  26.446  1.00  0.00     0.163 HD
HETATM   26  O4  UNL     1      18.286 -16.342  26.893  1.00  0.00    -0.272 OA
HETATM   27  C28 UNL     1      19.183 -17.367  24.939  1.00  0.00     0.225 C 
HETATM   28  N5  UNL     1      20.264 -16.468  25.263  1.00  0.00    -0.351 N 
HETATM   29  C29 UNL     1      20.190 -15.066  25.062  1.00  0.00     0.240 C 
ATOM     30  H5  UNL     1      21.121 -16.858  25.654  1.00  0.00     0.163 HD
HETATM   31  O5  UNL     1      20.551 -14.259  25.991  1.00  0.00    -0.271 OA
HETATM   32  C30 UNL     1      19.704 -14.445  23.802  1.00  0.00     0.172 C 
HETATM   33  C31 UNL     1      20.387 -13.067  23.732  1.00  0.00     0.042 C 
HETATM   34  N6  UNL     1      18.265 -14.276  23.807  1.00  0.00    -0.346 N 
HETATM   35  C32 UNL     1      17.519 -14.077  22.632  1.00  0.00     0.241 C 
ATOM     36  H6  UNL     1      17.773 -14.302  24.700  1.00  0.00     0.163 HD
HETATM   37  O6  UNL     1      16.721 -13.105  22.579  1.00  0.00    -0.271 OA
BRANCH  10  38
HETATM   38  O1  UNL     1      15.331 -16.167  18.983  1.00  0.00    -0.348 OA
ATOM     39  H1  UNL     1      15.977 -16.379  18.319  1.00  0.00     0.219 HD
ENDBRANCH  10  38
BRANCH  12  40
HETATM   40  C11 UNL     1      13.916 -17.931  20.396  1.00  0.00     0.037 C 
BRANCH  40  41
HETATM   41  C12 UNL     1      12.710 -17.252  20.855  1.00  0.00    -0.020 C 
HETATM   42  C13 UNL     1      11.933 -16.391  19.936  1.00  0.00     0.009 C 
HETATM   43  C14 UNL     1      11.726 -18.366  21.287  1.00  0.00     0.009 C 
ENDBRANCH  40  41
ENDBRANCH  12  40
BRANCH  17  44
HETATM   44  C17 UNL     1      16.006 -20.521  22.443  1.00  0.00     0.038 C 
BRANCH  44  45
HETATM   45  C18 UNL     1      15.405 -21.543  21.501  1.00  0.00    -0.020 C 
HETATM   46  C19 UNL     1      13.903 -21.427  21.491  1.00  0.00     0.009 C 
HETATM   47  C20 UNL     1      15.849 -21.136  20.085  1.00  0.00     0.009 C 
ENDBRANCH  44  45
ENDBRANCH  17  44
BRANCH  22  48
HETATM   48  C23 UNL     1      17.709 -20.138  27.092  1.00  0.00     0.013 C 
HETATM   49  C24 UNL     1      19.124 -20.609  26.738  1.00  0.00     0.012 C 
BRANCH  48  50
HETATM   50  C25 UNL     1      17.735 -19.372  28.352  1.00  0.00     0.002 C 
HETATM   51  C26 UNL     1      19.039 -19.230  29.048  1.00  0.00     0.005 C 
ENDBRANCH  48  50
ENDBRANCH  22  48
ENDBRANCH   7   8
ENDBRANCH   6   7
ENDBRANCH   5   6
ENDBRANCH   4   5
ENDBRANCH   3   4
TORSDOF 12
ENDMDL
