MODEL 1
REMARK VINA RESULT: -11.455822089      0.000      0.000
REMARK  6 active torsions:
REMARK  status: ('A' for Active; 'I' for Inactive)
REMARK    1  A    between atoms: C1_4  and  C2_6 
REMARK    2  A    between atoms: C5_9  and  C6_10 
REMARK    3  A    between atoms: C6_10  and  O1_11 
REMARK    4  A    between atoms: O1_11  and  C7_12 
REMARK    5  A    between atoms: C10_15  and  C11_16 
REMARK    6  A    between atoms: C17_24  and  C18_25 
ROOT
HETATM    1  C7  UNL     1      60.941   6.702  -2.743  1.00  0.00     0.080 A 
HETATM    2  C8  UNL     1      60.861   7.936  -2.094  1.00  0.00     0.038 A 
HETATM    3  C9  UNL     1      61.057   7.992  -0.753  1.00  0.00     0.016 A 
HETATM    4  C10 UNL     1      61.338   6.838  -0.012  1.00  0.00    -0.009 A 
HETATM    5  C16 UNL     1      61.411   5.638  -0.663  1.00  0.00     0.029 A 
HETATM    6  C17 UNL     1      61.213   5.549  -2.045  1.00  0.00     0.011 A 
ENDROOT
BRANCH   1   7
HETATM    7  O1  UNL     1      60.739   6.671  -4.122  1.00  0.00    -0.346 OA
BRANCH   7   8
HETATM    8  C6  UNL     1      61.832   6.909  -4.986  1.00  0.00     0.214 C 
BRANCH   8   9
HETATM    9  C5  UNL     1      62.209   5.628  -5.632  1.00  0.00    -0.034 A 
HETATM   10  C4  UNL     1      61.349   4.919  -6.435  1.00  0.00     0.010 A 
HETATM   11  C3  UNL     1      61.707   3.707  -7.038  1.00  0.00     0.015 A 
HETATM   12  C2  UNL     1      62.954   3.163  -6.847  1.00  0.00     0.004 A 
HETATM   13  C27 UNL     1      63.826   3.890  -6.027  1.00  0.00     0.015 A 
HETATM   14  C26 UNL     1      63.481   5.081  -5.433  1.00  0.00     0.010 A 
BRANCH  12  15
HETATM   15  C1  UNL     1      63.409   1.910  -7.429  1.00  0.00     0.120 C 
HETATM   16  N1  UNL     1      64.639   1.724  -7.720  1.00  0.00    -0.387 N 
ATOM     17  H12 UNL     1      64.958   0.845  -8.129  1.00  0.00     0.157 HD
ATOM     18  H11 UNL     1      65.286   2.488  -7.529  1.00  0.00     0.157 HD
HETATM   19  N2  UNL     1      62.507   0.842  -7.697  1.00  0.00    -0.082 NA
ENDBRANCH  12  15
ENDBRANCH   8   9
ENDBRANCH   7   8
ENDBRANCH   1   7
BRANCH   6  20
HETATM   20  C18 UNL     1      61.291   4.241  -2.700  1.00  0.00     0.005 A 
HETATM   21  C19 UNL     1      62.385   3.389  -2.686  1.00  0.00     0.101 A 
HETATM   22  N4  UNL     1      62.124   2.279  -3.388  1.00  0.00    -0.364 N 
HETATM   23  C20 UNL     1      60.873   2.398  -3.861  1.00  0.00     0.043 A 
ATOM     24  H4  UNL     1      62.756   1.493  -3.536  1.00  0.00     0.165 HD
HETATM   25  C21 UNL     1      60.114   1.551  -4.637  1.00  0.00     0.030 A 
HETATM   26  C25 UNL     1      60.337   3.596  -3.452  1.00  0.00     0.003 A 
HETATM   27  C22 UNL     1      58.833   1.891  -5.005  1.00  0.00     0.002 A 
HETATM   28  C23 UNL     1      58.286   3.096  -4.596  1.00  0.00     0.001 A 
HETATM   29  C24 UNL     1      59.053   3.943  -3.816  1.00  0.00     0.014 A 
ENDBRANCH   6  20
BRANCH   4  30
HETATM   30  C11 UNL     1      61.545   7.004   1.421  1.00  0.00     0.042 A 
HETATM   31  C12 UNL     1      60.843   7.933   2.142  1.00  0.00     0.030 A 
HETATM   32  C13 UNL     1      61.010   8.108   3.510  1.00  0.00     0.004 A 
HETATM   33  C14 UNL     1      61.928   7.305   4.163  1.00  0.00     0.017 A 
HETATM   34  C15 UNL     1      62.629   6.374   3.421  1.00  0.00     0.088 A 
HETATM   35  N3  UNL     1      62.433   6.236   2.086  1.00  0.00    -0.365 N 
ATOM     36  H3  UNL     1      62.970   5.537   1.573  1.00  0.00     0.165 HD
ENDBRANCH   4  30
TORSDOF 6
ENDMDL
MODEL 2
REMARK VINA RESULT: -11.336917281      1.297      2.180
REMARK  6 active torsions:
REMARK  status: ('A' for Active; 'I' for Inactive)
REMARK    1  A    between atoms: C1_4  and  C2_6 
REMARK    2  A    between atoms: C5_9  and  C6_10 
REMARK    3  A    between atoms: C6_10  and  O1_11 
REMARK    4  A    between atoms: O1_11  and  C7_12 
REMARK    5  A    between atoms: C10_15  and  C11_16 
REMARK    6  A    between atoms: C17_24  and  C18_25 
ROOT
HETATM    1  C7  UNL     1      60.955   6.347  -3.980  1.00  0.00     0.080 A 
HETATM    2  C8  UNL     1      61.469   7.520  -3.422  1.00  0.00     0.038 A 
HETATM    3  C9  UNL     1      61.485   7.658  -2.073  1.00  0.00     0.016 A 
HETATM    4  C10 UNL     1      60.999   6.649  -1.234  1.00  0.00    -0.009 A 
HETATM    5  C16 UNL     1      60.498   5.508  -1.797  1.00  0.00     0.029 A 
HETATM    6  C17 UNL     1      60.468   5.337  -3.186  1.00  0.00     0.011 A 
ENDROOT
BRANCH   1   7
HETATM    7  O1  UNL     1      60.953   6.227  -5.369  1.00  0.00    -0.346 OA
BRANCH   7   8
HETATM    8  C6  UNL     1      62.183   6.099  -6.055  1.00  0.00     0.214 C 
BRANCH   8   9
HETATM    9  C5  UNL     1      62.395   4.667  -6.377  1.00  0.00    -0.034 A 
HETATM   10  C4  UNL     1      63.574   4.013  -6.113  1.00  0.00     0.010 A 
HETATM   11  C3  UNL     1      63.771   2.662  -6.425  1.00  0.00     0.015 A 
HETATM   12  C2  UNL     1      62.780   1.920  -7.020  1.00  0.00     0.004 A 
HETATM   13  C27 UNL     1      61.582   2.593  -7.287  1.00  0.00     0.015 A 
HETATM   14  C26 UNL     1      61.380   3.919  -6.983  1.00  0.00     0.010 A 
BRANCH  12  15
HETATM   15  C1  UNL     1      62.899   0.516  -7.382  1.00  0.00     0.120 C 
HETATM   16  N1  UNL     1      62.010  -0.061  -8.095  1.00  0.00    -0.387 N 
ATOM     17  H12 UNL     1      62.094  -1.046  -8.348  1.00  0.00     0.157 HD
ATOM     18  H11 UNL     1      61.216   0.502  -8.398  1.00  0.00     0.157 HD
HETATM   19  N2  UNL     1      64.007  -0.270  -6.959  1.00  0.00    -0.082 NA
ENDBRANCH  12  15
ENDBRANCH   8   9
ENDBRANCH   7   8
ENDBRANCH   1   7
BRANCH   6  20
HETATM   20  C18 UNL     1      59.914   4.102  -3.745  1.00  0.00     0.005 A 
HETATM   21  C19 UNL     1      58.654   3.957  -4.305  1.00  0.00     0.101 A 
HETATM   22  N4  UNL     1      58.464   2.696  -4.712  1.00  0.00    -0.364 N 
HETATM   23  C20 UNL     1      59.585   2.016  -4.423  1.00  0.00     0.043 A 
ATOM     24  H4  UNL     1      57.626   2.322  -5.157  1.00  0.00     0.165 HD
HETATM   25  C21 UNL     1      59.922   0.696  -4.627  1.00  0.00     0.030 A 
HETATM   26  C25 UNL     1      60.494   2.858  -3.828  1.00  0.00     0.003 A 
HETATM   27  C22 UNL     1      61.151   0.215  -4.241  1.00  0.00     0.002 A 
HETATM   28  C23 UNL     1      62.073   1.057  -3.641  1.00  0.00     0.001 A 
HETATM   29  C24 UNL     1      61.729   2.382  -3.440  1.00  0.00     0.014 A 
ENDBRANCH   6  20
BRANCH   4  30
HETATM   30  C11 UNL     1      61.071   6.888   0.202  1.00  0.00     0.042 A 
HETATM   31  C12 UNL     1      60.754   8.105   0.741  1.00  0.00     0.030 A 
HETATM   32  C13 UNL     1      60.803   8.361   2.105  1.00  0.00     0.004 A 
HETATM   33  C14 UNL     1      61.192   7.335   2.948  1.00  0.00     0.017 A 
HETATM   34  C15 UNL     1      61.510   6.113   2.387  1.00  0.00     0.088 A 
HETATM   35  N3  UNL     1      61.448   5.907   1.049  1.00  0.00    -0.365 N 
ATOM     36  H3  UNL     1      61.691   4.990   0.674  1.00  0.00     0.165 HD
ENDBRANCH   4  30
TORSDOF 6
ENDMDL
MODEL 3
REMARK VINA RESULT: -11.305031685      1.237      1.854
REMARK  6 active torsions:
REMARK  status: ('A' for Active; 'I' for Inactive)
REMARK    1  A    between atoms: C1_4  and  C2_6 
REMARK    2  A    between atoms: C5_9  and  C6_10 
REMARK    3  A    between atoms: C6_10  and  O1_11 
REMARK    4  A    between atoms: O1_11  and  C7_12 
REMARK    5  A    between atoms: C10_15  and  C11_16 
REMARK    6  A    between atoms: C17_24  and  C18_25 
ROOT
HETATM    1  C7  UNL     1      60.928   6.423  -3.880  1.00  0.00     0.080 A 
HETATM    2  C8  UNL     1      61.420   7.591  -3.294  1.00  0.00     0.038 A 
HETATM    3  C9  UNL     1      61.449   7.691  -1.942  1.00  0.00     0.016 A 
HETATM    4  C10 UNL     1      60.996   6.648  -1.127  1.00  0.00    -0.009 A 
HETATM    5  C16 UNL     1      60.516   5.511  -1.716  1.00  0.00     0.029 A 
HETATM    6  C17 UNL     1      60.475   5.379  -3.109  1.00  0.00     0.011 A 
ENDROOT
BRANCH   1   7
HETATM    7  O1  UNL     1      60.912   6.342  -5.271  1.00  0.00    -0.346 OA
BRANCH   7   8
HETATM    8  C6  UNL     1      62.138   6.300  -5.976  1.00  0.00     0.214 C 
BRANCH   8   9
HETATM    9  C5  UNL     1      62.442   4.887  -6.307  1.00  0.00    -0.034 A 
HETATM   10  C4  UNL     1      61.543   4.062  -6.938  1.00  0.00     0.010 A 
HETATM   11  C3  UNL     1      61.832   2.726  -7.243  1.00  0.00     0.015 A 
HETATM   12  C2  UNL     1      63.048   2.173  -6.919  1.00  0.00     0.004 A 
HETATM   13  C27 UNL     1      63.959   3.019  -6.277  1.00  0.00     0.015 A 
HETATM   14  C26 UNL     1      63.682   4.332  -5.975  1.00  0.00     0.010 A 
BRANCH  12  15
HETATM   15  C1  UNL     1      63.432   0.797  -7.195  1.00  0.00     0.120 C 
HETATM   16  N1  UNL     1      64.596   0.364  -6.899  1.00  0.00    -0.387 N 
ATOM     17  H12 UNL     1      64.865  -0.601  -7.093  1.00  0.00     0.157 HD
ATOM     18  H11 UNL     1      65.243   1.021  -6.464  1.00  0.00     0.157 HD
HETATM   19  N2  UNL     1      62.529  -0.120  -7.803  1.00  0.00    -0.082 NA
ENDBRANCH  12  15
ENDBRANCH   8   9
ENDBRANCH   7   8
ENDBRANCH   1   7
BRANCH   6  20
HETATM   20  C18 UNL     1      59.943   4.147  -3.698  1.00  0.00     0.005 A 
HETATM   21  C19 UNL     1      58.685   3.991  -4.258  1.00  0.00     0.101 A 
HETATM   22  N4  UNL     1      58.519   2.736  -4.695  1.00  0.00    -0.364 N 
HETATM   23  C20 UNL     1      59.654   2.072  -4.426  1.00  0.00     0.043 A 
ATOM     24  H4  UNL     1      57.687   2.357  -5.147  1.00  0.00     0.165 HD
HETATM   25  C21 UNL     1      60.017   0.765  -4.663  1.00  0.00     0.030 A 
HETATM   26  C25 UNL     1      60.548   2.917  -3.812  1.00  0.00     0.003 A 
HETATM   27  C22 UNL     1      61.256   0.299  -4.292  1.00  0.00     0.002 A 
HETATM   28  C23 UNL     1      62.163   1.145  -3.674  1.00  0.00     0.001 A 
HETATM   29  C24 UNL     1      61.794   2.457  -3.439  1.00  0.00     0.014 A 
ENDBRANCH   6  20
BRANCH   4  30
HETATM   30  C11 UNL     1      61.079   6.848   0.315  1.00  0.00     0.042 A 
HETATM   31  C12 UNL     1      60.772   8.052   0.888  1.00  0.00     0.030 A 
HETATM   32  C13 UNL     1      60.832   8.271   2.259  1.00  0.00     0.004 A 
HETATM   33  C14 UNL     1      61.220   7.220   3.070  1.00  0.00     0.017 A 
HETATM   34  C15 UNL     1      61.527   6.012   2.476  1.00  0.00     0.088 A 
HETATM   35  N3  UNL     1      61.455   5.842   1.133  1.00  0.00    -0.365 N 
ATOM     36  H3  UNL     1      61.690   4.935   0.731  1.00  0.00     0.165 HD
ENDBRANCH   4  30
TORSDOF 6
ENDMDL
MODEL 4
REMARK VINA RESULT: -10.866931232      0.550      1.024
REMARK  6 active torsions:
REMARK  status: ('A' for Active; 'I' for Inactive)
REMARK    1  A    between atoms: C1_4  and  C2_6 
REMARK    2  A    between atoms: C5_9  and  C6_10 
REMARK    3  A    between atoms: C6_10  and  O1_11 
REMARK    4  A    between atoms: O1_11  and  C7_12 
REMARK    5  A    between atoms: C10_15  and  C11_16 
REMARK    6  A    between atoms: C17_24  and  C18_25 
ROOT
HETATM    1  C7  UNL     1      61.049   6.726  -2.907  1.00  0.00     0.080 A 
HETATM    2  C8  UNL     1      60.982   7.984  -2.305  1.00  0.00     0.038 A 
HETATM    3  C9  UNL     1      61.107   8.080  -0.958  1.00  0.00     0.016 A 
HETATM    4  C10 UNL     1      61.302   6.944  -0.165  1.00  0.00    -0.009 A 
HETATM    5  C16 UNL     1      61.364   5.719  -0.770  1.00  0.00     0.029 A 
HETATM    6  C17 UNL     1      61.238   5.589  -2.158  1.00  0.00     0.011 A 
ENDROOT
BRANCH   1   7
HETATM    7  O1  UNL     1      60.921   6.654  -4.293  1.00  0.00    -0.346 OA
BRANCH   7   8
HETATM    8  C6  UNL     1      62.074   6.785  -5.102  1.00  0.00     0.214 C 
BRANCH   8   9
HETATM    9  C5  UNL     1      62.371   5.469  -5.716  1.00  0.00    -0.034 A 
HETATM   10  C4  UNL     1      61.466   4.794  -6.500  1.00  0.00     0.010 A 
HETATM   11  C3  UNL     1      61.749   3.547  -7.073  1.00  0.00     0.015 A 
HETATM   12  C2  UNL     1      62.962   2.934  -6.871  1.00  0.00     0.004 A 
HETATM   13  C27 UNL     1      63.878   3.627  -6.071  1.00  0.00     0.015 A 
HETATM   14  C26 UNL     1      63.607   4.851  -5.506  1.00  0.00     0.010 A 
BRANCH  12  15
HETATM   15  C1  UNL     1      63.338   1.642  -7.422  1.00  0.00     0.120 C 
HETATM   16  N1  UNL     1      62.480   0.893  -8.000  1.00  0.00    -0.387 N 
ATOM     17  H12 UNL     1      62.744  -0.013  -8.386  1.00  0.00     0.157 HD
ATOM     18  H11 UNL     1      61.522   1.239  -8.057  1.00  0.00     0.157 HD
HETATM   19  N2  UNL     1      64.675   1.159  -7.342  1.00  0.00    -0.082 NA
ENDBRANCH  12  15
ENDBRANCH   8   9
ENDBRANCH   7   8
ENDBRANCH   1   7
BRANCH   6  20
HETATM   20  C18 UNL     1      61.300   4.257  -2.763  1.00  0.00     0.005 A 
HETATM   21  C19 UNL     1      62.382   3.391  -2.713  1.00  0.00     0.101 A 
HETATM   22  N4  UNL     1      62.108   2.260  -3.376  1.00  0.00    -0.364 N 
HETATM   23  C20 UNL     1      60.861   2.378  -3.857  1.00  0.00     0.043 A 
ATOM     24  H4  UNL     1      62.729   1.460  -3.492  1.00  0.00     0.165 HD
HETATM   25  C21 UNL     1      60.092   1.513  -4.605  1.00  0.00     0.030 A 
HETATM   26  C25 UNL     1      60.340   3.598  -3.494  1.00  0.00     0.003 A 
HETATM   27  C22 UNL     1      58.818   1.856  -4.990  1.00  0.00     0.002 A 
HETATM   28  C23 UNL     1      58.286   3.083  -4.628  1.00  0.00     0.001 A 
HETATM   29  C24 UNL     1      59.062   3.948  -3.876  1.00  0.00     0.014 A 
ENDBRANCH   6  20
BRANCH   4  30
HETATM   30  C11 UNL     1      61.436   7.152   1.272  1.00  0.00     0.042 A 
HETATM   31  C12 UNL     1      62.159   6.292   2.054  1.00  0.00     0.030 A 
HETATM   32  C13 UNL     1      62.314   6.468   3.423  1.00  0.00     0.004 A 
HETATM   33  C14 UNL     1      61.707   7.562   4.013  1.00  0.00     0.017 A 
HETATM   34  C15 UNL     1      60.981   8.420   3.209  1.00  0.00     0.088 A 
HETATM   35  N3  UNL     1      60.856   8.210   1.876  1.00  0.00    -0.365 N 
ATOM     36  H3  UNL     1      60.311   8.866   1.317  1.00  0.00     0.165 HD
ENDBRANCH   4  30
TORSDOF 6
ENDMDL
MODEL 5
REMARK VINA RESULT: -10.477163978      1.231      1.872
REMARK  6 active torsions:
REMARK  status: ('A' for Active; 'I' for Inactive)
REMARK    1  A    between atoms: C1_4  and  C2_6 
REMARK    2  A    between atoms: C5_9  and  C6_10 
REMARK    3  A    between atoms: C6_10  and  O1_11 
REMARK    4  A    between atoms: O1_11  and  C7_12 
REMARK    5  A    between atoms: C10_15  and  C11_16 
REMARK    6  A    between atoms: C17_24  and  C18_25 
ROOT
HETATM    1  C7  UNL     1      61.223   5.994  -3.923  1.00  0.00     0.080 A 
HETATM    2  C8  UNL     1      61.098   7.327  -3.524  1.00  0.00     0.038 A 
HETATM    3  C9  UNL     1      61.032   7.618  -2.201  1.00  0.00     0.016 A 
HETATM    4  C10 UNL     1      61.086   6.610  -1.233  1.00  0.00    -0.009 A 
HETATM    5  C16 UNL     1      61.207   5.310  -1.639  1.00  0.00     0.029 A 
HETATM    6  C17 UNL     1      61.278   4.979  -2.997  1.00  0.00     0.011 A 
ENDROOT
BRANCH   1   7
HETATM    7  O1  UNL     1      61.293   5.720  -5.287  1.00  0.00    -0.346 OA
BRANCH   7   8
HETATM    8  C6  UNL     1      62.533   5.851  -5.956  1.00  0.00     0.214 C 
BRANCH   8   9
HETATM    9  C5  UNL     1      63.102   4.497  -6.162  1.00  0.00    -0.034 A 
HETATM   10  C4  UNL     1      64.245   4.068  -5.531  1.00  0.00     0.010 A 
HETATM   11  C3  UNL     1      64.782   2.791  -5.734  1.00  0.00     0.015 A 
HETATM   12  C2  UNL     1      64.181   1.896  -6.586  1.00  0.00     0.004 A 
HETATM   13  C27 UNL     1      63.017   2.339  -7.224  1.00  0.00     0.015 A 
HETATM   14  C26 UNL     1      62.483   3.592  -7.030  1.00  0.00     0.010 A 
BRANCH  12  15
HETATM   15  C1  UNL     1      64.670   0.554  -6.857  1.00  0.00     0.120 C 
HETATM   16  N1  UNL     1      65.903   0.337  -7.108  1.00  0.00    -0.387 N 
ATOM     17  H12 UNL     1      66.246  -0.605  -7.299  1.00  0.00     0.157 HD
ATOM     18  H11 UNL     1      66.528   1.143  -7.111  1.00  0.00     0.157 HD
HETATM   19  N2  UNL     1      63.798  -0.571  -6.854  1.00  0.00    -0.082 NA
ENDBRANCH  12  15
ENDBRANCH   8   9
ENDBRANCH   7   8
ENDBRANCH   1   7
BRANCH   6  20
HETATM   20  C18 UNL     1      61.397   3.572  -3.388  1.00  0.00     0.005 A 
HETATM   21  C19 UNL     1      62.416   2.708  -3.016  1.00  0.00     0.101 A 
HETATM   22  N4  UNL     1      62.223   1.497  -3.553  1.00  0.00    -0.364 N 
HETATM   23  C20 UNL     1      61.091   1.561  -4.271  1.00  0.00     0.043 A 
ATOM     24  H4  UNL     1      62.823   0.681  -3.438  1.00  0.00     0.165 HD
HETATM   25  C21 UNL     1      60.439   0.607  -5.021  1.00  0.00     0.030 A 
HETATM   26  C25 UNL     1      60.562   2.827  -4.187  1.00  0.00     0.003 A 
HETATM   27  C22 UNL     1      59.272   0.908  -5.683  1.00  0.00     0.002 A 
HETATM   28  C23 UNL     1      58.732   2.181  -5.601  1.00  0.00     0.001 A 
HETATM   29  C24 UNL     1      59.390   3.135  -4.846  1.00  0.00     0.014 A 
ENDBRANCH   6  20
BRANCH   4  30
HETATM   30  C11 UNL     1      61.019   7.026   0.163  1.00  0.00     0.042 A 
HETATM   31  C12 UNL     1      61.621   6.300   1.155  1.00  0.00     0.030 A 
HETATM   32  C13 UNL     1      61.583   6.676   2.492  1.00  0.00     0.004 A 
HETATM   33  C14 UNL     1      60.904   7.833   2.825  1.00  0.00     0.017 A 
HETATM   34  C15 UNL     1      60.300   8.553   1.813  1.00  0.00     0.088 A 
HETATM   35  N3  UNL     1      60.363   8.150   0.520  1.00  0.00    -0.365 N 
ATOM     36  H3  UNL     1      59.903   8.709  -0.199  1.00  0.00     0.165 HD
ENDBRANCH   4  30
TORSDOF 6
ENDMDL
