MODEL 1
REMARK VINA RESULT: -11.064179060      0.000      0.000
REMARK  7 active torsions:
REMARK  status: ('A' for Active; 'I' for Inactive)
REMARK       I    between atoms: C1_2  and  N1_3 
REMARK       I    between atoms: C1_2  and  N2_11 
REMARK    1  A    between atoms: N1_3  and  C2_5 
REMARK    2  A    between atoms: N2_11  and  C8_13 
REMARK    3  A    between atoms: C11_16  and  N3_17 
REMARK    4  A    between atoms: N3_17  and  C12_18 
REMARK    5  A    between atoms: C12_18  and  O2_19 
REMARK    6  A    between atoms: C12_18  and  C13_21 
REMARK    7  A    between atoms: C16_24  and  C17_25 
ROOT
HETATM    1  C8  UNL     1      60.980   6.733  -1.201  1.00  0.00     0.108 A 
HETATM    2  C9  UNL     1      61.112   7.280  -2.458  1.00  0.00     0.052 A 
HETATM    3  C10 UNL     1      61.269   6.524  -3.576  1.00  0.00     0.050 A 
HETATM    4  C11 UNL     1      61.300   5.098  -3.469  1.00  0.00     0.125 A 
HETATM    5  C25 UNL     1      61.165   4.620  -2.190  1.00  0.00     0.134 A 
HETATM    6  N4  UNL     1      61.011   5.394  -1.104  1.00  0.00    -0.349 N 
ATOM      7  H4  UNL     1      60.917   4.956  -0.188  1.00  0.00     0.167 HD
ENDROOT
BRANCH   4   8
HETATM    8  N3  UNL     1      61.493   4.403  -4.645  1.00  0.00    -0.379 NA
BRANCH   8   9
HETATM    9  C12 UNL     1      61.678   3.734  -5.780  1.00  0.00     0.225 C 
BRANCH   9  10
HETATM   10  O2  UNL     1      60.984   3.830  -6.890  1.00  0.00    -0.335 OA
ATOM     11  H2  UNL     1      61.278   4.161  -7.730  1.00  0.00     0.220 HD
ENDBRANCH   9  10
BRANCH   9  12
HETATM   12  C13 UNL     1      62.751   2.721  -5.990  1.00  0.00     0.029 A 
HETATM   13  C14 UNL     1      62.460   1.412  -5.806  1.00  0.00     0.018 A 
HETATM   14  C15 UNL     1      63.420   0.442  -5.978  1.00  0.00     0.013 A 
HETATM   15  C16 UNL     1      64.693   0.822  -6.343  1.00  0.00    -0.026 A 
HETATM   16  C23 UNL     1      64.990   2.150  -6.531  1.00  0.00     0.013 A 
HETATM   17  C24 UNL     1      64.005   3.119  -6.353  1.00  0.00     0.018 A 
BRANCH  15  18
HETATM   18  C17 UNL     1      65.747  -0.207  -6.508  1.00  0.00    -0.026 A 
HETATM   19  C18 UNL     1      65.798  -1.305  -5.705  1.00  0.00     0.012 A 
HETATM   20  C19 UNL     1      66.770  -2.289  -5.852  1.00  0.00     0.001 A 
HETATM   21  C20 UNL     1      67.704  -2.103  -6.871  1.00  0.00     0.000 A 
HETATM   22  C21 UNL     1      67.681  -0.997  -7.707  1.00  0.00     0.001 A 
HETATM   23  C22 UNL     1      66.702  -0.065  -7.509  1.00  0.00     0.012 A 
ENDBRANCH  15  18
ENDBRANCH   9  12
ENDBRANCH   8   9
ENDBRANCH   4   8
BRANCH   1  24
HETATM   24  N2  UNL     1      60.799   7.560  -0.067  1.00  0.00    -0.294 N 
HETATM   25  C1  UNL     1      61.268   7.152   1.219  1.00  0.00     0.326 C 
HETATM   26  O1  UNL     1      61.855   6.049   1.274  1.00  0.00    -0.247 OA
HETATM   27  N1  UNL     1      61.070   7.959   2.352  1.00  0.00    -0.309 N 
ATOM     28  H1  UNL     1      60.584   8.846   2.222  1.00  0.00     0.170 HD
ATOM     29  H2  UNL     1      60.326   8.459  -0.169  1.00  0.00     0.172 HD
BRANCH  27  30
HETATM   30  C2  UNL     1      61.495   7.630   3.650  1.00  0.00     0.036 A 
HETATM   31  C3  UNL     1      62.193   6.535   4.041  1.00  0.00     0.029 A 
HETATM   32  C4  UNL     1      62.527   6.288   5.375  1.00  0.00     0.002 A 
HETATM   33  C5  UNL     1      62.147   7.173   6.351  1.00  0.00     0.000 A 
HETATM   34  C6  UNL     1      61.443   8.279   5.958  1.00  0.00     0.002 A 
HETATM   35  C7  UNL     1      61.110   8.534   4.653  1.00  0.00     0.029 A 
ENDBRANCH  27  30
ENDBRANCH   1  24
TORSDOF 7
ENDMDL
MODEL 2
REMARK VINA RESULT: -10.959237686      0.680      1.390
REMARK  7 active torsions:
REMARK  status: ('A' for Active; 'I' for Inactive)
REMARK       I    between atoms: C1_2  and  N1_3 
REMARK       I    between atoms: C1_2  and  N2_11 
REMARK    1  A    between atoms: N1_3  and  C2_5 
REMARK    2  A    between atoms: N2_11  and  C8_13 
REMARK    3  A    between atoms: C11_16  and  N3_17 
REMARK    4  A    between atoms: N3_17  and  C12_18 
REMARK    5  A    between atoms: C12_18  and  O2_19 
REMARK    6  A    between atoms: C12_18  and  C13_21 
REMARK    7  A    between atoms: C16_24  and  C17_25 
ROOT
HETATM    1  C8  UNL     1      60.836   6.461  -1.888  1.00  0.00     0.108 A 
HETATM    2  C9  UNL     1      61.279   6.937  -3.102  1.00  0.00     0.052 A 
HETATM    3  C10 UNL     1      61.497   6.130  -4.173  1.00  0.00     0.050 A 
HETATM    4  C11 UNL     1      61.263   4.722  -4.059  1.00  0.00     0.125 A 
HETATM    5  C25 UNL     1      60.825   4.316  -2.824  1.00  0.00     0.134 A 
HETATM    6  N4  UNL     1      60.619   5.139  -1.784  1.00  0.00    -0.349 N 
ATOM      7  H4  UNL     1      60.291   4.754  -0.899  1.00  0.00     0.167 HD
ENDROOT
BRANCH   4   8
HETATM    8  N3  UNL     1      61.537   3.968  -5.182  1.00  0.00    -0.379 NA
BRANCH   8   9
HETATM    9  C12 UNL     1      61.801   3.240  -6.264  1.00  0.00     0.225 C 
BRANCH   9  10
HETATM   10  O2  UNL     1      61.149   3.232  -7.403  1.00  0.00    -0.335 OA
ATOM     11  H2  UNL     1      60.396   3.760  -7.643  1.00  0.00     0.220 HD
ENDBRANCH   9  10
BRANCH   9  12
HETATM   12  C13 UNL     1      62.931   2.273  -6.370  1.00  0.00     0.029 A 
HETATM   13  C14 UNL     1      62.706   0.971  -6.080  1.00  0.00     0.018 A 
HETATM   14  C15 UNL     1      63.718   0.043  -6.153  1.00  0.00     0.013 A 
HETATM   15  C16 UNL     1      64.977   0.460  -6.528  1.00  0.00    -0.026 A 
HETATM   16  C23 UNL     1      65.207   1.782  -6.824  1.00  0.00     0.013 A 
HETATM   17  C24 UNL     1      64.169   2.708  -6.745  1.00  0.00     0.018 A 
BRANCH  15  18
HETATM   18  C17 UNL     1      66.087  -0.520  -6.588  1.00  0.00    -0.026 A 
HETATM   19  C18 UNL     1      66.990  -0.507  -7.607  1.00  0.00     0.012 A 
HETATM   20  C19 UNL     1      68.047  -1.408  -7.675  1.00  0.00     0.001 A 
HETATM   21  C20 UNL     1      68.146  -2.340  -6.641  1.00  0.00     0.000 A 
HETATM   22  C21 UNL     1      67.245  -2.381  -5.589  1.00  0.00     0.001 A 
HETATM   23  C22 UNL     1      66.228  -1.469  -5.581  1.00  0.00     0.012 A 
ENDBRANCH  15  18
ENDBRANCH   9  12
ENDBRANCH   8   9
ENDBRANCH   4   8
BRANCH   1  24
HETATM   24  N2  UNL     1      60.603   7.343  -0.806  1.00  0.00    -0.294 N 
HETATM   25  C1  UNL     1      61.097   7.045   0.501  1.00  0.00     0.326 C 
HETATM   26  O1  UNL     1      61.751   5.985   0.621  1.00  0.00    -0.247 OA
HETATM   27  N1  UNL     1      60.848   7.905   1.583  1.00  0.00    -0.309 N 
ATOM     28  H1  UNL     1      60.308   8.751   1.401  1.00  0.00     0.170 HD
ATOM     29  H2  UNL     1      60.076   8.202  -0.961  1.00  0.00     0.172 HD
BRANCH  27  30
HETATM   30  C2  UNL     1      61.292   7.683   2.897  1.00  0.00     0.036 A 
HETATM   31  C3  UNL     1      60.940   8.363   4.016  1.00  0.00     0.029 A 
HETATM   32  C4  UNL     1      61.481   8.081   5.274  1.00  0.00     0.002 A 
HETATM   33  C5  UNL     1      62.408   7.081   5.411  1.00  0.00     0.000 A 
HETATM   34  C6  UNL     1      62.765   6.394   4.283  1.00  0.00     0.002 A 
HETATM   35  C7  UNL     1      62.242   6.659   3.044  1.00  0.00     0.029 A 
ENDBRANCH  27  30
ENDBRANCH   1  24
TORSDOF 7
ENDMDL
MODEL 3
REMARK VINA RESULT: -10.347852026      0.920      1.896
REMARK  7 active torsions:
REMARK  status: ('A' for Active; 'I' for Inactive)
REMARK       I    between atoms: C1_2  and  N1_3 
REMARK       I    between atoms: C1_2  and  N2_11 
REMARK    1  A    between atoms: N1_3  and  C2_5 
REMARK    2  A    between atoms: N2_11  and  C8_13 
REMARK    3  A    between atoms: C11_16  and  N3_17 
REMARK    4  A    between atoms: N3_17  and  C12_18 
REMARK    5  A    between atoms: C12_18  and  O2_19 
REMARK    6  A    between atoms: C12_18  and  C13_21 
REMARK    7  A    between atoms: C16_24  and  C17_25 
ROOT
HETATM    1  C8  UNL     1      60.752   6.660  -2.165  1.00  0.00     0.108 A 
HETATM    2  C9  UNL     1      60.635   5.290  -2.100  1.00  0.00     0.052 A 
HETATM    3  C10 UNL     1      60.911   4.478  -3.154  1.00  0.00     0.050 A 
HETATM    4  C11 UNL     1      61.344   5.047  -4.393  1.00  0.00     0.125 A 
HETATM    5  C25 UNL     1      61.438   6.415  -4.389  1.00  0.00     0.134 A 
HETATM    6  N4  UNL     1      61.158   7.191  -3.331  1.00  0.00    -0.349 N 
ATOM      7  H4  UNL     1      61.255   8.203  -3.413  1.00  0.00     0.167 HD
ENDROOT
BRANCH   4   8
HETATM    8  N3  UNL     1      61.575   4.158  -5.423  1.00  0.00    -0.379 NA
BRANCH   8   9
HETATM    9  C12 UNL     1      61.797   3.300  -6.416  1.00  0.00     0.225 C 
BRANCH   9  10
HETATM   10  O2  UNL     1      61.128   3.183  -7.538  1.00  0.00    -0.335 OA
ATOM     11  H2  UNL     1      61.431   2.809  -8.358  1.00  0.00     0.220 HD
ENDBRANCH   9  10
BRANCH   9  12
HETATM   12  C13 UNL     1      62.892   2.289  -6.421  1.00  0.00     0.029 A 
HETATM   13  C14 UNL     1      64.136   2.673  -6.792  1.00  0.00     0.018 A 
HETATM   14  C15 UNL     1      65.175   1.773  -6.822  1.00  0.00     0.013 A 
HETATM   15  C16 UNL     1      64.934   0.464  -6.468  1.00  0.00    -0.026 A 
HETATM   16  C23 UNL     1      63.672   0.072  -6.090  1.00  0.00     0.013 A 
HETATM   17  C24 UNL     1      62.630   0.997  -6.065  1.00  0.00     0.018 A 
BRANCH  15  18
HETATM   18  C17 UNL     1      66.036  -0.526  -6.519  1.00  0.00    -0.026 A 
HETATM   19  C18 UNL     1      66.968  -0.498  -7.510  1.00  0.00     0.012 A 
HETATM   20  C19 UNL     1      68.018  -1.408  -7.569  1.00  0.00     0.001 A 
HETATM   21  C20 UNL     1      68.078  -2.365  -6.556  1.00  0.00     0.000 A 
HETATM   22  C21 UNL     1      67.146  -2.422  -5.532  1.00  0.00     0.001 A 
HETATM   23  C22 UNL     1      66.137  -1.500  -5.532  1.00  0.00     0.012 A 
ENDBRANCH  15  18
ENDBRANCH   9  12
ENDBRANCH   8   9
ENDBRANCH   4   8
BRANCH   1  24
HETATM   24  N2  UNL     1      60.473   7.465  -1.035  1.00  0.00    -0.294 N 
HETATM   25  C1  UNL     1      61.028   7.151   0.243  1.00  0.00     0.326 C 
HETATM   26  O1  UNL     1      61.776   6.150   0.294  1.00  0.00    -0.247 OA
HETATM   27  N1  UNL     1      60.735   7.934   1.372  1.00  0.00    -0.309 N 
ATOM     28  H1  UNL     1      60.117   8.735   1.245  1.00  0.00     0.170 HD
ATOM     29  H2  UNL     1      59.867   8.280  -1.135  1.00  0.00     0.172 HD
BRANCH  27  30
HETATM   30  C2  UNL     1      61.235   7.692   2.662  1.00  0.00     0.036 A 
HETATM   31  C3  UNL     1      60.949   8.369   3.802  1.00  0.00     0.029 A 
HETATM   32  C4  UNL     1      61.542   8.065   5.030  1.00  0.00     0.002 A 
HETATM   33  C5  UNL     1      62.452   7.044   5.117  1.00  0.00     0.000 A 
HETATM   34  C6  UNL     1      62.741   6.359   3.969  1.00  0.00     0.002 A 
HETATM   35  C7  UNL     1      62.167   6.646   2.757  1.00  0.00     0.029 A 
ENDBRANCH  27  30
ENDBRANCH   1  24
TORSDOF 7
ENDMDL
MODEL 4
REMARK VINA RESULT: -10.284403641      1.763     11.348
REMARK  7 active torsions:
REMARK  status: ('A' for Active; 'I' for Inactive)
REMARK       I    between atoms: C1_2  and  N1_3 
REMARK       I    between atoms: C1_2  and  N2_11 
REMARK    1  A    between atoms: N1_3  and  C2_5 
REMARK    2  A    between atoms: N2_11  and  C8_13 
REMARK    3  A    between atoms: C11_16  and  N3_17 
REMARK    4  A    between atoms: N3_17  and  C12_18 
REMARK    5  A    between atoms: C12_18  and  O2_19 
REMARK    6  A    between atoms: C12_18  and  C13_21 
REMARK    7  A    between atoms: C16_24  and  C17_25 
ROOT
HETATM    1  C8  UNL     1      62.004   3.372  -4.879  1.00  0.00     0.108 A 
HETATM    2  C9  UNL     1      61.044   3.251  -3.900  1.00  0.00     0.052 A 
HETATM    3  C10 UNL     1      60.711   4.270  -3.066  1.00  0.00     0.050 A 
HETATM    4  C11 UNL     1      61.371   5.534  -3.192  1.00  0.00     0.125 A 
HETATM    5  C25 UNL     1      62.316   5.585  -4.185  1.00  0.00     0.134 A 
HETATM    6  N4  UNL     1      62.623   4.559  -4.994  1.00  0.00    -0.349 N 
ATOM      7  H4  UNL     1      63.339   4.684  -5.709  1.00  0.00     0.167 HD
ENDROOT
BRANCH   4   8
HETATM    8  N3  UNL     1      60.999   6.508  -2.288  1.00  0.00    -0.379 NA
BRANCH   8   9
HETATM    9  C12 UNL     1      60.639   7.447  -1.418  1.00  0.00     0.225 C 
BRANCH   9  10
HETATM   10  O2  UNL     1      60.017   8.576  -1.668  1.00  0.00    -0.335 OA
ATOM     11  H2  UNL     1      60.075   9.389  -1.181  1.00  0.00     0.220 HD
ENDBRANCH   9  10
BRANCH   9  12
HETATM   12  C13 UNL     1      60.891   7.372   0.050  1.00  0.00     0.029 A 
HETATM   13  C14 UNL     1      60.646   8.463   0.812  1.00  0.00     0.018 A 
HETATM   14  C15 UNL     1      60.873   8.445   2.168  1.00  0.00     0.013 A 
HETATM   15  C16 UNL     1      61.357   7.292   2.747  1.00  0.00    -0.026 A 
HETATM   16  C23 UNL     1      61.605   6.183   1.975  1.00  0.00     0.013 A 
HETATM   17  C24 UNL     1      61.369   6.219   0.603  1.00  0.00     0.018 A 
BRANCH  15  18
HETATM   18  C17 UNL     1      61.632   7.262   4.203  1.00  0.00    -0.026 A 
HETATM   19  C18 UNL     1      62.202   6.176   4.795  1.00  0.00     0.012 A 
HETATM   20  C19 UNL     1      62.481   6.132   6.157  1.00  0.00     0.001 A 
HETATM   21  C20 UNL     1      62.148   7.263   6.903  1.00  0.00     0.000 A 
HETATM   22  C21 UNL     1      61.567   8.384   6.333  1.00  0.00     0.001 A 
HETATM   23  C22 UNL     1      61.317   8.364   4.990  1.00  0.00     0.012 A 
ENDBRANCH  15  18
ENDBRANCH   9  12
ENDBRANCH   8   9
ENDBRANCH   4   8
BRANCH   1  24
HETATM   24  N2  UNL     1      62.304   2.289  -5.739  1.00  0.00    -0.294 N 
HETATM   25  C1  UNL     1      63.633   1.777  -5.836  1.00  0.00     0.326 C 
HETATM   26  O1  UNL     1      64.495   2.325  -5.113  1.00  0.00    -0.247 OA
HETATM   27  N1  UNL     1      63.940   0.717  -6.704  1.00  0.00    -0.309 N 
ATOM     28  H1  UNL     1      63.179   0.323  -7.259  1.00  0.00     0.170 HD
ATOM     29  H2  UNL     1      61.560   1.868  -6.296  1.00  0.00     0.172 HD
BRANCH  27  30
HETATM   30  C2  UNL     1      65.220   0.159  -6.863  1.00  0.00     0.036 A 
HETATM   31  C3  UNL     1      66.230   0.612  -7.645  1.00  0.00     0.029 A 
HETATM   32  C4  UNL     1      67.454  -0.051  -7.759  1.00  0.00     0.002 A 
HETATM   33  C5  UNL     1      67.671  -1.211  -7.062  1.00  0.00     0.000 A 
HETATM   34  C6  UNL     1      66.653  -1.671  -6.272  1.00  0.00     0.002 A 
HETATM   35  C7  UNL     1      65.448  -1.030  -6.150  1.00  0.00     0.029 A 
ENDBRANCH  27  30
ENDBRANCH   1  24
TORSDOF 7
ENDMDL
MODEL 5
REMARK VINA RESULT: -10.261572935      1.883     11.237
REMARK  7 active torsions:
REMARK  status: ('A' for Active; 'I' for Inactive)
REMARK       I    between atoms: C1_2  and  N1_3 
REMARK       I    between atoms: C1_2  and  N2_11 
REMARK    1  A    between atoms: N1_3  and  C2_5 
REMARK    2  A    between atoms: N2_11  and  C8_13 
REMARK    3  A    between atoms: C11_16  and  N3_17 
REMARK    4  A    between atoms: N3_17  and  C12_18 
REMARK    5  A    between atoms: C12_18  and  O2_19 
REMARK    6  A    between atoms: C12_18  and  C13_21 
REMARK    7  A    between atoms: C16_24  and  C17_25 
ROOT
HETATM    1  C8  UNL     1      62.867   4.275  -5.390  1.00  0.00     0.108 A 
HETATM    2  C9  UNL     1      62.850   5.651  -5.434  1.00  0.00     0.052 A 
HETATM    3  C10 UNL     1      62.298   6.412  -4.452  1.00  0.00     0.050 A 
HETATM    4  C11 UNL     1      61.706   5.779  -3.314  1.00  0.00     0.125 A 
HETATM    5  C25 UNL     1      61.757   4.408  -3.334  1.00  0.00     0.134 A 
HETATM    6  N4  UNL     1      62.309   3.684  -4.320  1.00  0.00    -0.349 N 
ATOM      7  H4  UNL     1      62.305   2.667  -4.255  1.00  0.00     0.167 HD
ENDROOT
BRANCH   4   8
HETATM    8  N3  UNL     1      61.141   6.619  -2.376  1.00  0.00    -0.379 NA
BRANCH   8   9
HETATM    9  C12 UNL     1      60.596   7.430  -1.473  1.00  0.00     0.225 C 
BRANCH   9  10
HETATM   10  O2  UNL     1      59.754   8.414  -1.683  1.00  0.00    -0.335 OA
ATOM     11  H2  UNL     1      59.911   9.345  -1.573  1.00  0.00     0.220 HD
ENDBRANCH   9  10
BRANCH   9  12
HETATM   12  C13 UNL     1      60.861   7.351  -0.008  1.00  0.00     0.029 A 
HETATM   13  C14 UNL     1      60.533   8.407   0.773  1.00  0.00     0.018 A 
HETATM   14  C15 UNL     1      60.767   8.386   2.128  1.00  0.00     0.013 A 
HETATM   15  C16 UNL     1      61.346   7.266   2.686  1.00  0.00    -0.026 A 
HETATM   16  C23 UNL     1      61.678   6.194   1.895  1.00  0.00     0.013 A 
HETATM   17  C24 UNL     1      61.433   6.232   0.524  1.00  0.00     0.018 A 
BRANCH  15  18
HETATM   18  C17 UNL     1      61.629   7.235   4.141  1.00  0.00    -0.026 A 
HETATM   19  C18 UNL     1      62.186   6.141   4.731  1.00  0.00     0.012 A 
HETATM   20  C19 UNL     1      62.473   6.096   6.091  1.00  0.00     0.001 A 
HETATM   21  C20 UNL     1      62.163   7.233   6.837  1.00  0.00     0.000 A 
HETATM   22  C21 UNL     1      61.596   8.363   6.268  1.00  0.00     0.001 A 
HETATM   23  C22 UNL     1      61.337   8.344   4.927  1.00  0.00     0.012 A 
ENDBRANCH  15  18
ENDBRANCH   9  12
ENDBRANCH   8   9
ENDBRANCH   4   8
BRANCH   1  24
HETATM   24  N2  UNL     1      63.471   3.525  -6.426  1.00  0.00    -0.294 N 
HETATM   25  C1  UNL     1      64.400   2.481  -6.129  1.00  0.00     0.326 C 
HETATM   26  O1  UNL     1      64.627   2.265  -4.918  1.00  0.00    -0.247 OA
HETATM   27  N1  UNL     1      65.020   1.749  -7.155  1.00  0.00    -0.309 N 
ATOM     28  H1  UNL     1      64.779   1.986  -8.118  1.00  0.00     0.170 HD
ATOM     29  H2  UNL     1      63.240   3.732  -7.398  1.00  0.00     0.172 HD
BRANCH  27  30
HETATM   30  C2  UNL     1      65.946   0.713  -6.949  1.00  0.00     0.036 A 
HETATM   31  C3  UNL     1      65.700  -0.619  -6.888  1.00  0.00     0.029 A 
HETATM   32  C4  UNL     1      66.699  -1.562  -6.634  1.00  0.00     0.002 A 
HETATM   33  C5  UNL     1      67.992  -1.152  -6.436  1.00  0.00     0.000 A 
HETATM   34  C6  UNL     1      68.243   0.191  -6.497  1.00  0.00     0.002 A 
HETATM   35  C7  UNL     1      67.273   1.127  -6.746  1.00  0.00     0.029 A 
ENDBRANCH  27  30
ENDBRANCH   1  24
TORSDOF 7
ENDMDL
