MODEL 1
REMARK VINA RESULT: -6.727017122      0.000      0.000
REMARK  11 active torsions:
REMARK  status: ('A' for Active; 'I' for Inactive)
REMARK    1  A    between atoms: N1_1  and  C1_4 
REMARK    2  A    between atoms: C2_7  and  N3_8 
REMARK    3  A    between atoms: N3_8  and  N4_10 
REMARK    4  A    between atoms: C3_15  and  N6_16 
REMARK    5  A    between atoms: N6_16  and  C4_18 
REMARK    6  A    between atoms: C4_18  and  C5_19 
REMARK    7  A    between atoms: C5_19  and  C6_20 
REMARK    8  A    between atoms: C6_20  and  C7_21 
REMARK    9  A    between atoms: C7_21  and  C8_22 
REMARK   10  A    between atoms: C8_22  and  C9_23 
REMARK   11  A    between atoms: C9_23  and  N7_24 
ROOT
HETATM    1  C1  UNL     1     -16.275  44.529   9.644  1.00  0.00     0.705 A 
HETATM    2  N2  UNL     1     -16.763  44.688  10.888  1.00  0.00    -0.020 N 
ATOM      3  H2  UNL     1     -16.772  45.601  11.340  1.00  0.00     0.203 HD
HETATM    4  C2  UNL     1     -17.241  43.596  11.511  1.00  0.00     0.725 A 
HETATM    5  N5  UNL     1     -17.232  42.389  10.912  1.00  0.00    -0.020 N 
ATOM      6  H5  UNL     1     -17.603  41.582  11.412  1.00  0.00     0.203 HD
HETATM    7  C3  UNL     1     -16.744  42.224   9.665  1.00  0.00     0.707 A 
HETATM    8  N8  UNL     1     -16.269  43.322   9.052  1.00  0.00    -0.022 N 
ATOM      9  H8  UNL     1     -15.892  43.237   8.108  1.00  0.00     0.203 HD
ENDROOT
BRANCH   7  10
HETATM   10  N6  UNL     1     -16.743  41.060   9.106  1.00  0.00    -0.225 N 
ATOM     11  H6  UNL     1     -17.219  40.916   8.216  1.00  0.00     0.177 HD
BRANCH  10  12
HETATM   12  C4  UNL     1     -16.056  39.957   9.760  1.00  0.00     0.138 C 
BRANCH  12  13
HETATM   13  C5  UNL     1     -15.985  38.738   8.891  1.00  0.00     0.020 C 
BRANCH  13  14
HETATM   14  C6  UNL     1     -14.896  37.837   9.438  1.00  0.00     0.002 C 
BRANCH  14  15
HETATM   15  C7  UNL     1     -13.825  38.679  10.134  1.00  0.00     0.002 C 
BRANCH  15  16
HETATM   16  C8  UNL     1     -12.567  38.526   9.301  1.00  0.00     0.027 C 
BRANCH  16  17
HETATM   17  C9  UNL     1     -12.148  39.846   8.683  1.00  0.00     0.229 C 
BRANCH  17  18
HETATM   18  N7  UNL     1     -12.677  39.862   7.332  1.00  0.00    -0.079 N 
ATOM     19  H73 UNL     1     -11.956  39.965   6.619  1.00  0.00     0.274 HD
ATOM     20  H72 UNL     1     -13.029  38.954   7.028  1.00  0.00     0.274 HD
ATOM     21  H71 UNL     1     -13.382  40.599   7.301  1.00  0.00     0.274 HD
ENDBRANCH  17  18
ENDBRANCH  16  17
ENDBRANCH  15  16
ENDBRANCH  14  15
ENDBRANCH  13  14
ENDBRANCH  12  13
ENDBRANCH  10  12
ENDBRANCH   7  10
BRANCH   4  22
HETATM   22  N3  UNL     1     -17.712  43.704  12.690  1.00  0.00    -0.138 N 
ATOM     23  H3  UNL     1     -17.759  44.633  13.109  1.00  0.00     0.205 HD
BRANCH  22  24
HETATM   24  N4  UNL     1     -18.162  42.626  13.428  1.00  0.00    -0.331 N 
ATOM     25  H42 UNL     1     -18.716  41.922  12.940  1.00  0.00     0.177 HD
ATOM     26  H41 UNL     1     -17.966  42.508  14.422  1.00  0.00     0.177 HD
ENDBRANCH  22  24
ENDBRANCH   4  22
BRANCH   1  27
HETATM   27  N1  UNL     1     -15.800  45.564   9.000  1.00  0.00    -0.234 N 
ATOM     28  H12 UNL     1     -16.399  46.065   8.344  1.00  0.00     0.174 HD
ATOM     29  H11 UNL     1     -14.837  45.859   9.162  1.00  0.00     0.174 HD
ENDBRANCH   1  27
TORSDOF 11
ENDMDL
MODEL 2
REMARK VINA RESULT: -6.677234897      1.297      2.814
REMARK  11 active torsions:
REMARK  status: ('A' for Active; 'I' for Inactive)
REMARK    1  A    between atoms: N1_1  and  C1_4 
REMARK    2  A    between atoms: C2_7  and  N3_8 
REMARK    3  A    between atoms: N3_8  and  N4_10 
REMARK    4  A    between atoms: C3_15  and  N6_16 
REMARK    5  A    between atoms: N6_16  and  C4_18 
REMARK    6  A    between atoms: C4_18  and  C5_19 
REMARK    7  A    between atoms: C5_19  and  C6_20 
REMARK    8  A    between atoms: C6_20  and  C7_21 
REMARK    9  A    between atoms: C7_21  and  C8_22 
REMARK   10  A    between atoms: C8_22  and  C9_23 
REMARK   11  A    between atoms: C9_23  and  N7_24 
ROOT
HETATM    1  C1  UNL     1     -17.347  42.766  11.960  1.00  0.00     0.705 A 
HETATM    2  N2  UNL     1     -17.030  44.024  11.604  1.00  0.00    -0.020 N 
ATOM      3  H2  UNL     1     -17.319  44.823  12.168  1.00  0.00     0.203 HD
HETATM    4  C2  UNL     1     -16.318  44.189  10.474  1.00  0.00     0.725 A 
HETATM    5  N5  UNL     1     -15.934  43.134   9.730  1.00  0.00    -0.020 N 
ATOM      6  H5  UNL     1     -15.394  43.294   8.880  1.00  0.00     0.203 HD
HETATM    7  C3  UNL     1     -16.248  41.870  10.082  1.00  0.00     0.707 A 
HETATM    8  N8  UNL     1     -16.961  41.717  11.212  1.00  0.00    -0.022 N 
ATOM      9  H8  UNL     1     -17.217  40.777  11.512  1.00  0.00     0.203 HD
ENDROOT
BRANCH   7  10
HETATM   10  N6  UNL     1     -15.872  40.871   9.357  1.00  0.00    -0.225 N 
ATOM     11  H6  UNL     1     -15.330  41.025   8.508  1.00  0.00     0.177 HD
BRANCH  10  12
HETATM   12  C4  UNL     1     -16.232  39.521   9.764  1.00  0.00     0.138 C 
BRANCH  12  13
HETATM   13  C5  UNL     1     -15.038  38.619   9.855  1.00  0.00     0.020 C 
BRANCH  13  14
HETATM   14  C6  UNL     1     -14.286  38.966  11.124  1.00  0.00     0.002 C 
BRANCH  14  15
HETATM   15  C7  UNL     1     -12.847  39.358  10.786  1.00  0.00     0.002 C 
BRANCH  15  16
HETATM   16  C8  UNL     1     -12.592  38.841   9.384  1.00  0.00     0.027 C 
BRANCH  16  17
HETATM   17  C9  UNL     1     -11.404  37.898   9.348  1.00  0.00     0.229 C 
BRANCH  17  18
HETATM   18  N7  UNL     1     -11.938  36.550   9.379  1.00  0.00    -0.079 N 
ATOM     19  H73 UNL     1     -12.240  36.258  10.308  1.00  0.00     0.274 HD
ATOM     20  H72 UNL     1     -12.843  36.466   8.917  1.00  0.00     0.274 HD
ATOM     21  H71 UNL     1     -11.223  35.942   8.978  1.00  0.00     0.274 HD
ENDBRANCH  17  18
ENDBRANCH  16  17
ENDBRANCH  15  16
ENDBRANCH  14  15
ENDBRANCH  13  14
ENDBRANCH  12  13
ENDBRANCH  10  12
ENDBRANCH   7  10
BRANCH   4  22
HETATM   22  N3  UNL     1     -15.999  45.365  10.103  1.00  0.00    -0.138 N 
ATOM     23  H3  UNL     1     -16.033  46.117  10.791  1.00  0.00     0.205 HD
BRANCH  22  24
HETATM   24  N4  UNL     1     -15.610  45.672   8.812  1.00  0.00    -0.331 N 
ATOM     25  H42 UNL     1     -15.697  44.938   8.109  1.00  0.00     0.177 HD
ATOM     26  H41 UNL     1     -15.245  46.585   8.541  1.00  0.00     0.177 HD
ENDBRANCH  22  24
ENDBRANCH   4  22
BRANCH   1  27
HETATM   27  N1  UNL     1     -18.039  42.558  13.051  1.00  0.00    -0.234 N 
ATOM     28  H12 UNL     1     -17.551  42.368  13.926  1.00  0.00     0.174 HD
ATOM     29  H11 UNL     1     -19.057  42.591  13.014  1.00  0.00     0.174 HD
ENDBRANCH   1  27
TORSDOF 11
ENDMDL
MODEL 3
REMARK VINA RESULT: -6.655481513      1.045      1.133
REMARK  11 active torsions:
REMARK  status: ('A' for Active; 'I' for Inactive)
REMARK    1  A    between atoms: N1_1  and  C1_4 
REMARK    2  A    between atoms: C2_7  and  N3_8 
REMARK    3  A    between atoms: N3_8  and  N4_10 
REMARK    4  A    between atoms: C3_15  and  N6_16 
REMARK    5  A    between atoms: N6_16  and  C4_18 
REMARK    6  A    between atoms: C4_18  and  C5_19 
REMARK    7  A    between atoms: C5_19  and  C6_20 
REMARK    8  A    between atoms: C6_20  and  C7_21 
REMARK    9  A    between atoms: C7_21  and  C8_22 
REMARK   10  A    between atoms: C8_22  and  C9_23 
REMARK   11  A    between atoms: C9_23  and  N7_24 
ROOT
HETATM    1  C1  UNL     1     -16.272  44.544   9.634  1.00  0.00     0.705 A 
HETATM    2  N2  UNL     1     -16.769  44.701  10.874  1.00  0.00    -0.020 N 
ATOM      3  H2  UNL     1     -16.778  45.613  11.330  1.00  0.00     0.203 HD
HETATM    4  C2  UNL     1     -17.254  43.609  11.492  1.00  0.00     0.725 A 
HETATM    5  N5  UNL     1     -17.245  42.404  10.889  1.00  0.00    -0.020 N 
ATOM      6  H5  UNL     1     -17.622  41.596  11.385  1.00  0.00     0.203 HD
HETATM    7  C3  UNL     1     -16.748  42.240   9.646  1.00  0.00     0.707 A 
HETATM    8  N8  UNL     1     -16.265  43.339   9.038  1.00  0.00    -0.022 N 
ATOM      9  H8  UNL     1     -15.881  43.255   8.098  1.00  0.00     0.203 HD
ENDROOT
BRANCH   7  10
HETATM   10  N6  UNL     1     -16.746  41.078   9.084  1.00  0.00    -0.225 N 
ATOM     11  H6  UNL     1     -17.188  40.945   8.174  1.00  0.00     0.177 HD
BRANCH  10  12
HETATM   12  C4  UNL     1     -16.108  39.961   9.762  1.00  0.00     0.138 C 
BRANCH  12  13
HETATM   13  C5  UNL     1     -16.038  38.738   8.898  1.00  0.00     0.020 C 
BRANCH  13  14
HETATM   14  C6  UNL     1     -14.959  37.832   9.458  1.00  0.00     0.002 C 
BRANCH  14  15
HETATM   15  C7  UNL     1     -13.839  38.674  10.071  1.00  0.00     0.002 C 
BRANCH  15  16
HETATM   16  C8  UNL     1     -12.689  38.622   9.083  1.00  0.00     0.027 C 
BRANCH  16  17
HETATM   17  C9  UNL     1     -11.488  37.903   9.669  1.00  0.00     0.229 C 
BRANCH  17  18
HETATM   18  N7  UNL     1     -11.658  36.494   9.370  1.00  0.00    -0.079 N 
ATOM     19  H73 UNL     1     -12.356  36.039   9.957  1.00  0.00     0.274 HD
ATOM     20  H72 UNL     1     -12.114  36.325   8.473  1.00  0.00     0.274 HD
ATOM     21  H71 UNL     1     -10.734  36.066   9.438  1.00  0.00     0.274 HD
ENDBRANCH  17  18
ENDBRANCH  16  17
ENDBRANCH  15  16
ENDBRANCH  14  15
ENDBRANCH  13  14
ENDBRANCH  12  13
ENDBRANCH  10  12
ENDBRANCH   7  10
BRANCH   4  22
HETATM   22  N3  UNL     1     -17.733  43.716  12.667  1.00  0.00    -0.138 N 
ATOM     23  H3  UNL     1     -17.814  44.647  13.075  1.00  0.00     0.205 HD
BRANCH  22  24
HETATM   24  N4  UNL     1     -18.148  42.632  13.418  1.00  0.00    -0.331 N 
ATOM     25  H42 UNL     1     -18.667  41.898  12.934  1.00  0.00     0.177 HD
ATOM     26  H41 UNL     1     -17.961  42.538  14.416  1.00  0.00     0.177 HD
ENDBRANCH  22  24
ENDBRANCH   4  22
BRANCH   1  27
HETATM   27  N1  UNL     1     -15.789  45.580   8.996  1.00  0.00    -0.234 N 
ATOM     28  H12 UNL     1     -16.410  46.147   8.418  1.00  0.00     0.174 HD
ATOM     29  H11 UNL     1     -14.799  45.808   9.084  1.00  0.00     0.174 HD
ENDBRANCH   1  27
TORSDOF 11
ENDMDL
MODEL 4
REMARK VINA RESULT: -6.591706111      0.825      2.598
REMARK  11 active torsions:
REMARK  status: ('A' for Active; 'I' for Inactive)
REMARK    1  A    between atoms: N1_1  and  C1_4 
REMARK    2  A    between atoms: C2_7  and  N3_8 
REMARK    3  A    between atoms: N3_8  and  N4_10 
REMARK    4  A    between atoms: C3_15  and  N6_16 
REMARK    5  A    between atoms: N6_16  and  C4_18 
REMARK    6  A    between atoms: C4_18  and  C5_19 
REMARK    7  A    between atoms: C5_19  and  C6_20 
REMARK    8  A    between atoms: C6_20  and  C7_21 
REMARK    9  A    between atoms: C7_21  and  C8_22 
REMARK   10  A    between atoms: C8_22  and  C9_23 
REMARK   11  A    between atoms: C9_23  and  N7_24 
ROOT
HETATM    1  C1  UNL     1     -17.358  42.744  11.949  1.00  0.00     0.705 A 
HETATM    2  N2  UNL     1     -17.062  44.004  11.581  1.00  0.00    -0.020 N 
ATOM      3  H2  UNL     1     -17.371  44.803  12.134  1.00  0.00     0.203 HD
HETATM    4  C2  UNL     1     -16.341  44.170  10.457  1.00  0.00     0.725 A 
HETATM    5  N5  UNL     1     -15.931  43.114   9.729  1.00  0.00    -0.020 N 
ATOM      6  H5  UNL     1     -15.385  43.275   8.883  1.00  0.00     0.203 HD
HETATM    7  C3  UNL     1     -16.224  41.848  10.092  1.00  0.00     0.707 A 
HETATM    8  N8  UNL     1     -16.945  41.694  11.217  1.00  0.00    -0.022 N 
ATOM      9  H8  UNL     1     -17.186  40.753  11.524  1.00  0.00     0.203 HD
ENDROOT
BRANCH   7  10
HETATM   10  N6  UNL     1     -15.823  40.848   9.382  1.00  0.00    -0.225 N 
ATOM     11  H6  UNL     1     -15.224  41.000   8.570  1.00  0.00     0.177 HD
BRANCH  10  12
HETATM   12  C4  UNL     1     -16.234  39.503   9.751  1.00  0.00     0.138 C 
BRANCH  12  13
HETATM   13  C5  UNL     1     -15.068  38.572   9.892  1.00  0.00     0.020 C 
BRANCH  13  14
HETATM   14  C6  UNL     1     -14.299  38.970  11.136  1.00  0.00     0.002 C 
BRANCH  14  15
HETATM   15  C7  UNL     1     -12.876  39.384  10.759  1.00  0.00     0.002 C 
BRANCH  15  16
HETATM   16  C8  UNL     1     -12.556  38.652   9.470  1.00  0.00     0.027 C 
BRANCH  16  17
HETATM   17  C9  UNL     1     -11.759  39.525   8.520  1.00  0.00     0.229 C 
BRANCH  17  18
HETATM   18  N7  UNL     1     -12.644  39.865   7.422  1.00  0.00    -0.079 N 
ATOM     19  H73 UNL     1     -13.461  40.400   7.715  1.00  0.00     0.274 HD
ATOM     20  H72 UNL     1     -12.252  40.563   6.791  1.00  0.00     0.274 HD
ATOM     21  H71 UNL     1     -12.883  38.989   6.956  1.00  0.00     0.274 HD
ENDBRANCH  17  18
ENDBRANCH  16  17
ENDBRANCH  15  16
ENDBRANCH  14  15
ENDBRANCH  13  14
ENDBRANCH  12  13
ENDBRANCH  10  12
ENDBRANCH   7  10
BRANCH   4  22
HETATM   22  N3  UNL     1     -16.041  45.347  10.075  1.00  0.00    -0.138 N 
ATOM     23  H3  UNL     1     -16.169  46.118  10.732  1.00  0.00     0.205 HD
BRANCH  22  24
HETATM   24  N4  UNL     1     -15.550  45.633   8.815  1.00  0.00    -0.331 N 
ATOM     25  H42 UNL     1     -16.008  45.185   8.021  1.00  0.00     0.177 HD
ATOM     26  H41 UNL     1     -14.764  46.261   8.650  1.00  0.00     0.177 HD
ENDBRANCH  22  24
ENDBRANCH   4  22
BRANCH   1  27
HETATM   27  N1  UNL     1     -18.056  42.536  13.036  1.00  0.00    -0.234 N 
ATOM     28  H12 UNL     1     -18.082  43.252  13.760  1.00  0.00     0.174 HD
ATOM     29  H11 UNL     1     -18.568  41.660  13.144  1.00  0.00     0.174 HD
ENDBRANCH   1  27
TORSDOF 11
ENDMDL
MODEL 5
REMARK VINA RESULT: -6.568364502      1.350      2.913
REMARK  11 active torsions:
REMARK  status: ('A' for Active; 'I' for Inactive)
REMARK    1  A    between atoms: N1_1  and  C1_4 
REMARK    2  A    between atoms: C2_7  and  N3_8 
REMARK    3  A    between atoms: N3_8  and  N4_10 
REMARK    4  A    between atoms: C3_15  and  N6_16 
REMARK    5  A    between atoms: N6_16  and  C4_18 
REMARK    6  A    between atoms: C4_18  and  C5_19 
REMARK    7  A    between atoms: C5_19  and  C6_20 
REMARK    8  A    between atoms: C6_20  and  C7_21 
REMARK    9  A    between atoms: C7_21  and  C8_22 
REMARK   10  A    between atoms: C8_22  and  C9_23 
REMARK   11  A    between atoms: C9_23  and  N7_24 
ROOT
HETATM    1  C1  UNL     1     -17.349  42.776  11.988  1.00  0.00     0.705 A 
HETATM    2  N2  UNL     1     -16.951  44.020  11.666  1.00  0.00    -0.020 N 
ATOM      3  H2  UNL     1     -17.116  44.808  12.292  1.00  0.00     0.203 HD
HETATM    4  C2  UNL     1     -16.325  44.186  10.486  1.00  0.00     0.725 A 
HETATM    5  N5  UNL     1     -16.105  43.145   9.661  1.00  0.00    -0.020 N 
ATOM      6  H5  UNL     1     -15.627  43.305   8.774  1.00  0.00     0.203 HD
HETATM    7  C3  UNL     1     -16.502  41.895   9.978  1.00  0.00     0.707 A 
HETATM    8  N8  UNL     1     -17.126  41.741  11.159  1.00  0.00    -0.022 N 
ATOM      9  H8  UNL     1     -17.441  40.812  11.434  1.00  0.00     0.203 HD
ENDROOT
BRANCH   7  10
HETATM   10  N6  UNL     1     -16.283  40.909   9.174  1.00  0.00    -0.225 N 
ATOM     11  H6  UNL     1     -16.014  41.083   8.206  1.00  0.00     0.177 HD
BRANCH  10  12
HETATM   12  C4  UNL     1     -16.423  39.547   9.664  1.00  0.00     0.138 C 
BRANCH  12  13
HETATM   13  C5  UNL     1     -15.662  38.562   8.830  1.00  0.00     0.020 C 
BRANCH  13  14
HETATM   14  C6  UNL     1     -14.389  38.206   9.573  1.00  0.00     0.002 C 
BRANCH  14  15
HETATM   15  C7  UNL     1     -13.221  39.031   9.032  1.00  0.00     0.002 C 
BRANCH  15  16
HETATM   16  C8  UNL     1     -12.599  39.712  10.235  1.00  0.00     0.027 C 
BRANCH  16  17
HETATM   17  C9  UNL     1     -13.396  39.444  11.497  1.00  0.00     0.229 C 
BRANCH  17  18
HETATM   18  N7  UNL     1     -13.483  40.703  12.212  1.00  0.00    -0.079 N 
ATOM     19  H73 UNL     1     -12.630  40.938  12.718  1.00  0.00     0.274 HD
ATOM     20  H72 UNL     1     -13.496  41.515  11.596  1.00  0.00     0.274 HD
ATOM     21  H71 UNL     1     -14.304  40.642  12.816  1.00  0.00     0.274 HD
ENDBRANCH  17  18
ENDBRANCH  16  17
ENDBRANCH  15  16
ENDBRANCH  14  15
ENDBRANCH  13  14
ENDBRANCH  12  13
ENDBRANCH  10  12
ENDBRANCH   7  10
BRANCH   4  22
HETATM   22  N3  UNL     1     -15.933  45.349  10.145  1.00  0.00    -0.138 N 
ATOM     23  H3  UNL     1     -15.874  46.071  10.863  1.00  0.00     0.205 HD
BRANCH  22  24
HETATM   24  N4  UNL     1     -15.584  45.680   8.849  1.00  0.00    -0.331 N 
ATOM     25  H42 UNL     1     -16.061  46.475   8.423  1.00  0.00     0.177 HD
ATOM     26  H41 UNL     1     -14.883  45.171   8.311  1.00  0.00     0.177 HD
ENDBRANCH  22  24
ENDBRANCH   4  22
BRANCH   1  27
HETATM   27  N1  UNL     1     -17.961  42.569  13.126  1.00  0.00    -0.234 N 
ATOM     28  H12 UNL     1     -18.748  43.162  13.387  1.00  0.00     0.174 HD
ATOM     29  H11 UNL     1     -17.645  41.816  13.737  1.00  0.00     0.174 HD
ENDBRANCH   1  27
TORSDOF 11
ENDMDL
