MODEL 1
REMARK VINA RESULT: -6.915193499      0.000      0.000
REMARK  8 active torsions:
REMARK  status: ('A' for Active; 'I' for Inactive)
REMARK    1  A    between atoms: C2_7  and  C3_8 
REMARK    2  A    between atoms: C3_8  and  N3_9 
REMARK    3  A    between atoms: C5_14  and  N4_15 
REMARK    4  A    between atoms: N4_15  and  C6_17 
REMARK    5  A    between atoms: C6_17  and  C7_18 
REMARK    6  A    between atoms: C7_18  and  C8_19 
REMARK    7  A    between atoms: C8_19  and  N5_20 
REMARK    8  A    between atoms: N5_20  and  C9_23 
ROOT
HETATM    1  N1  UNL     1     -15.533  45.477   8.966  1.00  0.00    -0.234 N 
ATOM      2  H11 UNL     1     -14.839  45.338   8.231  1.00  0.00     0.174 HD
ATOM      3  H12 UNL     1     -16.016  46.363   9.114  1.00  0.00     0.174 HD
HETATM    4  C1  UNL     1     -15.764  44.432   9.705  1.00  0.00     0.677 A 
HETATM    5  N2  UNL     1     -16.693  44.619  10.690  1.00  0.00    -0.194 N 
ATOM      6  H2  UNL     1     -17.162  45.515  10.818  1.00  0.00     0.184 HD
HETATM    7  C2  UNL     1     -16.960  43.565  11.484  1.00  0.00     0.055 A 
HETATM    8  C4  UNL     1     -16.324  42.371  11.298  1.00  0.00     0.076 A 
HETATM    9  C5  UNL     1     -15.394  42.217  10.300  1.00  0.00     0.118 A 
HETATM   10  N7  UNL     1     -15.129  43.265   9.511  1.00  0.00    -0.177 N 
ATOM     11  H7  UNL     1     -14.443  43.178   8.761  1.00  0.00     0.185 HD
ENDROOT
BRANCH   9  12
HETATM   12  N4  UNL     1     -14.833  41.086  10.190  1.00  0.00    -0.376 N 
ATOM     13  H4  UNL     1     -14.613  40.798   9.237  1.00  0.00     0.161 HD
BRANCH  12  14
HETATM   14  C6  UNL     1     -14.465  40.159  11.206  1.00  0.00     0.123 C 
BRANCH  14  15
HETATM   15  C7  UNL     1     -14.734  38.751  10.719  1.00  0.00     0.047 C 
BRANCH  15  16
HETATM   16  C8  UNL     1     -14.074  38.590   9.364  1.00  0.00     0.234 C 
BRANCH  16  17
HETATM   17  N5  UNL     1     -13.057  37.556   9.426  1.00  0.00    -0.068 N 
ATOM     18  H52 UNL     1     -12.937  37.199  10.374  1.00  0.00     0.277 HD
ATOM     19  H51 UNL     1     -13.365  36.694   8.977  1.00  0.00     0.277 HD
BRANCH  17  20
HETATM   20  C9  UNL     1     -11.831  38.031   8.878  1.00  0.00     0.236 C 
HETATM   21  C10 UNL     1     -10.704  37.947   9.886  1.00  0.00     0.267 C 
HETATM   22  N6  UNL     1     -10.219  39.231   9.380  1.00  0.00    -0.071 N 
HETATM   23  C11 UNL     1     -11.585  39.504   8.946  1.00  0.00     0.267 C 
ATOM     24  H62 UNL     1      -9.719  39.881   9.986  1.00  0.00     0.277 HD
ATOM     25  H61 UNL     1      -9.439  39.279   8.724  1.00  0.00     0.277 HD
ENDBRANCH  17  20
ENDBRANCH  16  17
ENDBRANCH  15  16
ENDBRANCH  14  15
ENDBRANCH  12  14
ENDBRANCH   9  12
BRANCH   7  26
HETATM   26  C3  UNL     1     -17.946  43.686  12.592  1.00  0.00     0.287 C 
BRANCH  26  27
HETATM   27  N3  UNL     1     -18.088  42.397  13.216  1.00  0.00    -0.074 N 
ATOM     28  H33 UNL     1     -17.258  41.813  13.106  1.00  0.00     0.274 HD
ATOM     29  H32 UNL     1     -18.085  42.451  14.234  1.00  0.00     0.274 HD
ATOM     30  H31 UNL     1     -18.931  41.953  12.850  1.00  0.00     0.274 HD
ENDBRANCH  26  27
ENDBRANCH   7  26
TORSDOF 8
ENDMDL
MODEL 2
REMARK VINA RESULT: -6.911740265      1.080      2.590
REMARK  8 active torsions:
REMARK  status: ('A' for Active; 'I' for Inactive)
REMARK    1  A    between atoms: C2_7  and  C3_8 
REMARK    2  A    between atoms: C3_8  and  N3_9 
REMARK    3  A    between atoms: C5_14  and  N4_15 
REMARK    4  A    between atoms: N4_15  and  C6_17 
REMARK    5  A    between atoms: C6_17  and  C7_18 
REMARK    6  A    between atoms: C7_18  and  C8_19 
REMARK    7  A    between atoms: C8_19  and  N5_20 
REMARK    8  A    between atoms: N5_20  and  C9_23 
ROOT
HETATM    1  N1  UNL     1     -18.038  42.547  13.118  1.00  0.00    -0.234 N 
ATOM      2  H11 UNL     1     -18.135  41.620  13.531  1.00  0.00     0.174 HD
ATOM      3  H12 UNL     1     -18.453  43.384  13.527  1.00  0.00     0.174 HD
HETATM    4  C1  UNL     1     -17.334  42.587  12.025  1.00  0.00     0.677 A 
HETATM    5  N2  UNL     1     -17.203  43.831  11.472  1.00  0.00    -0.194 N 
ATOM      6  H2  UNL     1     -17.629  44.652  11.900  1.00  0.00     0.184 HD
HETATM    7  C2  UNL     1     -16.487  43.921  10.335  1.00  0.00     0.055 A 
HETATM    8  C4  UNL     1     -15.923  42.810   9.776  1.00  0.00     0.076 A 
HETATM    9  C5  UNL     1     -16.074  41.575  10.357  1.00  0.00     0.118 A 
HETATM   10  N7  UNL     1     -16.786  41.487  11.487  1.00  0.00    -0.177 N 
ATOM     11  H7  UNL     1     -16.913  40.582  11.939  1.00  0.00     0.185 HD
ENDROOT
BRANCH   9  12
HETATM   12  N4  UNL     1     -15.534  40.585   9.779  1.00  0.00    -0.376 N 
ATOM     13  H4  UNL     1     -14.514  40.588   9.769  1.00  0.00     0.161 HD
BRANCH  12  14
HETATM   14  C6  UNL     1     -16.145  39.469   9.142  1.00  0.00     0.123 C 
BRANCH  14  15
HETATM   15  C7  UNL     1     -15.258  38.253   9.305  1.00  0.00     0.047 C 
BRANCH  15  16
HETATM   16  C8  UNL     1     -13.872  38.732   9.691  1.00  0.00     0.234 C 
BRANCH  16  17
HETATM   17  N5  UNL     1     -12.877  37.756   9.287  1.00  0.00    -0.068 N 
ATOM     18  H52 UNL     1     -12.635  37.123  10.049  1.00  0.00     0.277 HD
ATOM     19  H51 UNL     1     -13.261  37.069   8.637  1.00  0.00     0.277 HD
BRANCH  17  20
HETATM   20  C9  UNL     1     -11.729  38.408   8.752  1.00  0.00     0.236 C 
HETATM   21  C10 UNL     1     -10.539  38.283   9.680  1.00  0.00     0.267 C 
HETATM   22  N6  UNL     1     -10.190  39.663   9.339  1.00  0.00    -0.071 N 
HETATM   23  C11 UNL     1     -11.597  39.872   9.019  1.00  0.00     0.267 C 
ATOM     24  H62 UNL     1      -9.707  40.264  10.007  1.00  0.00     0.277 HD
ATOM     25  H61 UNL     1      -9.458  39.869   8.659  1.00  0.00     0.277 HD
ENDBRANCH  17  20
ENDBRANCH  16  17
ENDBRANCH  15  16
ENDBRANCH  14  15
ENDBRANCH  12  14
ENDBRANCH   9  12
BRANCH   7  26
HETATM   26  C3  UNL     1     -16.310  45.232   9.657  1.00  0.00     0.287 C 
BRANCH  26  27
HETATM   27  N3  UNL     1     -15.035  45.229   8.989  1.00  0.00    -0.074 N 
ATOM     28  H33 UNL     1     -14.472  46.050   9.213  1.00  0.00     0.274 HD
ATOM     29  H32 UNL     1     -14.400  44.521   9.357  1.00  0.00     0.274 HD
ATOM     30  H31 UNL     1     -15.197  45.126   7.987  1.00  0.00     0.274 HD
ENDBRANCH  26  27
ENDBRANCH   7  26
TORSDOF 8
ENDMDL
MODEL 3
REMARK VINA RESULT: -6.814555167      1.652      2.669
REMARK  8 active torsions:
REMARK  status: ('A' for Active; 'I' for Inactive)
REMARK    1  A    between atoms: C2_7  and  C3_8 
REMARK    2  A    between atoms: C3_8  and  N3_9 
REMARK    3  A    between atoms: C5_14  and  N4_15 
REMARK    4  A    between atoms: N4_15  and  C6_17 
REMARK    5  A    between atoms: C6_17  and  C7_18 
REMARK    6  A    between atoms: C7_18  and  C8_19 
REMARK    7  A    between atoms: C8_19  and  N5_20 
REMARK    8  A    between atoms: N5_20  and  C9_23 
ROOT
HETATM    1  N1  UNL     1     -17.716  43.830  12.742  1.00  0.00    -0.234 N 
ATOM      2  H11 UNL     1     -17.338  43.179  13.430  1.00  0.00     0.174 HD
ATOM      3  H12 UNL     1     -18.168  44.708  12.996  1.00  0.00     0.174 HD
HETATM    4  C1  UNL     1     -17.574  43.458  11.503  1.00  0.00     0.677 A 
HETATM    5  N2  UNL     1     -18.082  44.329  10.581  1.00  0.00    -0.194 N 
ATOM      6  H2  UNL     1     -18.530  45.201  10.861  1.00  0.00     0.184 HD
HETATM    7  C2  UNL     1     -17.963  43.983   9.285  1.00  0.00     0.055 A 
HETATM    8  C4  UNL     1     -17.359  42.812   8.928  1.00  0.00     0.076 A 
HETATM    9  C5  UNL     1     -16.861  41.958   9.880  1.00  0.00     0.118 A 
HETATM   10  N7  UNL     1     -16.979  42.302  11.168  1.00  0.00    -0.177 N 
ATOM     11  H7  UNL     1     -16.617  41.687  11.895  1.00  0.00     0.185 HD
ENDROOT
BRANCH   9  12
HETATM   12  N4  UNL     1     -16.323  40.882   9.479  1.00  0.00    -0.376 N 
ATOM     13  H4  UNL     1     -16.230  40.790   8.468  1.00  0.00     0.161 HD
BRANCH  12  14
HETATM   14  C6  UNL     1     -15.830  39.783  10.238  1.00  0.00     0.123 C 
BRANCH  14  15
HETATM   15  C7  UNL     1     -15.212  38.767   9.301  1.00  0.00     0.047 C 
BRANCH  15  16
HETATM   16  C8  UNL     1     -13.707  38.944   9.347  1.00  0.00     0.234 C 
BRANCH  16  17
HETATM   17  N5  UNL     1     -13.055  37.648   9.395  1.00  0.00    -0.068 N 
ATOM     18  H52 UNL     1     -13.164  37.202  10.305  1.00  0.00     0.277 HD
ATOM     19  H51 UNL     1     -13.544  36.956   8.827  1.00  0.00     0.277 HD
BRANCH  17  20
HETATM   20  C9  UNL     1     -11.685  37.766   9.022  1.00  0.00     0.236 C 
HETATM   21  C10 UNL     1     -10.771  37.176  10.076  1.00  0.00     0.267 C 
HETATM   22  N6  UNL     1      -9.851  38.288   9.832  1.00  0.00    -0.071 N 
HETATM   23  C11 UNL     1     -11.001  39.052   9.359  1.00  0.00     0.267 C 
ATOM     24  H62 UNL     1      -9.250  38.646  10.575  1.00  0.00     0.277 HD
ATOM     25  H61 UNL     1      -9.022  38.168   9.250  1.00  0.00     0.277 HD
ENDBRANCH  17  20
ENDBRANCH  16  17
ENDBRANCH  15  16
ENDBRANCH  14  15
ENDBRANCH  12  14
ENDBRANCH   9  12
BRANCH   7  26
HETATM   26  C3  UNL     1     -18.503  44.865   8.216  1.00  0.00     0.287 C 
BRANCH  26  27
HETATM   27  N3  UNL     1     -17.406  45.315   7.401  1.00  0.00    -0.074 N 
ATOM     28  H33 UNL     1     -16.653  45.730   7.950  1.00  0.00     0.274 HD
ATOM     29  H32 UNL     1     -16.874  44.544   6.997  1.00  0.00     0.274 HD
ATOM     30  H31 UNL     1     -17.771  45.952   6.692  1.00  0.00     0.274 HD
ENDBRANCH  26  27
ENDBRANCH   7  26
TORSDOF 8
ENDMDL
MODEL 4
REMARK VINA RESULT: -6.785078484      1.989      6.514
REMARK  8 active torsions:
REMARK  status: ('A' for Active; 'I' for Inactive)
REMARK    1  A    between atoms: C2_7  and  C3_8 
REMARK    2  A    between atoms: C3_8  and  N3_9 
REMARK    3  A    between atoms: C5_14  and  N4_15 
REMARK    4  A    between atoms: N4_15  and  C6_17 
REMARK    5  A    between atoms: C6_17  and  C7_18 
REMARK    6  A    between atoms: C7_18  and  C8_19 
REMARK    7  A    between atoms: C8_19  and  N5_20 
REMARK    8  A    between atoms: N5_20  and  C9_23 
ROOT
HETATM    1  N1  UNL     1     -12.065  38.406  11.301  1.00  0.00    -0.234 N 
ATOM      2  H11 UNL     1     -11.486  38.823  12.031  1.00  0.00     0.174 HD
ATOM      3  H12 UNL     1     -11.777  37.590  10.763  1.00  0.00     0.174 HD
HETATM    4  C1  UNL     1     -13.209  38.995  11.109  1.00  0.00     0.677 A 
HETATM    5  N2  UNL     1     -13.984  38.437  10.131  1.00  0.00    -0.194 N 
ATOM      6  H2  UNL     1     -13.674  37.620   9.606  1.00  0.00     0.184 HD
HETATM    7  C2  UNL     1     -15.176  39.016   9.893  1.00  0.00     0.055 A 
HETATM    8  C4  UNL     1     -15.576  40.109  10.607  1.00  0.00     0.076 A 
HETATM    9  C5  UNL     1     -14.773  40.646  11.582  1.00  0.00     0.118 A 
HETATM   10  N7  UNL     1     -13.588  40.070  11.818  1.00  0.00    -0.177 N 
ATOM     11  H7  UNL     1     -12.972  40.447  12.538  1.00  0.00     0.185 HD
ENDROOT
BRANCH   9  12
HETATM   12  N4  UNL     1     -15.201  41.668  12.198  1.00  0.00    -0.376 N 
ATOM     13  H4  UNL     1     -14.828  41.798  13.138  1.00  0.00     0.161 HD
BRANCH  12  14
HETATM   14  C6  UNL     1     -16.127  42.658  11.768  1.00  0.00     0.123 C 
BRANCH  14  15
HETATM   15  C7  UNL     1     -15.367  43.869  11.268  1.00  0.00     0.047 C 
BRANCH  15  16
HETATM   16  C8  UNL     1     -15.358  43.823   9.753  1.00  0.00     0.234 C 
BRANCH  16  17
HETATM   17  N5  UNL     1     -15.730  45.118   9.213  1.00  0.00    -0.068 N 
ATOM     18  H52 UNL     1     -15.489  45.877   9.849  1.00  0.00     0.277 HD
ATOM     19  H51 UNL     1     -15.139  45.385   8.426  1.00  0.00     0.277 HD
BRANCH  17  20
HETATM   20  C9  UNL     1     -17.112  45.134   8.868  1.00  0.00     0.236 C 
HETATM   21  C10 UNL     1     -17.607  43.751   8.497  1.00  0.00     0.267 C 
HETATM   22  N6  UNL     1     -18.409  44.373   7.443  1.00  0.00    -0.071 N 
HETATM   23  C11 UNL     1     -17.452  45.474   7.452  1.00  0.00     0.267 C 
ATOM     24  H62 UNL     1     -18.626  43.872   6.582  1.00  0.00     0.277 HD
ATOM     25  H61 UNL     1     -19.408  44.541   7.570  1.00  0.00     0.277 HD
ENDBRANCH  17  20
ENDBRANCH  16  17
ENDBRANCH  15  16
ENDBRANCH  14  15
ENDBRANCH  12  14
ENDBRANCH   9  12
BRANCH   7  26
HETATM   26  C3  UNL     1     -16.075  38.484   8.834  1.00  0.00     0.287 C 
BRANCH  26  27
HETATM   27  N3  UNL     1     -15.773  39.161   7.600  1.00  0.00    -0.074 N 
ATOM     28  H33 UNL     1     -16.318  40.015   7.477  1.00  0.00     0.274 HD
ATOM     29  H32 UNL     1     -14.847  39.587   7.602  1.00  0.00     0.274 HD
ATOM     30  H31 UNL     1     -15.899  38.501   6.832  1.00  0.00     0.274 HD
ENDBRANCH  26  27
ENDBRANCH   7  26
TORSDOF 8
ENDMDL
MODEL 5
REMARK VINA RESULT: -6.766292538      1.789      2.499
REMARK  8 active torsions:
REMARK  status: ('A' for Active; 'I' for Inactive)
REMARK    1  A    between atoms: C2_7  and  C3_8 
REMARK    2  A    between atoms: C3_8  and  N3_9 
REMARK    3  A    between atoms: C5_14  and  N4_15 
REMARK    4  A    between atoms: N4_15  and  C6_17 
REMARK    5  A    between atoms: C6_17  and  C7_18 
REMARK    6  A    between atoms: C7_18  and  C8_19 
REMARK    7  A    between atoms: C8_19  and  N5_20 
REMARK    8  A    between atoms: N5_20  and  C9_23 
ROOT
HETATM    1  N1  UNL     1     -14.986  44.864  11.042  1.00  0.00    -0.234 N 
ATOM      2  H11 UNL     1     -14.264  44.325  11.519  1.00  0.00     0.174 HD
ATOM      3  H12 UNL     1     -15.057  45.879  11.107  1.00  0.00     0.174 HD
HETATM    4  C1  UNL     1     -15.817  44.156  10.333  1.00  0.00     0.677 A 
HETATM    5  N2  UNL     1     -16.786  44.878   9.694  1.00  0.00    -0.194 N 
ATOM      6  H2  UNL     1     -16.835  45.893   9.775  1.00  0.00     0.184 HD
HETATM    7  C2  UNL     1     -17.672  44.186   8.953  1.00  0.00     0.055 A 
HETATM    8  C4  UNL     1     -17.590  42.827   8.855  1.00  0.00     0.076 A 
HETATM    9  C5  UNL     1     -16.605  42.132   9.511  1.00  0.00     0.118 A 
HETATM   10  N7  UNL     1     -15.724  42.820  10.248  1.00  0.00    -0.177 N 
ATOM     11  H7  UNL     1     -14.982  42.328  10.745  1.00  0.00     0.185 HD
ENDROOT
BRANCH   9  12
HETATM   12  N4  UNL     1     -16.594  40.870   9.386  1.00  0.00    -0.376 N 
ATOM     13  H4  UNL     1     -17.179  40.501   8.637  1.00  0.00     0.161 HD
BRANCH  12  14
HETATM   14  C6  UNL     1     -15.885  39.895  10.141  1.00  0.00     0.123 C 
BRANCH  14  15
HETATM   15  C7  UNL     1     -15.371  38.818   9.210  1.00  0.00     0.047 C 
BRANCH  15  16
HETATM   16  C8  UNL     1     -13.866  38.735   9.375  1.00  0.00     0.234 C 
BRANCH  16  17
HETATM   17  N5  UNL     1     -13.209  39.550   8.371  1.00  0.00    -0.068 N 
ATOM     18  H52 UNL     1     -13.674  39.485   7.465  1.00  0.00     0.277 HD
ATOM     19  H51 UNL     1     -13.346  40.546   8.541  1.00  0.00     0.277 HD
BRANCH  17  20
HETATM   20  C9  UNL     1     -11.827  39.213   8.283  1.00  0.00     0.236 C 
HETATM   21  C10 UNL     1     -11.487  38.033   9.170  1.00  0.00     0.267 C 
HETATM   22  N6  UNL     1     -10.229  38.705   9.498  1.00  0.00    -0.071 N 
HETATM   23  C11 UNL     1     -10.889  39.964   9.172  1.00  0.00     0.267 C 
ATOM     24  H62 UNL     1      -9.778  38.566  10.402  1.00  0.00     0.277 HD
ATOM     25  H61 UNL     1      -9.354  38.436   9.046  1.00  0.00     0.277 HD
ENDBRANCH  17  20
ENDBRANCH  16  17
ENDBRANCH  15  16
ENDBRANCH  14  15
ENDBRANCH  12  14
ENDBRANCH   9  12
BRANCH   7  26
HETATM   26  C3  UNL     1     -18.770  44.891   8.238  1.00  0.00     0.287 C 
BRANCH  26  27
HETATM   27  N3  UNL     1     -18.309  45.223   6.915  1.00  0.00    -0.074 N 
ATOM     28  H33 UNL     1     -18.290  46.230   6.747  1.00  0.00     0.274 HD
ATOM     29  H32 UNL     1     -17.314  45.043   6.789  1.00  0.00     0.274 HD
ATOM     30  H31 UNL     1     -18.887  44.724   6.238  1.00  0.00     0.274 HD
ENDBRANCH  26  27
ENDBRANCH   7  26
TORSDOF 8
ENDMDL
