MODEL 1
REMARK VINA RESULT: -8.385895408      0.000      0.000
REMARK  5 active torsions:
REMARK  status: ('A' for Active; 'I' for Inactive)
REMARK       I    between atoms: N2_3  and  C2_5 
REMARK       I    between atoms: C2_5  and  N4_9 
REMARK    1  A    between atoms: N4_9  and  C3_11 
REMARK    2  A    between atoms: C3_11  and  C4_12 
REMARK    3  A    between atoms: C4_12  and  C5_13 
REMARK    4  A    between atoms: C5_13  and  C6_14 
REMARK    5  A    between atoms: C6_14  and  C7_15 
ROOT
HETATM    1  N1  UNL     1      -8.392  36.780  10.420  1.00  0.00    -0.171 NA
HETATM    2  C1  UNL     1      -9.507  37.055  10.621  1.00  0.00     0.196 C 
HETATM    3  N2  UNL     1     -10.861  37.406  10.845  1.00  0.00    -0.127 N 
ATOM      4  H2  UNL     1     -11.167  37.834  11.718  1.00  0.00     0.197 HD
HETATM    5  C2  UNL     1     -11.766  37.131   9.795  1.00  0.00     0.680 C 
HETATM    6  N3  UNL     1     -11.660  35.946   9.253  1.00  0.00    -0.234 N 
ATOM      7  H31 UNL     1     -12.313  35.748   8.495  1.00  0.00     0.174 HD
ATOM      8  H32 UNL     1     -10.946  35.315   9.615  1.00  0.00     0.174 HD
HETATM    9  N4  UNL     1     -12.748  38.000   9.297  1.00  0.00    -0.226 N 
ATOM     10  H4  UNL     1     -13.333  37.700   8.517  1.00  0.00     0.177 HD
ENDROOT
BRANCH   9  11
HETATM   11  C3  UNL     1     -12.943  39.304   9.866  1.00  0.00     0.138 C 
BRANCH  11  12
HETATM   12  C4  UNL     1     -13.936  39.338  10.993  1.00  0.00     0.020 C 
BRANCH  12  13
HETATM   13  C5  UNL     1     -15.229  40.051  10.627  1.00  0.00     0.004 C 
BRANCH  13  14
HETATM   14  C6  UNL     1     -15.250  41.464  11.080  1.00  0.00     0.033 C 
BRANCH  14  15
HETATM   15  C7  UNL     1     -16.310  42.261  10.372  1.00  0.00     0.151 A 
HETATM   16  N5  UNL     1     -15.708  43.312   9.564  1.00  0.00    -0.353 N 
HETATM   17  C8  UNL     1     -16.148  44.461   9.899  1.00  0.00     0.190 A 
ATOM     18  H5  UNL     1     -15.023  43.151   8.827  1.00  0.00     0.163 HD
HETATM   19  N6  UNL     1     -15.753  45.717   9.299  1.00  0.00    -0.063 NA
HETATM   20  N7  UNL     1     -17.123  44.365  10.926  1.00  0.00    -0.319 N 
HETATM   21  C9  UNL     1     -17.253  42.978  11.206  1.00  0.00     0.100 A 
ATOM     22  H7  UNL     1     -17.626  45.134  11.371  1.00  0.00     0.169 HD
HETATM   23  N8  UNL     1     -18.102  42.533  12.056  1.00  0.00    -0.387 N 
ATOM     24  H82 UNL     1     -18.196  41.537  12.257  1.00  0.00     0.157 HD
ATOM     25  H81 UNL     1     -18.766  43.037  12.643  1.00  0.00     0.157 HD
ENDBRANCH  14  15
ENDBRANCH  13  14
ENDBRANCH  12  13
ENDBRANCH  11  12
ENDBRANCH   9  11
TORSDOF 5
ENDMDL
MODEL 2
REMARK VINA RESULT: -8.115586747      1.361      1.916
REMARK  5 active torsions:
REMARK  status: ('A' for Active; 'I' for Inactive)
REMARK       I    between atoms: N2_3  and  C2_5 
REMARK       I    between atoms: C2_5  and  N4_9 
REMARK    1  A    between atoms: N4_9  and  C3_11 
REMARK    2  A    between atoms: C3_11  and  C4_12 
REMARK    3  A    between atoms: C4_12  and  C5_13 
REMARK    4  A    between atoms: C5_13  and  C6_14 
REMARK    5  A    between atoms: C6_14  and  C7_15 
ROOT
HETATM    1  N1  UNL     1      -9.860  38.842   9.739  1.00  0.00    -0.171 NA
HETATM    2  C1  UNL     1     -10.927  38.547   9.372  1.00  0.00     0.196 C 
HETATM    3  N2  UNL     1     -12.231  38.206   8.939  1.00  0.00    -0.127 N 
ATOM      4  H2  UNL     1     -12.614  37.270   9.073  1.00  0.00     0.197 HD
HETATM    5  C2  UNL     1     -12.978  39.231   8.314  1.00  0.00     0.680 C 
HETATM    6  N3  UNL     1     -12.337  39.924   7.409  1.00  0.00    -0.234 N 
ATOM      7  H31 UNL     1     -12.875  40.664   6.958  1.00  0.00     0.174 HD
ATOM      8  H32 UNL     1     -11.364  39.684   7.220  1.00  0.00     0.174 HD
HETATM    9  N4  UNL     1     -14.315  39.561   8.574  1.00  0.00    -0.226 N 
ATOM     10  H4  UNL     1     -14.746  40.339   8.075  1.00  0.00     0.177 HD
ENDROOT
BRANCH   9  11
HETATM   11  C3  UNL     1     -15.090  38.821   9.532  1.00  0.00     0.138 C 
BRANCH  11  12
HETATM   12  C4  UNL     1     -15.681  39.666  10.625  1.00  0.00     0.020 C 
BRANCH  12  13
HETATM   13  C5  UNL     1     -14.633  40.429  11.421  1.00  0.00     0.004 C 
BRANCH  13  14
HETATM   14  C6  UNL     1     -15.056  41.815  11.742  1.00  0.00     0.033 C 
BRANCH  14  15
HETATM   15  C7  UNL     1     -16.064  42.334  10.754  1.00  0.00     0.151 A 
HETATM   16  N5  UNL     1     -15.465  43.340   9.890  1.00  0.00    -0.353 N 
HETATM   17  C8  UNL     1     -16.100  44.443   9.957  1.00  0.00     0.190 A 
ATOM     18  H5  UNL     1     -14.643  43.184   9.306  1.00  0.00     0.163 HD
HETATM   19  N6  UNL     1     -15.765  45.648   9.229  1.00  0.00    -0.063 NA
HETATM   20  N7  UNL     1     -17.223  44.345  10.819  1.00  0.00    -0.319 N 
HETATM   21  C9  UNL     1     -17.224  43.008  11.299  1.00  0.00     0.100 A 
ATOM     22  H7  UNL     1     -17.891  45.082  11.046  1.00  0.00     0.169 HD
HETATM   23  N8  UNL     1     -18.149  42.562  12.066  1.00  0.00    -0.387 N 
ATOM     24  H82 UNL     1     -18.150  41.602  12.411  1.00  0.00     0.157 HD
ATOM     25  H81 UNL     1     -18.966  43.036  12.449  1.00  0.00     0.157 HD
ENDBRANCH  14  15
ENDBRANCH  13  14
ENDBRANCH  12  13
ENDBRANCH  11  12
ENDBRANCH   9  11
TORSDOF 5
ENDMDL
MODEL 3
REMARK VINA RESULT: -8.105753702      0.949      1.154
REMARK  5 active torsions:
REMARK  status: ('A' for Active; 'I' for Inactive)
REMARK       I    between atoms: N2_3  and  C2_5 
REMARK       I    between atoms: C2_5  and  N4_9 
REMARK    1  A    between atoms: N4_9  and  C3_11 
REMARK    2  A    between atoms: C3_11  and  C4_12 
REMARK    3  A    between atoms: C4_12  and  C5_13 
REMARK    4  A    between atoms: C5_13  and  C6_14 
REMARK    5  A    between atoms: C6_14  and  C7_15 
ROOT
HETATM    1  N1  UNL     1      -9.010  36.554  11.253  1.00  0.00    -0.171 NA
HETATM    2  C1  UNL     1      -9.922  36.869  10.599  1.00  0.00     0.196 C 
HETATM    3  N2  UNL     1     -11.039  37.265   9.824  1.00  0.00    -0.127 N 
ATOM      4  H2  UNL     1     -11.669  36.583   9.403  1.00  0.00     0.197 HD
HETATM    5  C2  UNL     1     -11.236  38.656   9.664  1.00  0.00     0.680 C 
HETATM    6  N3  UNL     1     -10.169  39.346   9.357  1.00  0.00    -0.234 N 
ATOM      7  H31 UNL     1     -10.310  40.349   9.242  1.00  0.00     0.174 HD
ATOM      8  H32 UNL     1      -9.286  38.846   9.256  1.00  0.00     0.174 HD
HETATM    9  N4  UNL     1     -12.450  39.344   9.803  1.00  0.00    -0.226 N 
ATOM     10  H4  UNL     1     -12.468  40.357   9.686  1.00  0.00     0.177 HD
ENDROOT
BRANCH   9  11
HETATM   11  C3  UNL     1     -13.668  38.647  10.108  1.00  0.00     0.138 C 
BRANCH  11  12
HETATM   12  C4  UNL     1     -14.398  39.184  11.306  1.00  0.00     0.020 C 
BRANCH  12  13
HETATM   13  C5  UNL     1     -15.590  40.055  10.937  1.00  0.00     0.004 C 
BRANCH  13  14
HETATM   14  C6  UNL     1     -15.266  41.503  10.951  1.00  0.00     0.033 C 
BRANCH  14  15
HETATM   15  C7  UNL     1     -16.334  42.321  10.280  1.00  0.00     0.151 A 
HETATM   16  N5  UNL     1     -15.741  43.384   9.483  1.00  0.00    -0.353 N 
HETATM   17  C8  UNL     1     -16.168  44.528   9.849  1.00  0.00     0.190 A 
ATOM     18  H5  UNL     1     -15.071  43.234   8.729  1.00  0.00     0.163 HD
HETATM   19  N6  UNL     1     -15.776  45.794   9.267  1.00  0.00    -0.063 NA
HETATM   20  N7  UNL     1     -17.123  44.418  10.893  1.00  0.00    -0.319 N 
HETATM   21  C9  UNL     1     -17.257  43.026  11.147  1.00  0.00     0.100 A 
ATOM     22  H7  UNL     1     -17.613  45.179  11.363  1.00  0.00     0.169 HD
HETATM   23  N8  UNL     1     -18.092  42.568  12.004  1.00  0.00    -0.387 N 
ATOM     24  H82 UNL     1     -18.188  41.569  12.187  1.00  0.00     0.157 HD
ATOM     25  H81 UNL     1     -18.742  43.064  12.614  1.00  0.00     0.157 HD
ENDBRANCH  14  15
ENDBRANCH  13  14
ENDBRANCH  12  13
ENDBRANCH  11  12
ENDBRANCH   9  11
TORSDOF 5
ENDMDL
MODEL 4
REMARK VINA RESULT: -8.063784811      1.507      1.660
REMARK  5 active torsions:
REMARK  status: ('A' for Active; 'I' for Inactive)
REMARK       I    between atoms: N2_3  and  C2_5 
REMARK       I    between atoms: C2_5  and  N4_9 
REMARK    1  A    between atoms: N4_9  and  C3_11 
REMARK    2  A    between atoms: C3_11  and  C4_12 
REMARK    3  A    between atoms: C4_12  and  C5_13 
REMARK    4  A    between atoms: C5_13  and  C6_14 
REMARK    5  A    between atoms: C6_14  and  C7_15 
ROOT
HETATM    1  N1  UNL     1      -9.805  39.295   7.648  1.00  0.00    -0.171 NA
HETATM    2  C1  UNL     1     -10.669  39.206   8.425  1.00  0.00     0.196 C 
HETATM    3  N2  UNL     1     -11.735  39.093   9.351  1.00  0.00    -0.127 N 
ATOM      4  H2  UNL     1     -11.984  39.857   9.979  1.00  0.00     0.197 HD
HETATM    5  C2  UNL     1     -12.438  37.866   9.359  1.00  0.00     0.680 C 
HETATM    6  N3  UNL     1     -11.695  36.790   9.347  1.00  0.00    -0.234 N 
ATOM      7  H31 UNL     1     -12.202  35.905   9.352  1.00  0.00     0.174 HD
ATOM      8  H32 UNL     1     -10.682  36.905   9.333  1.00  0.00     0.174 HD
HETATM    9  N4  UNL     1     -13.831  37.707   9.379  1.00  0.00    -0.226 N 
ATOM     10  H4  UNL     1     -14.228  36.768   9.360  1.00  0.00     0.177 HD
ENDROOT
BRANCH   9  11
HETATM   11  C3  UNL     1     -14.707  38.844   9.425  1.00  0.00     0.138 C 
BRANCH  11  12
HETATM   12  C4  UNL     1     -15.097  39.261  10.815  1.00  0.00     0.020 C 
BRANCH  12  13
HETATM   13  C5  UNL     1     -14.292  40.445  11.330  1.00  0.00     0.004 C 
BRANCH  13  14
HETATM   14  C6  UNL     1     -15.129  41.433  12.054  1.00  0.00     0.033 C 
BRANCH  14  15
HETATM   15  C7  UNL     1     -16.114  42.107  11.140  1.00  0.00     0.151 A 
HETATM   16  N5  UNL     1     -15.481  43.201  10.419  1.00  0.00    -0.353 N 
HETATM   17  C8  UNL     1     -16.086  44.303  10.630  1.00  0.00     0.190 A 
ATOM     18  H5  UNL     1     -14.660  43.100   9.823  1.00  0.00     0.163 HD
HETATM   19  N6  UNL     1     -15.713  45.584  10.069  1.00  0.00    -0.063 NA
HETATM   20  N7  UNL     1     -17.218  44.124  11.467  1.00  0.00    -0.319 N 
HETATM   21  C9  UNL     1     -17.260  42.735  11.766  1.00  0.00     0.100 A 
ATOM     22  H7  UNL     1     -17.867  44.843  11.788  1.00  0.00     0.169 HD
HETATM   23  N8  UNL     1     -18.203  42.218  12.463  1.00  0.00    -0.387 N 
ATOM     24  H82 UNL     1     -18.233  41.222  12.678  1.00  0.00     0.157 HD
ATOM     25  H81 UNL     1     -19.009  42.661  12.903  1.00  0.00     0.157 HD
ENDBRANCH  14  15
ENDBRANCH  13  14
ENDBRANCH  12  13
ENDBRANCH  11  12
ENDBRANCH   9  11
TORSDOF 5
ENDMDL
MODEL 5
REMARK VINA RESULT: -7.918777386      1.170      2.108
REMARK  5 active torsions:
REMARK  status: ('A' for Active; 'I' for Inactive)
REMARK       I    between atoms: N2_3  and  C2_5 
REMARK       I    between atoms: C2_5  and  N4_9 
REMARK    1  A    between atoms: N4_9  and  C3_11 
REMARK    2  A    between atoms: C3_11  and  C4_12 
REMARK    3  A    between atoms: C4_12  and  C5_13 
REMARK    4  A    between atoms: C5_13  and  C6_14 
REMARK    5  A    between atoms: C6_14  and  C7_15 
ROOT
HETATM    1  N1  UNL     1      -8.338  36.792  10.424  1.00  0.00    -0.171 NA
HETATM    2  C1  UNL     1      -9.472  36.993  10.610  1.00  0.00     0.196 C 
HETATM    3  N2  UNL     1     -10.849  37.251  10.815  1.00  0.00    -0.127 N 
ATOM      4  H2  UNL     1     -11.196  37.652  11.686  1.00  0.00     0.197 HD
HETATM    5  C2  UNL     1     -11.719  36.924   9.750  1.00  0.00     0.680 C 
HETATM    6  N3  UNL     1     -11.526  35.752   9.202  1.00  0.00    -0.234 N 
ATOM      7  H31 UNL     1     -12.153  35.516   8.434  1.00  0.00     0.174 HD
ATOM      8  H32 UNL     1     -10.778  35.167   9.572  1.00  0.00     0.174 HD
HETATM    9  N4  UNL     1     -12.748  37.729   9.241  1.00  0.00    -0.226 N 
ATOM     10  H4  UNL     1     -13.301  37.397   8.451  1.00  0.00     0.177 HD
ENDROOT
BRANCH   9  11
HETATM   11  C3  UNL     1     -13.038  39.014   9.814  1.00  0.00     0.138 C 
BRANCH  11  12
HETATM   12  C4  UNL     1     -14.055  38.976  10.920  1.00  0.00     0.020 C 
BRANCH  12  13
HETATM   13  C5  UNL     1     -14.506  40.360  11.363  1.00  0.00     0.004 C 
BRANCH  13  14
HETATM   14  C6  UNL     1     -15.227  41.095  10.294  1.00  0.00     0.033 C 
BRANCH  14  15
HETATM   15  C7  UNL     1     -15.872  42.349  10.816  1.00  0.00     0.151 A 
HETATM   16  N5  UNL     1     -16.348  42.153  12.177  1.00  0.00    -0.353 N 
HETATM   17  C8  UNL     1     -17.598  42.388  12.266  1.00  0.00     0.190 A 
ATOM     18  H5  UNL     1     -15.759  41.866  12.958  1.00  0.00     0.163 HD
HETATM   19  N6  UNL     1     -18.385  42.283  13.476  1.00  0.00    -0.063 NA
HETATM   20  N7  UNL     1     -18.138  42.810  11.024  1.00  0.00    -0.319 N 
HETATM   21  C9  UNL     1     -17.048  42.818  10.112  1.00  0.00     0.100 A 
ATOM     22  H7  UNL     1     -19.109  43.056  10.825  1.00  0.00     0.169 HD
HETATM   23  N8  UNL     1     -17.179  43.210   8.899  1.00  0.00    -0.387 N 
ATOM     24  H82 UNL     1     -16.396  43.216   8.245  1.00  0.00     0.157 HD
ATOM     25  H81 UNL     1     -18.007  43.541   8.404  1.00  0.00     0.157 HD
ENDBRANCH  14  15
ENDBRANCH  13  14
ENDBRANCH  12  13
ENDBRANCH  11  12
ENDBRANCH   9  11
TORSDOF 5
ENDMDL
