MODEL 1
REMARK VINA RESULT: -6.470863968      0.000      0.000
REMARK  9 active torsions:
REMARK  status: ('A' for Active; 'I' for Inactive)
REMARK    1  A    between atoms: C2_2  and  N1_3 
REMARK    2  A    between atoms: C2_2  and  N2_7 
REMARK    3  A    between atoms: C2_2  and  C3_11 
REMARK    4  A    between atoms: C3_11  and  O2_13 
REMARK    5  A    between atoms: O2_13  and  C4_14 
REMARK    6  A    between atoms: C9_29  and  N8_30 
REMARK    7  A    between atoms: N8_30  and  C10_32 
REMARK    8  A    between atoms: C10_32  and  C11_33 
REMARK    9  A    between atoms: C11_33  and  N9_34 
ROOT
HETATM    1  C4  UNL     1      14.413  20.635  29.723  1.00  0.00     0.286 A 
HETATM    2  N3  UNL     1      13.087  20.530  30.153  1.00  0.00    -0.332 N 
ATOM      3  H3  UNL     1      12.726  21.266  30.761  1.00  0.00     0.165 HD
HETATM    4  C5  UNL     1      12.298  19.582  29.838  1.00  0.00     0.191 A 
HETATM    5  N4  UNL     1      10.950  19.549  30.321  1.00  0.00    -0.063 NA
HETATM    6  N5  UNL     1      12.689  18.498  28.994  1.00  0.00    -0.326 N 
ATOM      7  H5  UNL     1      12.041  17.748  28.755  1.00  0.00     0.169 HD
HETATM    8  C6  UNL     1      14.037  18.514  28.499  1.00  0.00     0.106 A 
HETATM    9  C7  UNL     1      14.850  19.545  28.858  1.00  0.00     0.093 A 
HETATM   10  N6  UNL     1      16.115  19.503  28.357  1.00  0.00    -0.306 N 
ATOM     11  H6  UNL     1      16.773  20.247  28.589  1.00  0.00     0.170 HD
HETATM   12  C8  UNL     1      16.502  18.502  27.568  1.00  0.00     0.326 A 
HETATM   13  O3  UNL     1      17.688  18.501  27.123  1.00  0.00    -0.247 OA
HETATM   14  N7  UNL     1      15.708  17.482  27.208  1.00  0.00    -0.293 N 
ATOM     15  H7  UNL     1      16.054  16.740  26.600  1.00  0.00     0.172 HD
HETATM   16  C9  UNL     1      14.455  17.463  27.665  1.00  0.00     0.134 A 
ENDROOT
BRANCH   1  17
HETATM   17  O2  UNL     1      14.748  21.913  29.195  1.00  0.00    -0.286 OA
BRANCH  17  18
HETATM   18  C3  UNL     1      15.491  22.866  29.829  1.00  0.00     0.326 C 
HETATM   19  O1  UNL     1      16.710  22.618  30.050  1.00  0.00    -0.260 OA
BRANCH  18  20
HETATM   20  C2  UNL     1      14.843  24.145  30.231  1.00  0.00     0.364 C 
HETATM   21  C1  UNL     1      13.360  24.121  29.869  1.00  0.00     0.090 C 
BRANCH  20  22
HETATM   22  N1  UNL     1      15.023  24.404  31.651  1.00  0.00    -0.036 N 
ATOM     23  H13 UNL     1      14.480  25.209  31.960  1.00  0.00     0.278 HD
ATOM     24  H12 UNL     1      14.577  23.689  32.224  1.00  0.00     0.278 HD
ATOM     25  H11 UNL     1      16.012  24.507  31.877  1.00  0.00     0.278 HD
ENDBRANCH  20  22
BRANCH  20  26
HETATM   26  N2  UNL     1      15.422  25.275  29.527  1.00  0.00    -0.036 N 
ATOM     27  H23 UNL     1      15.265  25.247  28.520  1.00  0.00     0.278 HD
ATOM     28  H22 UNL     1      14.938  26.154  29.707  1.00  0.00     0.278 HD
ATOM     29  H21 UNL     1      16.409  25.301  29.780  1.00  0.00     0.278 HD
ENDBRANCH  20  26
ENDBRANCH  18  20
ENDBRANCH  17  18
ENDBRANCH   1  17
BRANCH  16  30
HETATM   30  N8  UNL     1      13.637  16.541  27.378  1.00  0.00    -0.373 N 
ATOM     31  H8  UNL     1      12.746  16.839  26.982  1.00  0.00     0.161 HD
BRANCH  30  32
HETATM   32  C10 UNL     1      13.811  15.144  27.540  1.00  0.00     0.148 C 
BRANCH  32  33
HETATM   33  C11 UNL     1      14.164  14.714  28.937  1.00  0.00     0.249 C 
BRANCH  33  34
HETATM   34  N9  UNL     1      15.593  14.370  28.926  1.00  0.00    -0.078 N 
ATOM     35  H93 UNL     1      16.021  14.454  28.004  1.00  0.00     0.274 HD
ATOM     36  H92 UNL     1      16.177  15.058  29.402  1.00  0.00     0.274 HD
ATOM     37  H91 UNL     1      15.672  13.433  29.322  1.00  0.00     0.274 HD
ENDBRANCH  33  34
ENDBRANCH  32  33
ENDBRANCH  30  32
ENDBRANCH  16  30
TORSDOF 9
ENDMDL
MODEL 2
REMARK VINA RESULT: -6.435871336      0.919      1.344
REMARK  9 active torsions:
REMARK  status: ('A' for Active; 'I' for Inactive)
REMARK    1  A    between atoms: C2_2  and  N1_3 
REMARK    2  A    between atoms: C2_2  and  N2_7 
REMARK    3  A    between atoms: C2_2  and  C3_11 
REMARK    4  A    between atoms: C3_11  and  O2_13 
REMARK    5  A    between atoms: O2_13  and  C4_14 
REMARK    6  A    between atoms: C9_29  and  N8_30 
REMARK    7  A    between atoms: N8_30  and  C10_32 
REMARK    8  A    between atoms: C10_32  and  C11_33 
REMARK    9  A    between atoms: C11_33  and  N9_34 
ROOT
HETATM    1  C4  UNL     1      14.252  20.793  29.845  1.00  0.00     0.286 A 
HETATM    2  N3  UNL     1      12.929  20.738  30.295  1.00  0.00    -0.332 N 
ATOM      3  H3  UNL     1      12.603  21.489  30.903  1.00  0.00     0.165 HD
HETATM    4  C5  UNL     1      12.103  19.815  29.997  1.00  0.00     0.191 A 
HETATM    5  N4  UNL     1      10.763  19.832  30.500  1.00  0.00    -0.063 NA
HETATM    6  N5  UNL     1      12.444  18.714  29.155  1.00  0.00    -0.326 N 
ATOM      7  H5  UNL     1      11.768  17.985  28.930  1.00  0.00     0.169 HD
HETATM    8  C6  UNL     1      13.784  18.679  28.641  1.00  0.00     0.106 A 
HETATM    9  C7  UNL     1      14.638  19.684  28.981  1.00  0.00     0.093 A 
HETATM   10  N6  UNL     1      15.893  19.594  28.463  1.00  0.00    -0.306 N 
ATOM     11  H6  UNL     1      16.581  20.316  28.680  1.00  0.00     0.170 HD
HETATM   12  C8  UNL     1      16.234  18.575  27.674  1.00  0.00     0.326 A 
HETATM   13  O3  UNL     1      17.412  18.531  27.212  1.00  0.00    -0.247 OA
HETATM   14  N7  UNL     1      15.400  17.582  27.333  1.00  0.00    -0.293 N 
ATOM     15  H7  UNL     1      15.711  16.825  26.725  1.00  0.00     0.172 HD
HETATM   16  C9  UNL     1      14.154  17.609  27.808  1.00  0.00     0.134 A 
ENDROOT
BRANCH   1  17
HETATM   17  O2  UNL     1      14.624  22.056  29.304  1.00  0.00    -0.286 OA
BRANCH  17  18
HETATM   18  C3  UNL     1      15.383  22.998  29.933  1.00  0.00     0.326 C 
HETATM   19  O1  UNL     1      16.577  22.703  30.223  1.00  0.00    -0.260 OA
BRANCH  18  20
HETATM   20  C2  UNL     1      14.782  24.324  30.251  1.00  0.00     0.364 C 
HETATM   21  C1  UNL     1      13.292  24.320  29.915  1.00  0.00     0.090 C 
BRANCH  20  22
HETATM   22  N1  UNL     1      14.995  24.679  31.644  1.00  0.00    -0.036 N 
ATOM     23  H13 UNL     1      15.457  25.584  31.737  1.00  0.00     0.278 HD
ATOM     24  H12 UNL     1      14.120  24.905  32.115  1.00  0.00     0.278 HD
ATOM     25  H11 UNL     1      15.507  23.944  32.131  1.00  0.00     0.278 HD
ENDBRANCH  20  22
BRANCH  20  26
HETATM   26  N2  UNL     1      15.382  25.380  29.457  1.00  0.00    -0.036 N 
ATOM     27  H23 UNL     1      14.952  25.488  28.538  1.00  0.00     0.278 HD
ATOM     28  H22 UNL     1      15.174  26.316  29.805  1.00  0.00     0.278 HD
ATOM     29  H21 UNL     1      16.381  25.180  29.413  1.00  0.00     0.278 HD
ENDBRANCH  20  26
ENDBRANCH  18  20
ENDBRANCH  17  18
ENDBRANCH   1  17
BRANCH  16  30
HETATM   30  N8  UNL     1      13.300  16.714  27.539  1.00  0.00    -0.373 N 
ATOM     31  H8  UNL     1      12.326  16.953  27.723  1.00  0.00     0.161 HD
BRANCH  30  32
HETATM   32  C10 UNL     1      13.535  15.420  27.011  1.00  0.00     0.148 C 
BRANCH  32  33
HETATM   33  C11 UNL     1      12.404  14.862  26.195  1.00  0.00     0.249 C 
BRANCH  33  34
HETATM   34  N9  UNL     1      12.046  15.891  25.207  1.00  0.00    -0.078 N 
ATOM     35  H93 UNL     1      11.086  16.221  25.300  1.00  0.00     0.274 HD
ATOM     36  H92 UNL     1      12.506  16.785  25.373  1.00  0.00     0.274 HD
ATOM     37  H91 UNL     1      12.249  15.498  24.287  1.00  0.00     0.274 HD
ENDBRANCH  33  34
ENDBRANCH  32  33
ENDBRANCH  30  32
ENDBRANCH  16  30
TORSDOF 9
ENDMDL
MODEL 3
REMARK VINA RESULT: -6.271084529      1.470      3.189
REMARK  9 active torsions:
REMARK  status: ('A' for Active; 'I' for Inactive)
REMARK    1  A    between atoms: C2_2  and  N1_3 
REMARK    2  A    between atoms: C2_2  and  N2_7 
REMARK    3  A    between atoms: C2_2  and  C3_11 
REMARK    4  A    between atoms: C3_11  and  O2_13 
REMARK    5  A    between atoms: O2_13  and  C4_14 
REMARK    6  A    between atoms: C9_29  and  N8_30 
REMARK    7  A    between atoms: N8_30  and  C10_32 
REMARK    8  A    between atoms: C10_32  and  C11_33 
REMARK    9  A    between atoms: C11_33  and  N9_34 
ROOT
HETATM    1  C4  UNL     1      14.783  20.546  29.044  1.00  0.00     0.286 A 
HETATM    2  N3  UNL     1      15.927  20.110  28.369  1.00  0.00    -0.332 N 
ATOM      3  H3  UNL     1      16.638  20.806  28.141  1.00  0.00     0.165 HD
HETATM    4  C5  UNL     1      16.144  18.905  28.017  1.00  0.00     0.191 A 
HETATM    5  N4  UNL     1      17.345  18.541  27.327  1.00  0.00    -0.063 NA
HETATM    6  N5  UNL     1      15.224  17.845  28.279  1.00  0.00    -0.326 N 
ATOM      7  H5  UNL     1      15.418  16.887  27.988  1.00  0.00     0.169 HD
HETATM    8  C6  UNL     1      14.015  18.191  28.971  1.00  0.00     0.106 A 
HETATM    9  C7  UNL     1      13.818  19.490  29.330  1.00  0.00     0.093 A 
HETATM   10  N6  UNL     1      12.653  19.754  29.982  1.00  0.00    -0.306 N 
ATOM     11  H6  UNL     1      12.446  20.707  30.278  1.00  0.00     0.170 HD
HETATM   12  C8  UNL     1      11.779  18.780  30.238  1.00  0.00     0.326 A 
HETATM   13  O3  UNL     1      10.708  19.069  30.847  1.00  0.00    -0.247 OA
HETATM   14  N7  UNL     1      11.964  17.498  29.888  1.00  0.00    -0.293 N 
ATOM     15  H7  UNL     1      11.264  16.791  30.108  1.00  0.00     0.172 HD
HETATM   16  C9  UNL     1      13.087  17.172  29.245  1.00  0.00     0.134 A 
ENDROOT
BRANCH   1  17
HETATM   17  O2  UNL     1      15.058  21.351  30.184  1.00  0.00    -0.286 OA
BRANCH  17  18
HETATM   18  C3  UNL     1      15.671  22.569  30.168  1.00  0.00     0.326 C 
HETATM   19  O1  UNL     1      16.913  22.606  29.939  1.00  0.00    -0.260 OA
BRANCH  18  20
HETATM   20  C2  UNL     1      14.861  23.794  30.420  1.00  0.00     0.364 C 
HETATM   21  C1  UNL     1      13.400  23.543  30.054  1.00  0.00     0.090 C 
BRANCH  20  22
HETATM   22  N1  UNL     1      14.980  24.230  31.801  1.00  0.00    -0.036 N 
ATOM     23  H13 UNL     1      14.898  25.243  31.886  1.00  0.00     0.278 HD
ATOM     24  H12 UNL     1      14.165  23.964  32.352  1.00  0.00     0.278 HD
ATOM     25  H11 UNL     1      15.846  23.886  32.216  1.00  0.00     0.278 HD
ENDBRANCH  20  22
BRANCH  20  26
HETATM   26  N2  UNL     1      15.309  24.902  29.595  1.00  0.00    -0.036 N 
ATOM     27  H23 UNL     1      15.283  24.698  28.596  1.00  0.00     0.278 HD
ATOM     28  H22 UNL     1      14.657  25.685  29.582  1.00  0.00     0.278 HD
ATOM     29  H21 UNL     1      16.238  25.157  29.930  1.00  0.00     0.278 HD
ENDBRANCH  20  26
ENDBRANCH  18  20
ENDBRANCH  17  18
ENDBRANCH   1  17
BRANCH  16  30
HETATM   30  N8  UNL     1      13.344  15.988  28.878  1.00  0.00    -0.373 N 
ATOM     31  H8  UNL     1      13.072  15.745  27.925  1.00  0.00     0.161 HD
BRANCH  30  32
HETATM   32  C10 UNL     1      13.965  14.961  29.631  1.00  0.00     0.148 C 
BRANCH  32  33
HETATM   33  C11 UNL     1      14.784  13.997  28.818  1.00  0.00     0.249 C 
BRANCH  33  34
HETATM   34  N9  UNL     1      16.159  14.520  28.800  1.00  0.00    -0.078 N 
ATOM     35  H93 UNL     1      16.220  15.479  28.459  1.00  0.00     0.274 HD
ATOM     36  H92 UNL     1      16.536  14.691  29.732  1.00  0.00     0.274 HD
ATOM     37  H91 UNL     1      16.716  13.862  28.255  1.00  0.00     0.274 HD
ENDBRANCH  33  34
ENDBRANCH  32  33
ENDBRANCH  30  32
ENDBRANCH  16  30
TORSDOF 9
ENDMDL
MODEL 4
REMARK VINA RESULT: -6.206483586      1.579      3.375
REMARK  9 active torsions:
REMARK  status: ('A' for Active; 'I' for Inactive)
REMARK    1  A    between atoms: C2_2  and  N1_3 
REMARK    2  A    between atoms: C2_2  and  N2_7 
REMARK    3  A    between atoms: C2_2  and  C3_11 
REMARK    4  A    between atoms: C3_11  and  O2_13 
REMARK    5  A    between atoms: O2_13  and  C4_14 
REMARK    6  A    between atoms: C9_29  and  N8_30 
REMARK    7  A    between atoms: N8_30  and  C10_32 
REMARK    8  A    between atoms: C10_32  and  C11_33 
REMARK    9  A    between atoms: C11_33  and  N9_34 
ROOT
HETATM    1  C4  UNL     1      14.745  20.604  29.028  1.00  0.00     0.286 A 
HETATM    2  N3  UNL     1      15.887  20.151  28.361  1.00  0.00    -0.332 N 
ATOM      3  H3  UNL     1      16.603  20.839  28.126  1.00  0.00     0.165 HD
HETATM    4  C5  UNL     1      16.096  18.940  28.027  1.00  0.00     0.191 A 
HETATM    5  N4  UNL     1      17.296  18.558  27.345  1.00  0.00    -0.063 NA
HETATM    6  N5  UNL     1      15.169  17.890  28.302  1.00  0.00    -0.326 N 
ATOM      7  H5  UNL     1      15.356  16.927  28.025  1.00  0.00     0.169 HD
HETATM    8  C6  UNL     1      13.960  18.254  28.986  1.00  0.00     0.106 A 
HETATM    9  C7  UNL     1      13.772  19.559  29.327  1.00  0.00     0.093 A 
HETATM   10  N6  UNL     1      12.607  19.840  29.972  1.00  0.00    -0.306 N 
ATOM     11  H6  UNL     1      12.407  20.799  30.255  1.00  0.00     0.170 HD
HETATM   12  C8  UNL     1      11.726  18.876  30.239  1.00  0.00     0.326 A 
HETATM   13  O3  UNL     1      10.655  19.181  30.842  1.00  0.00    -0.247 OA
HETATM   14  N7  UNL     1      11.903  17.588  29.908  1.00  0.00    -0.293 N 
ATOM     15  H7  UNL     1      11.197  16.889  30.137  1.00  0.00     0.172 HD
HETATM   16  C9  UNL     1      13.024  17.245  29.272  1.00  0.00     0.134 A 
ENDROOT
BRANCH   1  17
HETATM   17  O2  UNL     1      15.023  21.423  30.158  1.00  0.00    -0.286 OA
BRANCH  17  18
HETATM   18  C3  UNL     1      15.661  22.628  30.128  1.00  0.00     0.326 C 
HETATM   19  O1  UNL     1      16.902  22.637  29.890  1.00  0.00    -0.260 OA
BRANCH  18  20
HETATM   20  C2  UNL     1      14.880  23.871  30.376  1.00  0.00     0.364 C 
HETATM   21  C1  UNL     1      13.419  23.661  29.984  1.00  0.00     0.090 C 
BRANCH  20  22
HETATM   22  N1  UNL     1      14.987  24.294  31.762  1.00  0.00    -0.036 N 
ATOM     23  H13 UNL     1      15.646  25.065  31.873  1.00  0.00     0.278 HD
ATOM     24  H12 UNL     1      14.142  24.769  32.078  1.00  0.00     0.278 HD
ATOM     25  H11 UNL     1      15.224  23.506  32.364  1.00  0.00     0.278 HD
ENDBRANCH  20  22
BRANCH  20  26
HETATM   26  N2  UNL     1      15.370  24.973  29.567  1.00  0.00    -0.036 N 
ATOM     27  H23 UNL     1      15.170  24.865  28.573  1.00  0.00     0.278 HD
ATOM     28  H22 UNL     1      14.851  25.840  29.708  1.00  0.00     0.278 HD
ATOM     29  H21 UNL     1      16.365  25.062  29.770  1.00  0.00     0.278 HD
ENDBRANCH  20  26
ENDBRANCH  18  20
ENDBRANCH  17  18
ENDBRANCH   1  17
BRANCH  16  30
HETATM   30  N8  UNL     1      13.274  16.055  28.922  1.00  0.00    -0.373 N 
ATOM     31  H8  UNL     1      14.111  15.635  29.325  1.00  0.00     0.161 HD
BRANCH  30  32
HETATM   32  C10 UNL     1      12.529  15.236  28.037  1.00  0.00     0.148 C 
BRANCH  32  33
HETATM   33  C11 UNL     1      13.001  15.266  26.610  1.00  0.00     0.249 C 
BRANCH  33  34
HETATM   34  N9  UNL     1      12.190  16.278  25.917  1.00  0.00    -0.078 N 
ATOM     35  H93 UNL     1      11.435  16.652  26.492  1.00  0.00     0.274 HD
ATOM     36  H92 UNL     1      12.685  17.158  25.769  1.00  0.00     0.274 HD
ATOM     37  H91 UNL     1      11.863  15.850  25.051  1.00  0.00     0.274 HD
ENDBRANCH  33  34
ENDBRANCH  32  33
ENDBRANCH  30  32
ENDBRANCH  16  30
TORSDOF 9
ENDMDL
MODEL 5
REMARK VINA RESULT: -6.197396147      1.984      3.419
REMARK  9 active torsions:
REMARK  status: ('A' for Active; 'I' for Inactive)
REMARK    1  A    between atoms: C2_2  and  N1_3 
REMARK    2  A    between atoms: C2_2  and  N2_7 
REMARK    3  A    between atoms: C2_2  and  C3_11 
REMARK    4  A    between atoms: C3_11  and  O2_13 
REMARK    5  A    between atoms: O2_13  and  C4_14 
REMARK    6  A    between atoms: C9_29  and  N8_30 
REMARK    7  A    between atoms: N8_30  and  C10_32 
REMARK    8  A    between atoms: C10_32  and  C11_33 
REMARK    9  A    between atoms: C11_33  and  N9_34 
ROOT
HETATM    1  C4  UNL     1      14.756  19.846  29.149  1.00  0.00     0.286 A 
HETATM    2  N3  UNL     1      15.919  19.711  28.385  1.00  0.00    -0.332 N 
ATOM      3  H3  UNL     1      16.342  20.561  28.012  1.00  0.00     0.165 HD
HETATM    4  C5  UNL     1      16.487  18.602  28.122  1.00  0.00     0.191 A 
HETATM    5  N4  UNL     1      17.680  18.551  27.331  1.00  0.00    -0.063 NA
HETATM    6  N5  UNL     1      15.989  17.348  28.588  1.00  0.00    -0.326 N 
ATOM      7  H5  UNL     1      16.459  16.472  28.366  1.00  0.00     0.169 HD
HETATM    8  C6  UNL     1      14.794  17.380  29.384  1.00  0.00     0.106 A 
HETATM    9  C7  UNL     1      14.216  18.585  29.644  1.00  0.00     0.093 A 
HETATM   10  N6  UNL     1      13.087  18.548  30.402  1.00  0.00    -0.306 N 
ATOM     11  H6  UNL     1      12.606  19.417  30.632  1.00  0.00     0.170 HD
HETATM   12  C8  UNL     1      12.603  17.389  30.849  1.00  0.00     0.326 A 
HETATM   13  O3  UNL     1      11.550  17.400  31.552  1.00  0.00    -0.247 OA
HETATM   14  N7  UNL     1      13.166  16.197  30.599  1.00  0.00    -0.293 N 
ATOM     15  H7  UNL     1      12.755  15.339  30.966  1.00  0.00     0.172 HD
HETATM   16  C9  UNL     1      14.276  16.163  29.860  1.00  0.00     0.134 A 
ENDROOT
BRANCH   1  17
HETATM   17  O2  UNL     1      14.848  20.833  30.169  1.00  0.00    -0.286 OA
BRANCH  17  18
HETATM   18  C3  UNL     1      15.436  22.057  30.041  1.00  0.00     0.326 C 
HETATM   19  O1  UNL     1      16.698  22.108  30.002  1.00  0.00    -0.260 OA
BRANCH  18  20
HETATM   20  C2  UNL     1      14.578  23.271  29.954  1.00  0.00     0.364 C 
HETATM   21  C1  UNL     1      13.718  23.400  31.209  1.00  0.00     0.090 C 
BRANCH  20  22
HETATM   22  N1  UNL     1      15.378  24.468  29.753  1.00  0.00    -0.036 N 
ATOM     23  H13 UNL     1      15.473  24.698  28.763  1.00  0.00     0.278 HD
ATOM     24  H12 UNL     1      14.886  25.307  30.057  1.00  0.00     0.278 HD
ATOM     25  H11 UNL     1      16.287  24.377  30.207  1.00  0.00     0.278 HD
ENDBRANCH  20  22
BRANCH  20  26
HETATM   26  N2  UNL     1      13.662  23.191  28.831  1.00  0.00    -0.036 N 
ATOM     27  H23 UNL     1      12.843  23.790  28.935  1.00  0.00     0.278 HD
ATOM     28  H22 UNL     1      14.026  23.621  27.981  1.00  0.00     0.278 HD
ATOM     29  H21 UNL     1      13.429  22.205  28.716  1.00  0.00     0.278 HD
ENDBRANCH  20  26
ENDBRANCH  18  20
ENDBRANCH  17  18
ENDBRANCH   1  17
BRANCH  16  30
HETATM   30  N8  UNL     1      14.873  15.084  29.575  1.00  0.00    -0.373 N 
ATOM     31  H8  UNL     1      15.660  14.835  30.174  1.00  0.00     0.161 HD
BRANCH  30  32
HETATM   32  C10 UNL     1      14.581  14.181  28.523  1.00  0.00     0.148 C 
BRANCH  32  33
HETATM   33  C11 UNL     1      15.785  13.672  27.782  1.00  0.00     0.249 C 
BRANCH  33  34
HETATM   34  N9  UNL     1      16.966  14.105  28.543  1.00  0.00    -0.078 N 
ATOM     35  H93 UNL     1      17.576  14.730  28.018  1.00  0.00     0.274 HD
ATOM     36  H92 UNL     1      16.742  14.752  29.300  1.00  0.00     0.274 HD
ATOM     37  H91 UNL     1      17.436  13.258  28.863  1.00  0.00     0.274 HD
ENDBRANCH  33  34
ENDBRANCH  32  33
ENDBRANCH  30  32
ENDBRANCH  16  30
TORSDOF 9
ENDMDL
