MODEL 1
REMARK VINA RESULT: -7.290401663      0.000      0.000
REMARK  6 active torsions:
REMARK  status: ('A' for Active; 'I' for Inactive)
REMARK    1  A    between atoms: C2_2  and  C11_32 
REMARK    2  A    between atoms: N1_3  and  N2_5 
REMARK       I    between atoms: N2_5  and  C3_7 
REMARK    3  A    between atoms: C3_7  and  C4_9 
REMARK    4  A    between atoms: C5_12  and  N4_13 
REMARK    5  A    between atoms: C6_18  and  C7_19 
REMARK    6  A    between atoms: C9_24  and  N8_25 
REMARK       I    between atoms: C11_32  and  N11_34 
ROOT
HETATM    1  C4  UNL     1      21.961  35.863  20.459  1.00  0.00     0.145 A 
HETATM    2  N3  UNL     1      23.017  35.488  21.168  1.00  0.00    -0.184 N 
ATOM      3  H3  UNL     1      23.150  34.514  21.439  1.00  0.00     0.184 HD
HETATM    4  C5  UNL     1      23.909  36.438  21.522  1.00  0.00     0.677 A 
HETATM    5  N5  UNL     1      23.759  37.725  21.179  1.00  0.00    -0.186 N 
ATOM      6  H5  UNL     1      24.469  38.394  21.477  1.00  0.00     0.184 HD
HETATM    7  C6  UNL     1      22.690  38.185  20.445  1.00  0.00     0.121 A 
HETATM    8  C10 UNL     1      21.800  37.198  20.102  1.00  0.00     0.110 A 
HETATM    9  N10 UNL     1      20.665  37.554  19.348  1.00  0.00    -0.097 NA
ENDROOT
BRANCH   1  10
HETATM   10  C3  UNL     1      20.964  34.900  20.045  1.00  0.00     0.289 C 
HETATM   11  N2  UNL     1      19.617  35.037  20.523  1.00  0.00    -0.264 N 
ATOM     12  H2  UNL     1      19.369  35.805  21.146  1.00  0.00     0.190 HD
HETATM   13  O1  UNL     1      21.275  33.974  19.287  1.00  0.00    -0.264 OA
BRANCH  11  14
HETATM   14  N1  UNL     1      18.662  34.123  20.133  1.00  0.00    -0.297 N 
HETATM   15  C2  UNL     1      17.601  33.879  20.803  1.00  0.00     0.093 C 
HETATM   16  C1  UNL     1      17.402  34.632  22.069  1.00  0.00     0.076 C 
ATOM     17  H1  UNL     1      18.810  33.613  19.262  1.00  0.00     0.187 HD
BRANCH  15  18
HETATM   18  C11 UNL     1      16.643  32.895  20.318  1.00  0.00     0.307 C 
HETATM   19  O2  UNL     1      15.469  33.277  20.108  1.00  0.00    -0.262 OA
HETATM   20  N11 UNL     1      17.040  31.556  20.094  1.00  0.00    -0.123 N 
HETATM   21  N12 UNL     1      16.385  30.475  19.662  1.00  0.00    -0.201 N 
HETATM   22  N14 UNL     1      18.129  30.829  20.197  1.00  0.00    -0.201 N 
HETATM   23  N13 UNL     1      17.473  29.750  19.766  1.00  0.00    -0.210 N 
ATOM     24  H12 UNL     1      15.426  30.288  19.370  1.00  0.00     0.212 HD
ATOM     25  H13 UNL     1      17.714  28.775  19.590  1.00  0.00     0.211 HD
ATOM     26  H14 UNL     1      19.089  31.013  20.489  1.00  0.00     0.212 HD
ENDBRANCH  15  18
ENDBRANCH  11  14
ENDBRANCH   1  10
BRANCH   4  27
HETATM   27  N4  UNL     1      24.921  36.049  22.207  1.00  0.00    -0.234 N 
ATOM     28  H42 UNL     1      25.098  35.058  22.368  1.00  0.00     0.174 HD
ATOM     29  H41 UNL     1      25.530  36.779  22.577  1.00  0.00     0.174 HD
ENDBRANCH   4  27
BRANCH   7  30
HETATM   30  C7  UNL     1      22.590  39.570  20.114  1.00  0.00     0.165 A 
HETATM   31  N6  UNL     1      23.625  40.256  19.533  1.00  0.00    -0.267 N 
HETATM   32  N7  UNL     1      23.292  41.510  19.328  1.00  0.00    -0.127 N 
ATOM     33  H6  UNL     1      24.530  39.849  19.292  1.00  0.00     0.189 HD
HETATM   34  C8  UNL     1      24.124  42.552  18.729  1.00  0.00     0.197 C 
HETATM   35  C9  UNL     1      22.036  41.682  19.765  1.00  0.00     0.694 A 
HETATM   36  N9  UNL     1      21.642  40.481  20.237  1.00  0.00    -0.172 N 
ATOM     37  H9  UNL     1      20.723  40.299  20.639  1.00  0.00     0.186 HD
BRANCH  35  38
HETATM   38  N8  UNL     1      21.344  42.769  19.742  1.00  0.00    -0.233 N 
ATOM     39  H82 UNL     1      21.492  43.577  19.138  1.00  0.00     0.174 HD
ATOM     40  H81 UNL     1      20.537  42.999  20.322  1.00  0.00     0.174 HD
ENDBRANCH  35  38
ENDBRANCH   7  30
TORSDOF 6
ENDMDL
MODEL 2
REMARK VINA RESULT: -7.132202749      5.708      7.767
REMARK  6 active torsions:
REMARK  status: ('A' for Active; 'I' for Inactive)
REMARK    1  A    between atoms: C2_2  and  C11_32 
REMARK    2  A    between atoms: N1_3  and  N2_5 
REMARK       I    between atoms: N2_5  and  C3_7 
REMARK    3  A    between atoms: C3_7  and  C4_9 
REMARK    4  A    between atoms: C5_12  and  N4_13 
REMARK    5  A    between atoms: C6_18  and  C7_19 
REMARK    6  A    between atoms: C9_24  and  N8_25 
REMARK       I    between atoms: C11_32  and  N11_34 
ROOT
HETATM    1  C4  UNL     1      18.964  29.927  19.999  1.00  0.00     0.145 A 
HETATM    2  N3  UNL     1      18.753  28.829  19.286  1.00  0.00    -0.184 N 
ATOM      3  H3  UNL     1      17.828  28.402  19.238  1.00  0.00     0.184 HD
HETATM    4  C5  UNL     1      19.802  28.294  18.624  1.00  0.00     0.677 A 
HETATM    5  N5  UNL     1      21.027  28.835  18.668  1.00  0.00    -0.186 N 
ATOM      6  H5  UNL     1      21.778  28.383  18.145  1.00  0.00     0.184 HD
HETATM    7  C6  UNL     1      21.320  29.972  19.386  1.00  0.00     0.121 A 
HETATM    8  C10 UNL     1      20.235  30.491  20.048  1.00  0.00     0.110 A 
HETATM    9  N10 UNL     1      20.417  31.657  20.817  1.00  0.00    -0.097 NA
ENDROOT
BRANCH   1  10
HETATM   10  C3  UNL     1      17.888  30.554  20.733  1.00  0.00     0.289 C 
HETATM   11  N2  UNL     1      17.294  31.755  20.217  1.00  0.00    -0.264 N 
ATOM     12  H2  UNL     1      17.629  32.158  19.342  1.00  0.00     0.190 HD
HETATM   13  O1  UNL     1      17.488  30.056  21.791  1.00  0.00    -0.264 OA
BRANCH  11  14
HETATM   14  N1  UNL     1      16.268  32.358  20.911  1.00  0.00    -0.297 N 
HETATM   15  C2  UNL     1      16.232  33.609  21.176  1.00  0.00     0.093 C 
HETATM   16  C1  UNL     1      17.366  34.442  20.701  1.00  0.00     0.076 C 
ATOM     17  H1  UNL     1      15.495  31.775  21.232  1.00  0.00     0.187 HD
BRANCH  15  18
HETATM   18  C11 UNL     1      15.108  34.164  21.917  1.00  0.00     0.307 C 
HETATM   19  O2  UNL     1      13.987  34.169  21.361  1.00  0.00    -0.262 OA
HETATM   20  N11 UNL     1      15.292  34.677  23.222  1.00  0.00    -0.123 N 
HETATM   21  N12 UNL     1      14.457  35.231  24.106  1.00  0.00    -0.201 N 
HETATM   22  N14 UNL     1      16.272  34.832  24.084  1.00  0.00    -0.201 N 
HETATM   23  N13 UNL     1      15.436  35.384  24.965  1.00  0.00    -0.210 N 
ATOM     24  H12 UNL     1      13.461  35.448  24.112  1.00  0.00     0.212 HD
ATOM     25  H13 UNL     1      15.522  35.765  25.907  1.00  0.00     0.211 HD
ATOM     26  H14 UNL     1      17.268  34.616  24.081  1.00  0.00     0.212 HD
ENDBRANCH  15  18
ENDBRANCH  11  14
ENDBRANCH   1  10
BRANCH   4  27
HETATM   27  N4  UNL     1      19.570  27.233  17.941  1.00  0.00    -0.234 N 
ATOM     28  H42 UNL     1      18.750  26.657  18.126  1.00  0.00     0.174 HD
ATOM     29  H41 UNL     1      20.247  27.002  17.214  1.00  0.00     0.174 HD
ENDBRANCH   4  27
BRANCH   7  30
HETATM   30  C7  UNL     1      22.647  30.496  19.391  1.00  0.00     0.165 A 
HETATM   31  N6  UNL     1      23.694  29.832  18.805  1.00  0.00    -0.267 N 
HETATM   32  N7  UNL     1      24.809  30.513  18.942  1.00  0.00    -0.127 N 
ATOM     33  H6  UNL     1      23.618  28.933  18.327  1.00  0.00     0.189 HD
HETATM   34  C8  UNL     1      26.134  30.134  18.452  1.00  0.00     0.197 C 
HETATM   35  C9  UNL     1      24.528  31.637  19.617  1.00  0.00     0.694 A 
HETATM   36  N9  UNL     1      23.204  31.591  19.874  1.00  0.00    -0.172 N 
ATOM     37  H9  UNL     1      22.695  32.316  20.379  1.00  0.00     0.186 HD
BRANCH  35  38
HETATM   38  N8  UNL     1      25.350  32.570  19.954  1.00  0.00    -0.233 N 
ATOM     39  H82 UNL     1      25.947  32.591  20.781  1.00  0.00     0.174 HD
ATOM     40  H81 UNL     1      25.539  33.437  19.452  1.00  0.00     0.174 HD
ENDBRANCH  35  38
ENDBRANCH   7  30
TORSDOF 6
ENDMDL
MODEL 3
REMARK VINA RESULT: -7.127737917      3.121      8.591
REMARK  6 active torsions:
REMARK  status: ('A' for Active; 'I' for Inactive)
REMARK    1  A    between atoms: C2_2  and  C11_32 
REMARK    2  A    between atoms: N1_3  and  N2_5 
REMARK       I    between atoms: N2_5  and  C3_7 
REMARK    3  A    between atoms: C3_7  and  C4_9 
REMARK    4  A    between atoms: C5_12  and  N4_13 
REMARK    5  A    between atoms: C6_18  and  C7_19 
REMARK    6  A    between atoms: C9_24  and  N8_25 
REMARK       I    between atoms: C11_32  and  N11_34 
ROOT
HETATM    1  C4  UNL     1      18.387  34.343  20.603  1.00  0.00     0.145 A 
HETATM    2  N3  UNL     1      17.815  33.452  19.805  1.00  0.00    -0.184 N 
ATOM      3  H3  UNL     1      18.278  33.135  18.953  1.00  0.00     0.184 HD
HETATM    4  C5  UNL     1      16.601  32.978  20.155  1.00  0.00     0.677 A 
HETATM    5  N5  UNL     1      15.970  33.376  21.268  1.00  0.00    -0.186 N 
ATOM      6  H5  UNL     1      15.054  32.979  21.478  1.00  0.00     0.184 HD
HETATM    7  C6  UNL     1      16.502  34.296  22.143  1.00  0.00     0.121 A 
HETATM    8  C10 UNL     1      17.736  34.760  21.759  1.00  0.00     0.110 A 
HETATM    9  N10 UNL     1      18.378  35.708  22.581  1.00  0.00    -0.097 NA
ENDROOT
BRANCH   1  10
HETATM   10  C3  UNL     1      19.687  34.895  20.291  1.00  0.00     0.289 C 
HETATM   11  N2  UNL     1      20.759  34.738  21.233  1.00  0.00    -0.264 N 
ATOM     12  H2  UNL     1      20.603  34.244  22.111  1.00  0.00     0.190 HD
HETATM   13  O1  UNL     1      19.866  35.490  19.223  1.00  0.00    -0.264 OA
BRANCH  11  14
HETATM   14  N1  UNL     1      22.000  35.261  20.943  1.00  0.00    -0.297 N 
HETATM   15  C2  UNL     1      22.749  35.832  21.809  1.00  0.00     0.093 C 
HETATM   16  C1  UNL     1      22.237  35.925  23.200  1.00  0.00     0.076 C 
ATOM     17  H1  UNL     1      22.341  35.190  19.984  1.00  0.00     0.187 HD
BRANCH  15  18
HETATM   18  C11 UNL     1      24.048  36.358  21.415  1.00  0.00     0.307 C 
HETATM   19  O2  UNL     1      25.018  35.567  21.400  1.00  0.00    -0.262 OA
HETATM   20  N11 UNL     1      24.194  37.720  21.063  1.00  0.00    -0.123 N 
HETATM   21  N12 UNL     1      25.243  38.450  20.673  1.00  0.00    -0.201 N 
HETATM   22  N14 UNL     1      23.440  38.792  20.966  1.00  0.00    -0.201 N 
HETATM   23  N13 UNL     1      24.489  39.518  20.577  1.00  0.00    -0.210 N 
ATOM     24  H12 UNL     1      26.231  38.255  20.513  1.00  0.00     0.212 HD
ATOM     25  H13 UNL     1      24.641  40.492  20.315  1.00  0.00     0.211 HD
ATOM     26  H14 UNL     1      22.452  38.989  21.124  1.00  0.00     0.212 HD
ENDBRANCH  15  18
ENDBRANCH  11  14
ENDBRANCH   1  10
BRANCH   4  27
HETATM   27  N4  UNL     1      16.070  32.116  19.366  1.00  0.00    -0.234 N 
ATOM     28  H42 UNL     1      15.553  32.410  18.538  1.00  0.00     0.174 HD
ATOM     29  H41 UNL     1      16.194  31.134  19.612  1.00  0.00     0.174 HD
ENDBRANCH   4  27
BRANCH   7  30
HETATM   30  C7  UNL     1      15.778  34.677  23.312  1.00  0.00     0.165 A 
HETATM   31  N6  UNL     1      16.395  34.862  24.523  1.00  0.00    -0.267 N 
HETATM   32  N7  UNL     1      15.520  35.208  25.440  1.00  0.00    -0.127 N 
ATOM     33  H6  UNL     1      17.395  34.748  24.689  1.00  0.00     0.189 HD
HETATM   34  C8  UNL     1      15.792  35.492  26.848  1.00  0.00     0.197 C 
HETATM   35  C9  UNL     1      14.311  35.260  24.861  1.00  0.00     0.694 A 
HETATM   36  N9  UNL     1      14.508  34.931  23.567  1.00  0.00    -0.172 N 
ATOM     37  H9  UNL     1      13.764  34.885  22.871  1.00  0.00     0.186 HD
BRANCH  35  38
HETATM   38  N8  UNL     1      13.191  35.562  25.422  1.00  0.00    -0.233 N 
ATOM     39  H82 UNL     1      12.943  35.435  26.402  1.00  0.00     0.174 HD
ATOM     40  H81 UNL     1      12.371  35.976  24.978  1.00  0.00     0.174 HD
ENDBRANCH  35  38
ENDBRANCH   7  30
TORSDOF 6
ENDMDL
MODEL 4
REMARK VINA RESULT: -7.103716049      2.886      8.626
REMARK  6 active torsions:
REMARK  status: ('A' for Active; 'I' for Inactive)
REMARK    1  A    between atoms: C2_2  and  C11_32 
REMARK    2  A    between atoms: N1_3  and  N2_5 
REMARK       I    between atoms: N2_5  and  C3_7 
REMARK    3  A    between atoms: C3_7  and  C4_9 
REMARK    4  A    between atoms: C5_12  and  N4_13 
REMARK    5  A    between atoms: C6_18  and  C7_19 
REMARK    6  A    between atoms: C9_24  and  N8_25 
REMARK       I    between atoms: C11_32  and  N11_34 
ROOT
HETATM    1  C4  UNL     1      19.949  34.935  20.473  1.00  0.00     0.145 A 
HETATM    2  N3  UNL     1      20.335  33.689  20.236  1.00  0.00    -0.184 N 
ATOM      3  H3  UNL     1      21.086  33.487  19.575  1.00  0.00     0.184 HD
HETATM    4  C5  UNL     1      19.704  32.695  20.897  1.00  0.00     0.677 A 
HETATM    5  N5  UNL     1      18.716  32.932  21.771  1.00  0.00    -0.186 N 
ATOM      6  H5  UNL     1      18.280  32.137  22.240  1.00  0.00     0.184 HD
HETATM    7  C6  UNL     1      18.263  34.197  22.067  1.00  0.00     0.121 A 
HETATM    8  C10 UNL     1      18.923  35.185  21.379  1.00  0.00     0.110 A 
HETATM    9  N10 UNL     1      18.543  36.523  21.602  1.00  0.00    -0.097 NA
ENDROOT
BRANCH   1  10
HETATM   10  C3  UNL     1      20.580  36.049  19.801  1.00  0.00     0.289 C 
HETATM   11  N2  UNL     1      21.447  36.917  20.546  1.00  0.00    -0.264 N 
ATOM     12  H2  UNL     1      21.615  36.747  21.538  1.00  0.00     0.190 HD
HETATM   13  O1  UNL     1      20.371  36.245  18.598  1.00  0.00    -0.264 OA
BRANCH  11  14
HETATM   14  N1  UNL     1      22.051  37.981  19.913  1.00  0.00    -0.297 N 
HETATM   15  C2  UNL     1      22.881  38.768  20.485  1.00  0.00     0.093 C 
HETATM   16  C1  UNL     1      23.201  38.505  21.912  1.00  0.00     0.076 C 
ATOM     17  H1  UNL     1      21.825  38.150  18.932  1.00  0.00     0.187 HD
BRANCH  15  18
HETATM   18  C11 UNL     1      23.473  39.870  19.739  1.00  0.00     0.307 C 
HETATM   19  O2  UNL     1      24.602  39.690  19.229  1.00  0.00    -0.262 OA
HETATM   20  N11 UNL     1      22.783  41.097  19.604  1.00  0.00    -0.123 N 
HETATM   21  N12 UNL     1      23.084  42.245  18.989  1.00  0.00    -0.201 N 
HETATM   22  N14 UNL     1      21.640  41.624  19.981  1.00  0.00    -0.201 N 
HETATM   23  N13 UNL     1      21.944  42.769  19.367  1.00  0.00    -0.210 N 
ATOM     24  H12 UNL     1      23.880  42.579  18.446  1.00  0.00     0.212 HD
ATOM     25  H13 UNL     1      21.483  43.671  19.244  1.00  0.00     0.211 HD
ATOM     26  H14 UNL     1      20.844  41.293  20.524  1.00  0.00     0.212 HD
ENDBRANCH  15  18
ENDBRANCH  11  14
ENDBRANCH   1  10
BRANCH   4  27
HETATM   27  N4  UNL     1      20.098  31.499  20.650  1.00  0.00    -0.234 N 
ATOM     28  H42 UNL     1      21.030  31.318  20.278  1.00  0.00     0.174 HD
ATOM     29  H41 UNL     1      19.433  30.751  20.844  1.00  0.00     0.174 HD
ENDBRANCH   4  27
BRANCH   7  30
HETATM   30  C7  UNL     1      17.206  34.379  23.008  1.00  0.00     0.165 A 
HETATM   31  N6  UNL     1      17.261  33.856  24.275  1.00  0.00    -0.267 N 
HETATM   32  N7  UNL     1      16.173  34.158  24.947  1.00  0.00    -0.127 N 
ATOM     33  H6  UNL     1      18.039  33.308  24.644  1.00  0.00     0.189 HD
HETATM   34  C8  UNL     1      15.862  33.782  26.326  1.00  0.00     0.197 C 
HETATM   35  C9  UNL     1      15.379  34.884  24.147  1.00  0.00     0.694 A 
HETATM   36  N9  UNL     1      16.040  34.998  22.976  1.00  0.00    -0.172 N 
ATOM     37  H9  UNL     1      15.682  35.501  22.165  1.00  0.00     0.186 HD
BRANCH  35  38
HETATM   38  N8  UNL     1      14.222  35.373  24.434  1.00  0.00    -0.233 N 
ATOM     39  H82 UNL     1      13.352  35.227  23.923  1.00  0.00     0.174 HD
ATOM     40  H81 UNL     1      13.987  35.985  25.215  1.00  0.00     0.174 HD
ENDBRANCH  35  38
ENDBRANCH   7  30
TORSDOF 6
ENDMDL
MODEL 5
REMARK VINA RESULT: -6.835579069      1.369      1.652
REMARK  6 active torsions:
REMARK  status: ('A' for Active; 'I' for Inactive)
REMARK    1  A    between atoms: C2_2  and  C11_32 
REMARK    2  A    between atoms: N1_3  and  N2_5 
REMARK       I    between atoms: N2_5  and  C3_7 
REMARK    3  A    between atoms: C3_7  and  C4_9 
REMARK    4  A    between atoms: C5_12  and  N4_13 
REMARK    5  A    between atoms: C6_18  and  C7_19 
REMARK    6  A    between atoms: C9_24  and  N8_25 
REMARK       I    between atoms: C11_32  and  N11_34 
ROOT
HETATM    1  C4  UNL     1      21.848  35.784  20.507  1.00  0.00     0.145 A 
HETATM    2  N3  UNL     1      22.916  35.389  21.187  1.00  0.00    -0.184 N 
ATOM      3  H3  UNL     1      23.034  34.414  21.463  1.00  0.00     0.184 HD
HETATM    4  C5  UNL     1      23.843  36.318  21.503  1.00  0.00     0.677 A 
HETATM    5  N5  UNL     1      23.715  37.606  21.152  1.00  0.00    -0.186 N 
ATOM      6  H5  UNL     1      24.451  38.259  21.420  1.00  0.00     0.184 HD
HETATM    7  C6  UNL     1      22.635  38.086  20.447  1.00  0.00     0.121 A 
HETATM    8  C10 UNL     1      21.710  37.119  20.143  1.00  0.00     0.110 A 
HETATM    9  N10 UNL     1      20.561  37.497  19.421  1.00  0.00    -0.097 NA
ENDROOT
BRANCH   1  10
HETATM   10  C3  UNL     1      20.814  34.843  20.135  1.00  0.00     0.289 C 
HETATM   11  N2  UNL     1      19.474  35.053  20.605  1.00  0.00    -0.264 N 
ATOM     12  H2  UNL     1      19.256  35.857  21.193  1.00  0.00     0.190 HD
HETATM   13  O1  UNL     1      21.089  33.873  19.420  1.00  0.00    -0.264 OA
BRANCH  11  14
HETATM   14  N1  UNL     1      18.484  34.161  20.255  1.00  0.00    -0.297 N 
HETATM   15  C2  UNL     1      17.713  33.591  21.101  1.00  0.00     0.093 C 
HETATM   16  C1  UNL     1      17.909  33.921  22.536  1.00  0.00     0.076 C 
ATOM     17  H1  UNL     1      18.359  33.943  19.266  1.00  0.00     0.187 HD
BRANCH  15  18
HETATM   18  C11 UNL     1      16.692  32.659  20.643  1.00  0.00     0.307 C 
HETATM   19  O2  UNL     1      17.066  31.654  19.997  1.00  0.00    -0.262 OA
HETATM   20  N11 UNL     1      15.326  32.895  20.927  1.00  0.00    -0.123 N 
HETATM   21  N12 UNL     1      14.209  32.222  20.635  1.00  0.00    -0.201 N 
HETATM   22  N14 UNL     1      14.597  33.795  21.547  1.00  0.00    -0.201 N 
HETATM   23  N13 UNL     1      13.483  33.121  21.254  1.00  0.00    -0.210 N 
ATOM     24  H12 UNL     1      14.004  31.358  20.135  1.00  0.00     0.212 HD
ATOM     25  H13 UNL     1      12.488  33.250  21.436  1.00  0.00     0.211 HD
ATOM     26  H14 UNL     1      14.800  34.659  22.048  1.00  0.00     0.212 HD
ENDBRANCH  15  18
ENDBRANCH  11  14
ENDBRANCH   1  10
BRANCH   4  27
HETATM   27  N4  UNL     1      24.866  35.910  22.160  1.00  0.00    -0.234 N 
ATOM     28  H42 UNL     1      25.089  36.293  23.078  1.00  0.00     0.174 HD
ATOM     29  H41 UNL     1      25.437  35.190  21.716  1.00  0.00     0.174 HD
ENDBRANCH   4  27
BRANCH   7  30
HETATM   30  C7  UNL     1      22.560  39.470  20.106  1.00  0.00     0.165 A 
HETATM   31  N6  UNL     1      23.611  40.135  19.526  1.00  0.00    -0.267 N 
HETATM   32  N7  UNL     1      23.299  41.393  19.310  1.00  0.00    -0.127 N 
ATOM     33  H6  UNL     1      24.510  39.712  19.295  1.00  0.00     0.189 HD
HETATM   34  C8  UNL     1      24.152  42.417  18.710  1.00  0.00     0.197 C 
HETATM   35  C9  UNL     1      22.043  41.588  19.737  1.00  0.00     0.694 A 
HETATM   36  N9  UNL     1      21.626  40.397  20.214  1.00  0.00    -0.172 N 
ATOM     37  H9  UNL     1      20.701  40.233  20.611  1.00  0.00     0.186 HD
BRANCH  35  38
HETATM   38  N8  UNL     1      21.369  42.686  19.700  1.00  0.00    -0.233 N 
ATOM     39  H82 UNL     1      21.738  43.627  19.567  1.00  0.00     0.174 HD
ATOM     40  H81 UNL     1      20.359  42.794  19.798  1.00  0.00     0.174 HD
ENDBRANCH  35  38
ENDBRANCH   7  30
TORSDOF 6
ENDMDL
