MODEL 1
REMARK VINA RESULT: -6.914691383      0.000      0.000
REMARK  5 active torsions:
REMARK  status: ('A' for Active; 'I' for Inactive)
REMARK    1  A    between atoms: C2_2  and  C3_3 
REMARK    2  A    between atoms: C3_3  and  C4_4 
REMARK    3  A    between atoms: C4_4  and  N1_6 
REMARK    4  A    between atoms: N1_6  and  C6_8 
REMARK    5  A    between atoms: N4_16  and  C9_17 
ROOT
HETATM    1  C6  UNL     1      33.002  74.705  23.112  1.00  0.00     0.117 A 
HETATM    2  N2  UNL     1      32.647  74.566  24.426  1.00  0.00    -0.338 N 
ATOM      3  H2  UNL     1      32.309  75.401  24.904  1.00  0.00     0.168 HD
HETATM    4  C7  UNL     1      32.701  73.452  25.135  1.00  0.00     0.182 A 
HETATM    5  N3  UNL     1      33.151  72.354  24.495  1.00  0.00    -0.345 N 
ATOM      6  H3  UNL     1      33.214  71.467  24.995  1.00  0.00     0.167 HD
HETATM    7  C8  UNL     1      33.521  72.420  23.190  1.00  0.00     0.107 A 
HETATM    8  S1  UNL     1      34.124  71.268  22.074  1.00  0.00     0.007 SA
HETATM    9  N4  UNL     1      34.287  72.262  20.726  1.00  0.00    -0.322 N 
HETATM   10  C12 UNL     1      33.875  73.456  21.163  1.00  0.00     0.117 A 
HETATM   11  C13 UNL     1      33.472  73.560  22.442  1.00  0.00     0.059 A 
ENDROOT
BRANCH   1  12
HETATM   12  N1  UNL     1      32.870  75.839  22.646  1.00  0.00    -0.371 N 
ATOM     13  H1  UNL     1      33.819  76.198  22.540  1.00  0.00     0.161 HD
BRANCH  12  14
HETATM   14  C4  UNL     1      32.058  76.836  22.207  1.00  0.00     0.079 C 
HETATM   15  C5  UNL     1      31.958  76.989  20.686  1.00  0.00     0.032 C 
BRANCH  14  16
HETATM   16  C3  UNL     1      32.394  78.231  22.748  1.00  0.00     0.024 C 
BRANCH  16  17
HETATM   17  C2  UNL     1      31.343  79.206  22.241  1.00  0.00    -0.003 C 
HETATM   18  C1  UNL     1      31.548  80.585  22.828  1.00  0.00     0.005 C 
ENDBRANCH  16  17
ENDBRANCH  14  16
ENDBRANCH  12  14
ENDBRANCH   1  12
BRANCH   9  19
HETATM   19  C9  UNL     1      34.768  71.918  19.372  1.00  0.00     0.088 C 
HETATM   20  C10 UNL     1      34.003  70.693  18.943  1.00  0.00     0.033 C 
HETATM   21  C11 UNL     1      36.232  71.574  19.400  1.00  0.00     0.033 C 
ENDBRANCH   9  19
TORSDOF 5
ENDMDL
MODEL 2
REMARK VINA RESULT: -6.669765303      3.179      4.577
REMARK  5 active torsions:
REMARK  status: ('A' for Active; 'I' for Inactive)
REMARK    1  A    between atoms: C2_2  and  C3_3 
REMARK    2  A    between atoms: C3_3  and  C4_4 
REMARK    3  A    between atoms: C4_4  and  N1_6 
REMARK    4  A    between atoms: N1_6  and  C6_8 
REMARK    5  A    between atoms: N4_16  and  C9_17 
ROOT
HETATM    1  C6  UNL     1      31.999  75.088  21.329  1.00  0.00     0.117 A 
HETATM    2  N2  UNL     1      31.644  73.871  21.846  1.00  0.00    -0.338 N 
ATOM      3  H2  UNL     1      31.766  73.743  22.850  1.00  0.00     0.168 HD
HETATM    4  C7  UNL     1      31.158  72.847  21.167  1.00  0.00     0.182 A 
HETATM    5  N3  UNL     1      31.001  73.027  19.839  1.00  0.00    -0.345 N 
ATOM      6  H3  UNL     1      30.631  72.268  19.266  1.00  0.00     0.167 HD
HETATM    7  C8  UNL     1      31.334  74.210  19.260  1.00  0.00     0.107 A 
HETATM    8  S1  UNL     1      31.276  74.793  17.650  1.00  0.00     0.007 SA
HETATM    9  N4  UNL     1      31.881  76.342  17.905  1.00  0.00    -0.322 N 
HETATM   10  C12 UNL     1      32.114  76.377  19.221  1.00  0.00     0.117 A 
HETATM   11  C13 UNL     1      31.836  75.278  19.944  1.00  0.00     0.059 A 
ENDROOT
BRANCH   1  12
HETATM   12  N1  UNL     1      32.431  75.903  22.147  1.00  0.00    -0.371 N 
ATOM     13  H1  UNL     1      33.428  75.705  22.224  1.00  0.00     0.161 HD
BRANCH  12  14
HETATM   14  C4  UNL     1      32.205  76.942  22.994  1.00  0.00     0.079 C 
HETATM   15  C5  UNL     1      30.932  76.844  23.840  1.00  0.00     0.032 C 
BRANCH  14  16
HETATM   16  C3  UNL     1      32.161  78.323  22.329  1.00  0.00     0.024 C 
BRANCH  16  17
HETATM   17  C2  UNL     1      31.058  79.137  22.989  1.00  0.00    -0.003 C 
HETATM   18  C1  UNL     1      31.446  80.595  23.099  1.00  0.00     0.005 C 
ENDBRANCH  16  17
ENDBRANCH  14  16
ENDBRANCH  12  14
ENDBRANCH   1  12
BRANCH   9  19
HETATM   19  C9  UNL     1      32.109  77.423  16.924  1.00  0.00     0.088 C 
HETATM   20  C10 UNL     1      33.122  78.353  17.537  1.00  0.00     0.033 C 
HETATM   21  C11 UNL     1      30.841  78.198  16.684  1.00  0.00     0.033 C 
ENDBRANCH   9  19
TORSDOF 5
ENDMDL
MODEL 3
REMARK VINA RESULT: -6.667806718      0.896      1.654
REMARK  5 active torsions:
REMARK  status: ('A' for Active; 'I' for Inactive)
REMARK    1  A    between atoms: C2_2  and  C3_3 
REMARK    2  A    between atoms: C3_3  and  C4_4 
REMARK    3  A    between atoms: C4_4  and  N1_6 
REMARK    4  A    between atoms: N1_6  and  C6_8 
REMARK    5  A    between atoms: N4_16  and  C9_17 
ROOT
HETATM    1  C6  UNL     1      33.162  74.709  23.194  1.00  0.00     0.117 A 
HETATM    2  N2  UNL     1      32.625  74.544  24.442  1.00  0.00    -0.338 N 
ATOM      3  H2  UNL     1      32.299  75.384  24.919  1.00  0.00     0.168 HD
HETATM    4  C7  UNL     1      32.489  73.399  25.088  1.00  0.00     0.182 A 
HETATM    5  N3  UNL     1      32.924  72.294  24.450  1.00  0.00    -0.345 N 
ATOM      6  H3  UNL     1      32.844  71.383  24.903  1.00  0.00     0.167 HD
HETATM    7  C8  UNL     1      33.469  72.384  23.209  1.00  0.00     0.107 A 
HETATM    8  S1  UNL     1      34.114  71.233  22.115  1.00  0.00     0.007 SA
HETATM    9  N4  UNL     1      34.539  72.267  20.858  1.00  0.00    -0.322 N 
HETATM   10  C12 UNL     1      34.176  73.474  21.305  1.00  0.00     0.117 A 
HETATM   11  C13 UNL     1      33.617  73.556  22.526  1.00  0.00     0.059 A 
ENDROOT
BRANCH   1  12
HETATM   12  N1  UNL     1      33.191  75.870  22.781  1.00  0.00    -0.371 N 
ATOM     13  H1  UNL     1      34.096  76.238  23.076  1.00  0.00     0.161 HD
BRANCH  12  14
HETATM   14  C4  UNL     1      32.587  76.890  22.117  1.00  0.00     0.079 C 
HETATM   15  C5  UNL     1      31.508  77.644  22.900  1.00  0.00     0.032 C 
BRANCH  14  16
HETATM   16  C3  UNL     1      31.942  76.503  20.781  1.00  0.00     0.024 C 
BRANCH  16  17
HETATM   17  C2  UNL     1      31.751  77.767  19.957  1.00  0.00    -0.003 C 
HETATM   18  C1  UNL     1      31.112  77.458  18.622  1.00  0.00     0.005 C 
ENDBRANCH  16  17
ENDBRANCH  14  16
ENDBRANCH  12  14
ENDBRANCH   1  12
BRANCH   9  19
HETATM   19  C9  UNL     1      35.165  71.942  19.560  1.00  0.00     0.088 C 
HETATM   20  C10 UNL     1      34.495  70.687  19.064  1.00  0.00     0.033 C 
HETATM   21  C11 UNL     1      36.632  71.656  19.734  1.00  0.00     0.033 C 
ENDBRANCH   9  19
TORSDOF 5
ENDMDL
MODEL 4
REMARK VINA RESULT: -6.620763804      2.687      4.488
REMARK  5 active torsions:
REMARK  status: ('A' for Active; 'I' for Inactive)
REMARK    1  A    between atoms: C2_2  and  C3_3 
REMARK    2  A    between atoms: C3_3  and  C4_4 
REMARK    3  A    between atoms: C4_4  and  N1_6 
REMARK    4  A    between atoms: N1_6  and  C6_8 
REMARK    5  A    between atoms: N4_16  and  C9_17 
ROOT
HETATM    1  C6  UNL     1      31.706  77.114  19.668  1.00  0.00     0.117 A 
HETATM    2  N2  UNL     1      31.011  77.687  18.637  1.00  0.00    -0.338 N 
ATOM      3  H2  UNL     1      30.716  78.655  18.761  1.00  0.00     0.168 HD
HETATM    4  C7  UNL     1      30.686  77.104  17.497  1.00  0.00     0.182 A 
HETATM    5  N3  UNL     1      31.080  75.823  17.343  1.00  0.00    -0.345 N 
ATOM      6  H3  UNL     1      30.855  75.324  16.482  1.00  0.00     0.167 HD
HETATM    7  C8  UNL     1      31.773  75.193  18.327  1.00  0.00     0.107 A 
HETATM    8  S1  UNL     1      32.424  73.616  18.488  1.00  0.00     0.007 SA
HETATM    9  N4  UNL     1      33.095  73.759  20.024  1.00  0.00    -0.322 N 
HETATM   10  C12 UNL     1      32.805  75.015  20.379  1.00  0.00     0.117 A 
HETATM   11  C13 UNL     1      32.118  75.778  19.510  1.00  0.00     0.059 A 
ENDROOT
BRANCH   1  12
HETATM   12  N1  UNL     1      31.901  77.843  20.643  1.00  0.00    -0.371 N 
ATOM     13  H1  UNL     1      32.634  78.491  20.353  1.00  0.00     0.161 HD
BRANCH  12  14
HETATM   14  C4  UNL     1      31.600  78.191  21.922  1.00  0.00     0.079 C 
HETATM   15  C5  UNL     1      31.525  79.696  22.200  1.00  0.00     0.032 C 
BRANCH  14  16
HETATM   16  C3  UNL     1      32.540  77.615  22.989  1.00  0.00     0.024 C 
BRANCH  16  17
HETATM   17  C2  UNL     1      31.946  76.310  23.495  1.00  0.00    -0.003 C 
HETATM   18  C1  UNL     1      30.617  76.543  24.179  1.00  0.00     0.005 C 
ENDBRANCH  16  17
ENDBRANCH  14  16
ENDBRANCH  12  14
ENDBRANCH   1  12
BRANCH   9  19
HETATM   19  C9  UNL     1      33.834  72.751  20.811  1.00  0.00     0.088 C 
HETATM   20  C10 UNL     1      33.867  73.255  22.230  1.00  0.00     0.033 C 
HETATM   21  C11 UNL     1      35.251  72.628  20.321  1.00  0.00     0.033 C 
ENDBRANCH   9  19
TORSDOF 5
ENDMDL
MODEL 5
REMARK VINA RESULT: -6.601550923      2.406      2.877
REMARK  5 active torsions:
REMARK  status: ('A' for Active; 'I' for Inactive)
REMARK    1  A    between atoms: C2_2  and  C3_3 
REMARK    2  A    between atoms: C3_3  and  C4_4 
REMARK    3  A    between atoms: C4_4  and  N1_6 
REMARK    4  A    between atoms: N1_6  and  C6_8 
REMARK    5  A    between atoms: N4_16  and  C9_17 
ROOT
HETATM    1  C6  UNL     1      32.187  75.146  23.551  1.00  0.00     0.117 A 
HETATM    2  N2  UNL     1      32.390  74.377  24.665  1.00  0.00    -0.338 N 
ATOM      3  H2  UNL     1      32.426  74.863  25.561  1.00  0.00     0.168 HD
HETATM    4  C7  UNL     1      32.543  73.065  24.690  1.00  0.00     0.182 A 
HETATM    5  N3  UNL     1      32.494  72.431  23.500  1.00  0.00    -0.345 N 
ATOM      6  H3  UNL     1      32.607  71.418  23.461  1.00  0.00     0.167 HD
HETATM    7  C8  UNL     1      32.296  73.133  22.354  1.00  0.00     0.107 A 
HETATM    8  S1  UNL     1      32.178  72.689  20.703  1.00  0.00     0.007 SA
HETATM    9  N4  UNL     1      31.934  74.212  20.033  1.00  0.00    -0.322 N 
HETATM   10  C12 UNL     1      31.948  75.029  21.091  1.00  0.00     0.117 A 
HETATM   11  C13 UNL     1      32.135  74.487  22.308  1.00  0.00     0.059 A 
ENDROOT
BRANCH   1  12
HETATM   12  N1  UNL     1      32.068  76.355  23.758  1.00  0.00    -0.371 N 
ATOM     13  H1  UNL     1      33.015  76.693  23.934  1.00  0.00     0.161 HD
BRANCH  12  14
HETATM   14  C4  UNL     1      31.272  77.452  23.863  1.00  0.00     0.079 C 
HETATM   15  C5  UNL     1      29.829  77.183  24.304  1.00  0.00     0.032 C 
BRANCH  14  16
HETATM   16  C3  UNL     1      31.170  78.304  22.593  1.00  0.00     0.024 C 
BRANCH  16  17
HETATM   17  C2  UNL     1      30.554  79.644  22.963  1.00  0.00    -0.003 C 
HETATM   18  C1  UNL     1      31.621  80.689  23.199  1.00  0.00     0.005 C 
ENDBRANCH  16  17
ENDBRANCH  14  16
ENDBRANCH  12  14
ENDBRANCH   1  12
BRANCH   9  19
HETATM   19  C9  UNL     1      31.746  74.583  18.615  1.00  0.00     0.088 C 
HETATM   20  C10 UNL     1      31.291  76.019  18.604  1.00  0.00     0.033 C 
HETATM   21  C11 UNL     1      30.669  73.742  17.985  1.00  0.00     0.033 C 
ENDBRANCH   9  19
TORSDOF 5
ENDMDL
