MODEL 1
REMARK VINA RESULT: -6.225572987      0.000      0.000
REMARK  11 active torsions:
REMARK  status: ('A' for Active; 'I' for Inactive)
REMARK    1  A    between atoms: C2_2  and  O2_4 
REMARK    2  A    between atoms: O2_4  and  C3_5 
REMARK    3  A    between atoms: C4_6  and  N1_7 
REMARK    4  A    between atoms: N1_7  and  C5_9 
REMARK    5  A    between atoms: C7_11  and  S1_12 
REMARK    6  A    between atoms: S1_12  and  C8_13 
REMARK    7  A    between atoms: C9_18  and  N4_19 
REMARK    8  A    between atoms: C11_23  and  N5_24 
REMARK    9  A    between atoms: C12_29  and  O8_30 
REMARK   10  A    between atoms: C13_32  and  C14_33 
REMARK   11  A    between atoms: C14_33  and  O9_34 
ROOT
HETATM    1  C5  UNL     1      28.430 -30.012  10.902  1.00  0.00     0.064 A 
HETATM    2  C6  UNL     1      28.273 -28.634  11.050  1.00  0.00     0.053 A 
HETATM    3  C7  UNL     1      29.329 -27.756  11.161  1.00  0.00     0.043 A 
HETATM    4  C9  UNL     1      30.620 -28.245  11.127  1.00  0.00     0.122 A 
HETATM    5  C10 UNL     1      30.779 -29.593  10.983  1.00  0.00     0.075 A 
HETATM    6  C11 UNL     1      29.714 -30.505  10.867  1.00  0.00     0.131 A 
ENDROOT
BRANCH   1   7
HETATM    7  N1  UNL     1      27.275 -30.834  10.868  1.00  0.00    -0.366 N 
ATOM      8  H1  UNL     1      27.066 -31.308   9.989  1.00  0.00     0.161 HD
BRANCH   7   9
HETATM    9  C4  UNL     1      26.373 -31.055  11.963  1.00  0.00     0.234 C 
HETATM   10  C3  UNL     1      25.372 -32.147  11.775  1.00  0.00     0.183 C 
HETATM   11  C13 UNL     1      24.362 -31.991  12.899  1.00  0.00     0.099 C 
HETATM   12  C12 UNL     1      25.008 -31.377  14.124  1.00  0.00     0.289 C 
HETATM   13  O7  UNL     1      26.350 -31.611  14.226  1.00  0.00    -0.252 OA
HETATM   14  N6  UNL     1      27.106 -31.385  13.167  1.00  0.00    -0.070 NA
BRANCH  10  15
HETATM   15  O2  UNL     1      24.785 -32.243  10.507  1.00  0.00    -0.312 OA
BRANCH  15  16
HETATM   16  C2  UNL     1      25.004 -33.295   9.649  1.00  0.00     0.255 C 
HETATM   17  C1  UNL     1      24.507 -33.336   8.251  1.00  0.00     0.126 C 
HETATM   18  O1  UNL     1      25.669 -34.278  10.087  1.00  0.00    -0.266 OA
ENDBRANCH  15  16
ENDBRANCH  10  15
BRANCH  11  19
HETATM   19  C14 UNL     1      23.675 -33.292  13.216  1.00  0.00     0.176 C 
BRANCH  19  20
HETATM   20  O9  UNL     1      23.729 -33.517  14.596  1.00  0.00    -0.400 OA
ATOM     21  H9  UNL     1      22.855 -33.705  14.916  1.00  0.00     0.209 HD
ENDBRANCH  19  20
ENDBRANCH  11  19
BRANCH  12  22
HETATM   22  O8  UNL     1      24.656 -30.032  14.272  1.00  0.00    -0.369 OA
ATOM     23  H8  UNL     1      24.352 -29.624  13.470  1.00  0.00     0.212 HD
ENDBRANCH  12  22
ENDBRANCH   7   9
ENDBRANCH   1   7
BRANCH   6  24
HETATM   24  N5  UNL     1      30.028 -31.880  10.719  1.00  0.00    -0.113 N 
HETATM   25  O5  UNL     1      30.564 -32.503  11.632  1.00  0.00    -0.532 OA
HETATM   26  O6  UNL     1      29.716 -32.586   9.575  1.00  0.00    -0.532 OA
ENDBRANCH   6  24
BRANCH   3  27
HETATM   27  S1  UNL     1      29.086 -26.010  11.347  1.00  0.00    -0.056 SA
BRANCH  27  28
HETATM   28  C8  UNL     1      29.106 -25.507  13.054  1.00  0.00     0.152 C 
HETATM   29  N2  UNL     1      30.196 -25.112  13.571  1.00  0.00    -0.382 N 
ATOM     30  H22 UNL     1      31.034 -25.095  12.989  1.00  0.00     0.157 HD
ATOM     31  H21 UNL     1      30.207 -24.823  14.549  1.00  0.00     0.157 HD
HETATM   32  N3  UNL     1      27.936 -25.531  13.865  1.00  0.00    -0.075 NA
ENDBRANCH  27  28
ENDBRANCH   3  27
BRANCH   4  33
HETATM   33  N4  UNL     1      31.745 -27.358  11.235  1.00  0.00    -0.114 N 
HETATM   34  O3  UNL     1      32.307 -26.830  10.267  1.00  0.00    -0.532 OA
HETATM   35  O4  UNL     1      32.211 -27.093  12.493  1.00  0.00    -0.532 OA
ENDBRANCH   4  33
TORSDOF 11
ENDMDL
MODEL 2
REMARK VINA RESULT: -6.076046884      3.478      7.704
REMARK  11 active torsions:
REMARK  status: ('A' for Active; 'I' for Inactive)
REMARK    1  A    between atoms: C2_2  and  O2_4 
REMARK    2  A    between atoms: O2_4  and  C3_5 
REMARK    3  A    between atoms: C4_6  and  N1_7 
REMARK    4  A    between atoms: N1_7  and  C5_9 
REMARK    5  A    between atoms: C7_11  and  S1_12 
REMARK    6  A    between atoms: S1_12  and  C8_13 
REMARK    7  A    between atoms: C9_18  and  N4_19 
REMARK    8  A    between atoms: C11_23  and  N5_24 
REMARK    9  A    between atoms: C12_29  and  O8_30 
REMARK   10  A    between atoms: C13_32  and  C14_33 
REMARK   11  A    between atoms: C14_33  and  O9_34 
ROOT
HETATM    1  C5  UNL     1      27.971 -31.628  10.527  1.00  0.00     0.064 A 
HETATM    2  C6  UNL     1      27.464 -32.097   9.314  1.00  0.00     0.053 A 
HETATM    3  C7  UNL     1      27.419 -33.431   8.975  1.00  0.00     0.043 A 
HETATM    4  C9  UNL     1      27.894 -34.372   9.866  1.00  0.00     0.122 A 
HETATM    5  C10 UNL     1      28.391 -33.918  11.054  1.00  0.00     0.075 A 
HETATM    6  C11 UNL     1      28.446 -32.561  11.421  1.00  0.00     0.131 A 
ENDROOT
BRANCH   1   7
HETATM    7  N1  UNL     1      28.036 -30.229  10.748  1.00  0.00    -0.366 N 
ATOM      8  H1  UNL     1      27.227 -29.788  11.184  1.00  0.00     0.161 HD
BRANCH   7   9
HETATM    9  C4  UNL     1      29.144 -29.380  10.410  1.00  0.00     0.234 C 
HETATM   10  C3  UNL     1      29.522 -28.361  11.434  1.00  0.00     0.183 C 
HETATM   11  C13 UNL     1      30.485 -27.409  10.745  1.00  0.00     0.099 C 
HETATM   12  C12 UNL     1      31.260 -28.120   9.655  1.00  0.00     0.289 C 
HETATM   13  O7  UNL     1      31.406 -29.462   9.856  1.00  0.00    -0.252 OA
HETATM   14  N6  UNL     1      30.334 -30.168  10.169  1.00  0.00    -0.070 NA
BRANCH  10  15
HETATM   15  O2  UNL     1      28.467 -27.712  12.087  1.00  0.00    -0.312 OA
BRANCH  15  16
HETATM   16  C2  UNL     1      28.129 -26.399  11.855  1.00  0.00     0.255 C 
HETATM   17  C1  UNL     1      28.172 -25.341  12.895  1.00  0.00     0.126 C 
HETATM   18  O1  UNL     1      27.762 -26.087  10.686  1.00  0.00    -0.266 OA
ENDBRANCH  15  16
ENDBRANCH  10  15
BRANCH  11  19
HETATM   19  C14 UNL     1      31.395 -26.726  11.730  1.00  0.00     0.176 C 
BRANCH  19  20
HETATM   20  O9  UNL     1      32.130 -27.694  12.425  1.00  0.00    -0.400 OA
ATOM     21  H9  UNL     1      33.040 -27.648  12.155  1.00  0.00     0.209 HD
ENDBRANCH  19  20
ENDBRANCH  11  19
BRANCH  12  22
HETATM   22  O8  UNL     1      30.782 -27.788   8.383  1.00  0.00    -0.369 OA
ATOM     23  H8  UNL     1      29.930 -27.369   8.391  1.00  0.00     0.212 HD
ENDBRANCH  12  22
ENDBRANCH   7   9
ENDBRANCH   1   7
BRANCH   6  24
HETATM   24  N5  UNL     1      28.986 -32.235  12.690  1.00  0.00    -0.113 N 
HETATM   25  O5  UNL     1      28.251 -32.046  13.655  1.00  0.00    -0.532 OA
HETATM   26  O6  UNL     1      30.346 -32.153  12.910  1.00  0.00    -0.532 OA
ENDBRANCH   6  24
BRANCH   3  27
HETATM   27  S1  UNL     1      26.766 -33.985   7.423  1.00  0.00    -0.056 SA
BRANCH  27  28
HETATM   28  C8  UNL     1      24.996 -34.171   7.467  1.00  0.00     0.152 C 
HETATM   29  N2  UNL     1      24.427 -34.891   6.591  1.00  0.00    -0.382 N 
ATOM     30  H22 UNL     1      25.003 -35.345   5.882  1.00  0.00     0.157 HD
ATOM     31  H21 UNL     1      23.412 -34.998   6.616  1.00  0.00     0.157 HD
HETATM   32  N3  UNL     1      24.191 -33.538   8.456  1.00  0.00    -0.075 NA
ENDBRANCH  27  28
ENDBRANCH   3  27
BRANCH   4  33
HETATM   33  N4  UNL     1      27.857 -35.773   9.547  1.00  0.00    -0.114 N 
HETATM   34  O3  UNL     1      26.946 -36.314   8.911  1.00  0.00    -0.532 OA
HETATM   35  O4  UNL     1      28.903 -36.539   9.984  1.00  0.00    -0.532 OA
ENDBRANCH   4  33
TORSDOF 11
ENDMDL
MODEL 3
REMARK VINA RESULT: -6.055537801      1.368      3.258
REMARK  11 active torsions:
REMARK  status: ('A' for Active; 'I' for Inactive)
REMARK    1  A    between atoms: C2_2  and  O2_4 
REMARK    2  A    between atoms: O2_4  and  C3_5 
REMARK    3  A    between atoms: C4_6  and  N1_7 
REMARK    4  A    between atoms: N1_7  and  C5_9 
REMARK    5  A    between atoms: C7_11  and  S1_12 
REMARK    6  A    between atoms: S1_12  and  C8_13 
REMARK    7  A    between atoms: C9_18  and  N4_19 
REMARK    8  A    between atoms: C11_23  and  N5_24 
REMARK    9  A    between atoms: C12_29  and  O8_30 
REMARK   10  A    between atoms: C13_32  and  C14_33 
REMARK   11  A    between atoms: C14_33  and  O9_34 
ROOT
HETATM    1  C5  UNL     1      28.789 -29.698  11.294  1.00  0.00     0.064 A 
HETATM    2  C6  UNL     1      28.387 -28.369  11.430  1.00  0.00     0.053 A 
HETATM    3  C7  UNL     1      29.221 -27.297  11.198  1.00  0.00     0.043 A 
HETATM    4  C9  UNL     1      30.526 -27.526  10.811  1.00  0.00     0.122 A 
HETATM    5  C10 UNL     1      30.923 -28.825  10.676  1.00  0.00     0.075 A 
HETATM    6  C11 UNL     1      30.088 -29.934  10.907  1.00  0.00     0.131 A 
ENDROOT
BRANCH   1   7
HETATM    7  N1  UNL     1      27.872 -30.728  11.625  1.00  0.00    -0.366 N 
ATOM      8  H1  UNL     1      27.442 -30.691  12.549  1.00  0.00     0.161 HD
BRANCH   7   9
HETATM    9  C4  UNL     1      27.496 -31.820  10.770  1.00  0.00     0.234 C 
HETATM   10  C3  UNL     1      26.197 -32.482  11.090  1.00  0.00     0.183 C 
HETATM   11  C13 UNL     1      26.165 -33.763  10.273  1.00  0.00     0.099 C 
HETATM   12  C12 UNL     1      26.962 -33.607   8.994  1.00  0.00     0.289 C 
HETATM   13  O7  UNL     1      27.046 -32.322   8.540  1.00  0.00    -0.252 OA
HETATM   14  N6  UNL     1      27.394 -31.378   9.396  1.00  0.00    -0.070 NA
BRANCH  10  15
HETATM   15  O2  UNL     1      25.916 -32.681  12.448  1.00  0.00    -0.312 OA
BRANCH  15  16
HETATM   16  C2  UNL     1      25.058 -31.882  13.167  1.00  0.00     0.255 C 
HETATM   17  C1  UNL     1      23.590 -31.848  12.953  1.00  0.00     0.126 C 
HETATM   18  O1  UNL     1      25.561 -31.138  14.058  1.00  0.00    -0.266 OA
ENDBRANCH  15  16
ENDBRANCH  10  15
BRANCH  11  19
HETATM   19  C14 UNL     1      24.756 -34.220  10.007  1.00  0.00     0.176 C 
BRANCH  19  20
HETATM   20  O9  UNL     1      24.165 -33.368   9.068  1.00  0.00    -0.400 OA
ATOM     21  H9  UNL     1      23.220 -33.439   9.132  1.00  0.00     0.209 HD
ENDBRANCH  19  20
ENDBRANCH  11  19
BRANCH  12  22
HETATM   22  O8  UNL     1      28.196 -34.260   9.073  1.00  0.00    -0.369 OA
ATOM     23  H8  UNL     1      28.350 -34.689   9.906  1.00  0.00     0.212 HD
ENDBRANCH  12  22
ENDBRANCH   7   9
ENDBRANCH   1   7
BRANCH   6  24
HETATM   24  N5  UNL     1      30.635 -31.229  10.725  1.00  0.00    -0.113 N 
HETATM   25  O5  UNL     1      30.946 -31.628   9.606  1.00  0.00    -0.532 OA
HETATM   26  O6  UNL     1      30.879 -32.079  11.785  1.00  0.00    -0.532 OA
ENDBRANCH   6  24
BRANCH   3  27
HETATM   27  S1  UNL     1      28.670 -25.622  11.382  1.00  0.00    -0.056 SA
BRANCH  27  28
HETATM   28  C8  UNL     1      27.898 -25.338  12.960  1.00  0.00     0.152 C 
HETATM   29  N2  UNL     1      26.654 -25.092  13.006  1.00  0.00    -0.382 N 
ATOM     30  H22 UNL     1      26.129 -25.064  12.132  1.00  0.00     0.157 HD
ATOM     31  H21 UNL     1      26.211 -24.929  13.911  1.00  0.00     0.157 HD
HETATM   32  N3  UNL     1      28.630 -25.377  14.181  1.00  0.00    -0.075 NA
ENDBRANCH  27  28
ENDBRANCH   3  27
BRANCH   4  33
HETATM   33  N4  UNL     1      31.421 -26.431  10.556  1.00  0.00    -0.114 N 
HETATM   34  O3  UNL     1      31.949 -25.748  11.441  1.00  0.00    -0.532 OA
HETATM   35  O4  UNL     1      31.691 -26.140   9.247  1.00  0.00    -0.532 OA
ENDBRANCH   4  33
TORSDOF 11
ENDMDL
MODEL 4
REMARK VINA RESULT: -6.045695488      1.773      3.463
REMARK  11 active torsions:
REMARK  status: ('A' for Active; 'I' for Inactive)
REMARK    1  A    between atoms: C2_2  and  O2_4 
REMARK    2  A    between atoms: O2_4  and  C3_5 
REMARK    3  A    between atoms: C4_6  and  N1_7 
REMARK    4  A    between atoms: N1_7  and  C5_9 
REMARK    5  A    between atoms: C7_11  and  S1_12 
REMARK    6  A    between atoms: S1_12  and  C8_13 
REMARK    7  A    between atoms: C9_18  and  N4_19 
REMARK    8  A    between atoms: C11_23  and  N5_24 
REMARK    9  A    between atoms: C12_29  and  O8_30 
REMARK   10  A    between atoms: C13_32  and  C14_33 
REMARK   11  A    between atoms: C14_33  and  O9_34 
ROOT
HETATM    1  C5  UNL     1      28.689 -29.689  11.346  1.00  0.00     0.064 A 
HETATM    2  C6  UNL     1      28.498 -28.315  11.187  1.00  0.00     0.053 A 
HETATM    3  C7  UNL     1      29.531 -27.421  11.010  1.00  0.00     0.043 A 
HETATM    4  C9  UNL     1      30.831 -27.885  10.984  1.00  0.00     0.122 A 
HETATM    5  C10 UNL     1      31.022 -29.228  11.139  1.00  0.00     0.075 A 
HETATM    6  C11 UNL     1      29.982 -30.158  11.321  1.00  0.00     0.131 A 
ENDROOT
BRANCH   1   7
HETATM    7  N1  UNL     1      27.561 -30.513  11.593  1.00  0.00    -0.366 N 
ATOM      8  H1  UNL     1      26.996 -30.295  12.413  1.00  0.00     0.161 HD
BRANCH   7   9
HETATM    9  C4  UNL     1      27.148 -31.628  10.787  1.00  0.00     0.234 C 
HETATM   10  C3  UNL     1      25.674 -31.828  10.657  1.00  0.00     0.183 C 
HETATM   11  C13 UNL     1      25.490 -33.204  10.038  1.00  0.00     0.099 C 
HETATM   12  C12 UNL     1      26.667 -33.560   9.153  1.00  0.00     0.289 C 
HETATM   13  O7  UNL     1      27.317 -32.481   8.626  1.00  0.00    -0.252 OA
HETATM   14  N6  UNL     1      27.657 -31.497   9.439  1.00  0.00    -0.070 NA
BRANCH  10  15
HETATM   15  O2  UNL     1      24.913 -31.633  11.816  1.00  0.00    -0.312 OA
BRANCH  15  16
HETATM   16  C2  UNL     1      25.106 -32.346  12.976  1.00  0.00     0.255 C 
HETATM   17  C1  UNL     1      24.035 -33.114  13.659  1.00  0.00     0.126 C 
HETATM   18  O1  UNL     1      26.266 -32.339  13.481  1.00  0.00    -0.266 OA
ENDBRANCH  15  16
ENDBRANCH  10  15
BRANCH  11  19
HETATM   19  C14 UNL     1      24.180 -33.315   9.306  1.00  0.00     0.176 C 
BRANCH  19  20
HETATM   20  O9  UNL     1      24.429 -33.555   7.950  1.00  0.00    -0.400 OA
ATOM     21  H9  UNL     1      23.751 -33.140   7.430  1.00  0.00     0.209 HD
ENDBRANCH  19  20
ENDBRANCH  11  19
BRANCH  12  22
HETATM   22  O8  UNL     1      27.515 -34.484   9.771  1.00  0.00    -0.369 OA
ATOM     23  H8  UNL     1      27.504 -35.344   9.367  1.00  0.00     0.212 HD
ENDBRANCH  12  22
ENDBRANCH   7   9
ENDBRANCH   1   7
BRANCH   6  24
HETATM   24  N5  UNL     1      30.328 -31.525  11.466  1.00  0.00    -0.113 N 
HETATM   25  O5  UNL     1      30.576 -32.218  10.482  1.00  0.00    -0.532 OA
HETATM   26  O6  UNL     1      30.442 -32.127  12.702  1.00  0.00    -0.532 OA
ENDBRANCH   6  24
BRANCH   3  27
HETATM   27  S1  UNL     1      29.245 -25.683  10.811  1.00  0.00    -0.056 SA
BRANCH  27  28
HETATM   28  C8  UNL     1      28.733 -25.271   9.156  1.00  0.00     0.152 C 
HETATM   29  N2  UNL     1      27.497 -25.131   8.907  1.00  0.00    -0.382 N 
ATOM     30  H22 UNL     1      26.828 -25.260   9.666  1.00  0.00     0.157 HD
ATOM     31  H21 UNL     1      27.203 -24.895   7.958  1.00  0.00     0.157 HD
HETATM   32  N3  UNL     1      29.667 -25.092   8.096  1.00  0.00    -0.075 NA
ENDBRANCH  27  28
ENDBRANCH   3  27
BRANCH   4  33
HETATM   33  N4  UNL     1      31.931 -26.981  10.795  1.00  0.00    -0.114 N 
HETATM   34  O3  UNL     1      32.448 -26.738   9.698  1.00  0.00    -0.532 OA
HETATM   35  O4  UNL     1      32.426 -26.361  11.910  1.00  0.00    -0.532 OA
ENDBRANCH   4  33
TORSDOF 11
ENDMDL
MODEL 5
REMARK VINA RESULT: -5.930800672      3.177      8.619
REMARK  11 active torsions:
REMARK  status: ('A' for Active; 'I' for Inactive)
REMARK    1  A    between atoms: C2_2  and  O2_4 
REMARK    2  A    between atoms: O2_4  and  C3_5 
REMARK    3  A    between atoms: C4_6  and  N1_7 
REMARK    4  A    between atoms: N1_7  and  C5_9 
REMARK    5  A    between atoms: C7_11  and  S1_12 
REMARK    6  A    between atoms: S1_12  and  C8_13 
REMARK    7  A    between atoms: C9_18  and  N4_19 
REMARK    8  A    between atoms: C11_23  and  N5_24 
REMARK    9  A    between atoms: C12_29  and  O8_30 
REMARK   10  A    between atoms: C13_32  and  C14_33 
REMARK   11  A    between atoms: C14_33  and  O9_34 
ROOT
HETATM    1  C5  UNL     1      30.388 -29.004  10.801  1.00  0.00     0.064 A 
HETATM    2  C6  UNL     1      30.311 -30.397  10.769  1.00  0.00     0.053 A 
HETATM    3  C7  UNL     1      29.127 -31.095  10.872  1.00  0.00     0.043 A 
HETATM    4  C9  UNL     1      27.943 -30.399  11.015  1.00  0.00     0.122 A 
HETATM    5  C10 UNL     1      28.014 -29.036  11.046  1.00  0.00     0.075 A 
HETATM    6  C11 UNL     1      29.212 -28.305  10.943  1.00  0.00     0.131 A 
ENDROOT
BRANCH   1   7
HETATM    7  N1  UNL     1      31.665 -28.388  10.758  1.00  0.00    -0.366 N 
ATOM      8  H1  UNL     1      32.346 -28.678  11.459  1.00  0.00     0.161 HD
BRANCH   7   9
HETATM    9  C4  UNL     1      32.080 -27.390   9.812  1.00  0.00     0.234 C 
HETATM   10  C3  UNL     1      33.395 -26.738  10.086  1.00  0.00     0.183 C 
HETATM   11  C13 UNL     1      33.472 -25.539   9.156  1.00  0.00     0.099 C 
HETATM   12  C12 UNL     1      32.684 -25.790   7.886  1.00  0.00     0.289 C 
HETATM   13  O7  UNL     1      32.567 -27.108   7.551  1.00  0.00    -0.252 OA
HETATM   14  N6  UNL     1      32.182 -27.960   8.485  1.00  0.00    -0.070 NA
BRANCH  10  15
HETATM   15  O2  UNL     1      33.669 -26.424  11.423  1.00  0.00    -0.312 OA
BRANCH  15  16
HETATM   16  C2  UNL     1      32.694 -26.300  12.385  1.00  0.00     0.255 C 
HETATM   17  C1  UNL     1      31.830 -25.102  12.533  1.00  0.00     0.126 C 
HETATM   18  O1  UNL     1      32.534 -27.268  13.184  1.00  0.00    -0.266 OA
ENDBRANCH  15  16
ENDBRANCH  10  15
BRANCH  11  19
HETATM   19  C14 UNL     1      34.897 -25.149   8.867  1.00  0.00     0.176 C 
BRANCH  19  20
HETATM   20  O9  UNL     1      35.257 -25.624   7.601  1.00  0.00    -0.400 OA
ATOM     21  H9  UNL     1      35.046 -26.548   7.543  1.00  0.00     0.209 HD
ENDBRANCH  19  20
ENDBRANCH  11  19
BRANCH  12  22
HETATM   22  O8  UNL     1      31.469 -25.098   7.890  1.00  0.00    -0.369 OA
ATOM     23  H8  UNL     1      31.092 -24.987   8.755  1.00  0.00     0.212 HD
ENDBRANCH  12  22
ENDBRANCH   7   9
ENDBRANCH   1   7
BRANCH   6  24
HETATM   24  N5  UNL     1      29.135 -26.890  10.989  1.00  0.00    -0.113 N 
HETATM   25  O5  UNL     1      29.345 -26.218   9.983  1.00  0.00    -0.532 OA
HETATM   26  O6  UNL     1      28.786 -26.211  12.138  1.00  0.00    -0.532 OA
ENDBRANCH   6  24
BRANCH   3  27
HETATM   27  S1  UNL     1      29.072 -32.866  10.825  1.00  0.00    -0.056 SA
BRANCH  27  28
HETATM   28  C8  UNL     1      29.035 -33.580  12.455  1.00  0.00     0.152 C 
HETATM   29  N2  UNL     1      28.951 -34.840  12.578  1.00  0.00    -0.382 N 
ATOM     30  H22 UNL     1      28.906 -35.411  11.734  1.00  0.00     0.157 HD
ATOM     31  H21 UNL     1      28.930 -35.249  13.513  1.00  0.00     0.157 HD
HETATM   32  N3  UNL     1      29.097 -32.783  13.633  1.00  0.00    -0.075 NA
ENDBRANCH  27  28
ENDBRANCH   3  27
BRANCH   4  33
HETATM   33  N4  UNL     1      26.690 -31.094  11.119  1.00  0.00    -0.114 N 
HETATM   34  O3  UNL     1      25.994 -31.417  10.149  1.00  0.00    -0.532 OA
HETATM   35  O4  UNL     1      26.255 -31.409  12.377  1.00  0.00    -0.532 OA
ENDBRANCH   4  33
TORSDOF 11
ENDMDL
