MODEL 1
REMARK VINA RESULT: -3.218556042      0.000      0.000
REMARK  1 active torsions:
REMARK  status: ('A' for Active; 'I' for Inactive)
REMARK       I    between atoms: C1_4  and  N3_6 
REMARK    1  A    between atoms: N3_6  and  N4_8 
ROOT
HETATM    1  N1  UNL     1      86.055  -6.566   9.477  1.00  0.00    -0.372 N 
ATOM      2  H11 UNL     1      86.256  -5.621   9.805  1.00  0.00     0.158 HD
ATOM      3  H12 UNL     1      86.262  -7.410  10.011  1.00  0.00     0.158 HD
HETATM    4  C1  UNL     1      85.511  -6.728   8.328  1.00  0.00     0.201 C 
HETATM    5  N2  UNL     1      85.232  -8.034   7.874  1.00  0.00    -0.062 NA
HETATM    6  N3  UNL     1      85.224  -5.558   7.588  1.00  0.00    -0.268 N 
ATOM      7  H3  UNL     1      84.300  -5.131   7.644  1.00  0.00     0.190 HD
ENDROOT
BRANCH   6   8
HETATM    8  N4  UNL     1      86.205  -4.993   6.784  1.00  0.00    -0.276 N 
HETATM    9  C2  UNL     1      87.502  -5.412   6.700  1.00  0.00     0.116 A 
HETATM   10  C3  UNL     1      88.163  -4.602   5.799  1.00  0.00     0.021 A 
HETATM   11  C4  UNL     1      87.241  -3.693   5.348  1.00  0.00     0.021 A 
HETATM   12  C5  UNL     1      86.037  -3.928   5.950  1.00  0.00     0.116 A 
ENDBRANCH   6   8
TORSDOF 1
ENDMDL
MODEL 2
REMARK VINA RESULT: -3.206733512      0.025      1.229
REMARK  1 active torsions:
REMARK  status: ('A' for Active; 'I' for Inactive)
REMARK       I    between atoms: C1_4  and  N3_6 
REMARK    1  A    between atoms: N3_6  and  N4_8 
ROOT
HETATM    1  N1  UNL     1      86.060  -6.572   9.473  1.00  0.00    -0.372 N 
ATOM      2  H11 UNL     1      86.259  -5.628   9.805  1.00  0.00     0.158 HD
ATOM      3  H12 UNL     1      86.269  -7.418  10.003  1.00  0.00     0.158 HD
HETATM    4  C1  UNL     1      85.515  -6.729   8.324  1.00  0.00     0.201 C 
HETATM    5  N2  UNL     1      85.239  -8.035   7.864  1.00  0.00    -0.062 NA
HETATM    6  N3  UNL     1      85.225  -5.557   7.589  1.00  0.00    -0.268 N 
ATOM      7  H3  UNL     1      84.300  -5.132   7.648  1.00  0.00     0.190 HD
ENDROOT
BRANCH   6   8
HETATM    8  N4  UNL     1      86.204  -4.986   6.788  1.00  0.00    -0.276 N 
HETATM    9  C2  UNL     1      86.026  -3.921   5.951  1.00  0.00     0.116 A 
HETATM   10  C3  UNL     1      87.228  -3.651   5.329  1.00  0.00     0.021 A 
HETATM   11  C4  UNL     1      88.126  -4.571   5.806  1.00  0.00     0.021 A 
HETATM   12  C5  UNL     1      87.502  -5.393   6.703  1.00  0.00     0.116 A 
ENDBRANCH   6   8
TORSDOF 1
ENDMDL
MODEL 3
REMARK VINA RESULT: -2.631544109      2.158      2.952
REMARK  1 active torsions:
REMARK  status: ('A' for Active; 'I' for Inactive)
REMARK       I    between atoms: C1_4  and  N3_6 
REMARK    1  A    between atoms: N3_6  and  N4_8 
ROOT
HETATM    1  N1  UNL     1      85.793  -4.032  10.506  1.00  0.00    -0.372 N 
ATOM      2  H11 UNL     1      84.971  -4.610  10.331  1.00  0.00     0.158 HD
ATOM      3  H12 UNL     1      85.771  -3.154  11.025  1.00  0.00     0.158 HD
HETATM    4  C1  UNL     1      86.932  -4.411  10.058  1.00  0.00     0.201 C 
HETATM    5  N2  UNL     1      88.070  -3.612  10.300  1.00  0.00    -0.062 NA
HETATM    6  N3  UNL     1      86.962  -5.627   9.338  1.00  0.00    -0.268 N 
ATOM      7  H3  UNL     1      87.186  -6.499   9.818  1.00  0.00     0.190 HD
ENDROOT
BRANCH   6   8
HETATM    8  N4  UNL     1      86.687  -5.631   7.978  1.00  0.00    -0.276 N 
HETATM    9  C2  UNL     1      87.358  -4.914   7.028  1.00  0.00     0.116 A 
HETATM   10  C3  UNL     1      86.791  -5.181   5.800  1.00  0.00     0.021 A 
HETATM   11  C4  UNL     1      85.770  -6.068   6.029  1.00  0.00     0.021 A 
HETATM   12  C5  UNL     1      85.702  -6.348   7.366  1.00  0.00     0.116 A 
ENDBRANCH   6   8
TORSDOF 1
ENDMDL
MODEL 4
REMARK VINA RESULT: -2.615916476      2.139      2.986
REMARK  1 active torsions:
REMARK  status: ('A' for Active; 'I' for Inactive)
REMARK       I    between atoms: C1_4  and  N3_6 
REMARK    1  A    between atoms: N3_6  and  N4_8 
ROOT
HETATM    1  N1  UNL     1      85.779  -4.075  10.464  1.00  0.00    -0.372 N 
ATOM      2  H11 UNL     1      84.974  -4.673  10.275  1.00  0.00     0.158 HD
ATOM      3  H12 UNL     1      85.726  -3.193  10.973  1.00  0.00     0.158 HD
HETATM    4  C1  UNL     1      86.936  -4.433  10.046  1.00  0.00     0.201 C 
HETATM    5  N2  UNL     1      88.050  -3.606  10.307  1.00  0.00    -0.062 NA
HETATM    6  N3  UNL     1      87.010  -5.655   9.339  1.00  0.00    -0.268 N 
ATOM      7  H3  UNL     1      87.241  -6.517   9.832  1.00  0.00     0.190 HD
ENDROOT
BRANCH   6   8
HETATM    8  N4  UNL     1      86.767  -5.677   7.973  1.00  0.00    -0.276 N 
HETATM    9  C2  UNL     1      85.637  -6.159   7.373  1.00  0.00     0.116 A 
HETATM   10  C3  UNL     1      85.771  -6.008   6.009  1.00  0.00     0.021 A 
HETATM   11  C4  UNL     1      86.996  -5.429   5.802  1.00  0.00     0.021 A 
HETATM   12  C5  UNL     1      87.613  -5.224   7.005  1.00  0.00     0.116 A 
ENDBRANCH   6   8
TORSDOF 1
ENDMDL
MODEL 5
REMARK VINA RESULT: -2.213465468      1.512      2.272
REMARK  1 active torsions:
REMARK  status: ('A' for Active; 'I' for Inactive)
REMARK       I    between atoms: C1_4  and  N3_6 
REMARK    1  A    between atoms: N3_6  and  N4_8 
ROOT
HETATM    1  N1  UNL     1      86.140  -6.502   9.526  1.00  0.00    -0.372 N 
ATOM      2  H11 UNL     1      86.325  -7.273   8.884  1.00  0.00     0.158 HD
ATOM      3  H12 UNL     1      85.536  -6.574  10.344  1.00  0.00     0.158 HD
HETATM    4  C1  UNL     1      86.688  -5.363   9.311  1.00  0.00     0.201 C 
HETATM    5  N2  UNL     1      86.433  -4.296  10.199  1.00  0.00    -0.062 NA
HETATM    6  N3  UNL     1      87.526  -5.262   8.177  1.00  0.00    -0.268 N 
ATOM      7  H3  UNL     1      88.531  -5.404   8.269  1.00  0.00     0.190 HD
ENDROOT
BRANCH   6   8
HETATM    8  N4  UNL     1      86.974  -4.968   6.937  1.00  0.00    -0.276 N 
HETATM    9  C2  UNL     1      87.041  -3.760   6.303  1.00  0.00     0.116 A 
HETATM   10  C3  UNL     1      86.376  -3.864   5.098  1.00  0.00     0.021 A 
HETATM   11  C4  UNL     1      85.911  -5.152   5.023  1.00  0.00     0.021 A 
HETATM   12  C5  UNL     1      86.275  -5.834   6.150  1.00  0.00     0.116 A 
ENDBRANCH   6   8
TORSDOF 1
ENDMDL
