MODEL 1
REMARK VINA RESULT: -4.507032846      0.000      0.000
REMARK  0 active torsions:
REMARK  status: ('A' for Active; 'I' for Inactive)
ROOT
HETATM    1  C1  UNL     1      88.450  -5.987   5.698  1.00  0.00     0.068 C 
HETATM    2  C2  UNL     1      87.476  -5.730   6.807  1.00  0.00     0.008 A 
HETATM    3  C3  UNL     1      86.189  -6.217   6.880  1.00  0.00     0.054 A 
HETATM    4  C4  UNL     1      85.642  -5.739   8.063  1.00  0.00     0.089 A 
HETATM    5  N1  UNL     1      84.333  -6.000   8.531  1.00  0.00    -0.099 NA
HETATM    6  C5  UNL     1      86.600  -4.964   8.698  1.00  0.00     0.141 A 
HETATM    7  N2  UNL     1      86.474  -4.269   9.950  1.00  0.00    -0.081 NA
HETATM    8  N3  UNL     1      87.680  -4.992   7.901  1.00  0.00    -0.347 N 
ATOM      9  H3  UNL     1      88.553  -4.506   8.108  1.00  0.00     0.167 HD
ENDROOT
TORSDOF 0
ENDMDL
MODEL 2
REMARK VINA RESULT: -4.324625333      1.116      2.043
REMARK  0 active torsions:
REMARK  status: ('A' for Active; 'I' for Inactive)
ROOT
HETATM    1  C1  UNL     1      88.412  -5.877   5.586  1.00  0.00     0.068 C 
HETATM    2  C2  UNL     1      87.472  -5.880   6.753  1.00  0.00     0.008 A 
HETATM    3  C3  UNL     1      87.446  -4.950   7.770  1.00  0.00     0.054 A 
HETATM    4  C4  UNL     1      86.430  -5.327   8.637  1.00  0.00     0.089 A 
HETATM    5  N1  UNL     1      86.060  -4.646   9.820  1.00  0.00    -0.099 NA
HETATM    6  C5  UNL     1      85.847  -6.483   8.140  1.00  0.00     0.141 A 
HETATM    7  N2  UNL     1      84.757  -7.228   8.711  1.00  0.00    -0.081 NA
HETATM    8  N3  UNL     1      86.511  -6.771   7.010  1.00  0.00    -0.347 N 
ATOM      9  H3  UNL     1      86.305  -7.575   6.417  1.00  0.00     0.167 HD
ENDROOT
TORSDOF 0
ENDMDL
MODEL 3
REMARK VINA RESULT: -3.950775522      1.850      3.415
REMARK  0 active torsions:
REMARK  status: ('A' for Active; 'I' for Inactive)
ROOT
HETATM    1  C1  UNL     1      85.067  -6.738   8.518  1.00  0.00     0.068 C 
HETATM    2  C2  UNL     1      85.978  -6.071   7.533  1.00  0.00     0.008 A 
HETATM    3  C3  UNL     1      87.074  -6.648   6.928  1.00  0.00     0.054 A 
HETATM    4  C4  UNL     1      87.629  -5.687   6.094  1.00  0.00     0.089 A 
HETATM    5  N1  UNL     1      88.774  -5.861   5.282  1.00  0.00    -0.099 NA
HETATM    6  C5  UNL     1      86.867  -4.534   6.200  1.00  0.00     0.141 A 
HETATM    7  N2  UNL     1      87.071  -3.284   5.518  1.00  0.00    -0.081 NA
HETATM    8  N3  UNL     1      85.891  -4.819   7.076  1.00  0.00    -0.347 N 
ATOM      9  H3  UNL     1      85.168  -4.157   7.360  1.00  0.00     0.167 HD
ENDROOT
TORSDOF 0
ENDMDL
MODEL 4
REMARK VINA RESULT: -3.860662973      2.104      3.470
REMARK  0 active torsions:
REMARK  status: ('A' for Active; 'I' for Inactive)
ROOT
HETATM    1  C1  UNL     1      85.144  -6.908   8.536  1.00  0.00     0.068 C 
HETATM    2  C2  UNL     1      86.014  -6.181   7.558  1.00  0.00     0.008 A 
HETATM    3  C3  UNL     1      85.845  -4.879   7.138  1.00  0.00     0.054 A 
HETATM    4  C4  UNL     1      86.865  -4.608   6.237  1.00  0.00     0.089 A 
HETATM    5  N1  UNL     1      87.066  -3.380   5.563  1.00  0.00    -0.099 NA
HETATM    6  C5  UNL     1      87.645  -5.747   6.115  1.00  0.00     0.141 A 
HETATM    7  N2  UNL     1      88.810  -5.926   5.290  1.00  0.00    -0.081 NA
HETATM    8  N3  UNL     1      87.090  -6.660   6.927  1.00  0.00    -0.347 N 
ATOM      9  H3  UNL     1      87.448  -7.608   7.049  1.00  0.00     0.167 HD
ENDROOT
TORSDOF 0
ENDMDL
MODEL 5
REMARK VINA RESULT: -3.670188893      1.474      2.619
REMARK  0 active torsions:
REMARK  status: ('A' for Active; 'I' for Inactive)
ROOT
HETATM    1  C1  UNL     1      84.847  -8.005   7.945  1.00  0.00     0.068 C 
HETATM    2  C2  UNL     1      85.696  -6.771   7.902  1.00  0.00     0.008 A 
HETATM    3  C3  UNL     1      86.039  -6.066   6.769  1.00  0.00     0.054 A 
HETATM    4  C4  UNL     1      86.829  -5.001   7.178  1.00  0.00     0.089 A 
HETATM    5  N1  UNL     1      87.399  -4.022   6.330  1.00  0.00    -0.099 NA
HETATM    6  C5  UNL     1      86.961  -5.068   8.556  1.00  0.00     0.141 A 
HETATM    7  N2  UNL     1      87.694  -4.172   9.410  1.00  0.00    -0.081 NA
HETATM    8  N3  UNL     1      86.263  -6.148   8.939  1.00  0.00    -0.347 N 
ATOM      9  H3  UNL     1      86.176  -6.458   9.907  1.00  0.00     0.167 HD
ENDROOT
TORSDOF 0
ENDMDL
