MODEL 1
REMARK VINA RESULT: -8.571947246      0.000      0.000
REMARK  4 active torsions:
REMARK  status: ('A' for Active; 'I' for Inactive)
REMARK    1  A    between atoms: C2_2  and  N1_3 
REMARK       I    between atoms: C3_5  and  N3_7 
REMARK    2  A    between atoms: C7_14  and  O1_15 
REMARK    3  A    between atoms: C7_14  and  C8_17 
REMARK    4  A    between atoms: C10_21  and  N7_22 
ROOT
HETATM    1  C1  UNL     1       2.439  19.014  23.740  1.00  0.00     0.041 C 
HETATM    2  C2  UNL     1       3.823  19.155  24.385  1.00  0.00     0.057 C 
HETATM    3  C5  UNL     1       4.465  17.825  24.345  1.00  0.00     0.036 C 
HETATM    4  C6  UNL     1       5.582  17.671  23.371  1.00  0.00     0.050 C 
HETATM    5  C7  UNL     1       5.343  18.316  22.039  1.00  0.00     0.138 C 
HETATM    6  C9  UNL     1       4.559  19.595  22.125  1.00  0.00     0.082 C 
HETATM    7  C10 UNL     1       4.580  20.159  23.533  1.00  0.00     0.214 C 
ENDROOT
BRANCH   2   8
HETATM    8  N1  UNL     1       3.713  19.720  25.698  1.00  0.00    -0.353 N 
HETATM    9  C3  UNL     1       3.246  19.240  26.757  1.00  0.00     0.191 C 
HETATM   10  N2  UNL     1       3.253  20.014  27.947  1.00  0.00    -0.063 NA
HETATM   11  N3  UNL     1       2.713  17.934  26.784  1.00  0.00    -0.307 N 
HETATM   12  C4  UNL     1       1.889  17.502  27.669  1.00  0.00     0.203 C 
ATOM     13  H3  UNL     1       3.001  17.288  26.049  1.00  0.00     0.170 HD
HETATM   14  N4  UNL     1       1.413  16.169  27.602  1.00  0.00    -0.066 NA
HETATM   15  N5  UNL     1       1.439  18.336  28.722  1.00  0.00    -0.066 NA
ATOM     16  H1  UNL     1       4.074  20.669  25.784  1.00  0.00     0.163 HD
ENDBRANCH   2   8
BRANCH   7  17
HETATM   17  N7  UNL     1       3.988  21.455  23.572  1.00  0.00    -0.073 N 
ATOM     18  H73 UNL     1       3.201  21.520  22.926  1.00  0.00     0.274 HD
ATOM     19  H72 UNL     1       3.490  21.607  24.449  1.00  0.00     0.274 HD
ATOM     20  H71 UNL     1       4.668  22.195  23.400  1.00  0.00     0.274 HD
ENDBRANCH   7  17
BRANCH   5  21
HETATM   21  O1  UNL     1       4.706  17.434  21.171  1.00  0.00    -0.380 OA
ATOM     22  H1  UNL     1       4.155  16.828  21.651  1.00  0.00     0.211 HD
ENDBRANCH   5  21
BRANCH   5  23
HETATM   23  C8  UNL     1       6.669  18.638  21.452  1.00  0.00     0.265 C 
HETATM   24  N6  UNL     1       7.814  17.843  21.736  1.00  0.00    -0.059 NA
HETATM   25  O2  UNL     1       6.829  19.629  20.680  1.00  0.00    -0.273 OA
ENDBRANCH   5  23
TORSDOF 4
ENDMDL
MODEL 2
REMARK VINA RESULT: -8.321034679      1.039      1.129
REMARK  4 active torsions:
REMARK  status: ('A' for Active; 'I' for Inactive)
REMARK    1  A    between atoms: C2_2  and  N1_3 
REMARK       I    between atoms: C3_5  and  N3_7 
REMARK    2  A    between atoms: C7_14  and  O1_15 
REMARK    3  A    between atoms: C7_14  and  C8_17 
REMARK    4  A    between atoms: C10_21  and  N7_22 
ROOT
HETATM    1  C1  UNL     1       2.312  18.445  23.722  1.00  0.00     0.041 C 
HETATM    2  C2  UNL     1       3.544  18.577  24.625  1.00  0.00     0.057 C 
HETATM    3  C5  UNL     1       4.330  17.334  24.481  1.00  0.00     0.036 C 
HETATM    4  C6  UNL     1       5.603  17.454  23.716  1.00  0.00     0.050 C 
HETATM    5  C7  UNL     1       5.517  18.313  22.490  1.00  0.00     0.138 C 
HETATM    6  C9  UNL     1       4.591  19.485  22.644  1.00  0.00     0.082 C 
HETATM    7  C10 UNL     1       4.314  19.780  24.106  1.00  0.00     0.214 C 
ENDROOT
BRANCH   2   8
HETATM    8  N1  UNL     1       3.155  18.878  25.971  1.00  0.00    -0.353 N 
HETATM    9  C3  UNL     1       2.695  18.140  26.873  1.00  0.00     0.191 C 
HETATM   10  N2  UNL     1       2.383  18.688  28.145  1.00  0.00    -0.063 NA
HETATM   11  N3  UNL     1       2.482  16.765  26.641  1.00  0.00    -0.307 N 
HETATM   12  C4  UNL     1       1.685  16.026  27.326  1.00  0.00     0.203 C 
ATOM     13  H3  UNL     1       2.996  16.327  25.876  1.00  0.00     0.170 HD
HETATM   14  N4  UNL     1       1.545  14.652  27.007  1.00  0.00    -0.066 NA
HETATM   15  N5  UNL     1       0.935  16.557  28.403  1.00  0.00    -0.066 NA
ATOM     16  H1  UNL     1       3.272  19.855  26.239  1.00  0.00     0.163 HD
ENDBRANCH   2   8
BRANCH   7  17
HETATM   17  N7  UNL     1       3.581  20.993  24.253  1.00  0.00    -0.073 N 
ATOM     18  H73 UNL     1       2.943  21.135  23.469  1.00  0.00     0.274 HD
ATOM     19  H72 UNL     1       2.898  20.922  25.007  1.00  0.00     0.274 HD
ATOM     20  H71 UNL     1       4.192  21.799  24.382  1.00  0.00     0.274 HD
ENDBRANCH   7  17
BRANCH   5  21
HETATM   21  O1  UNL     1       5.137  17.557  21.385  1.00  0.00    -0.380 OA
ATOM     22  H1  UNL     1       4.287  17.835  21.063  1.00  0.00     0.211 HD
ENDBRANCH   5  21
BRANCH   5  23
HETATM   23  C8  UNL     1       6.877  18.845  22.218  1.00  0.00     0.265 C 
HETATM   24  N6  UNL     1       7.753  19.205  23.280  1.00  0.00    -0.059 NA
HETATM   25  O2  UNL     1       7.305  18.999  21.036  1.00  0.00    -0.273 OA
ENDBRANCH   5  23
TORSDOF 4
ENDMDL
MODEL 3
REMARK VINA RESULT: -7.988762785      1.153      1.153
REMARK  4 active torsions:
REMARK  status: ('A' for Active; 'I' for Inactive)
REMARK    1  A    between atoms: C2_2  and  N1_3 
REMARK       I    between atoms: C3_5  and  N3_7 
REMARK    2  A    between atoms: C7_14  and  O1_15 
REMARK    3  A    between atoms: C7_14  and  C8_17 
REMARK    4  A    between atoms: C10_21  and  N7_22 
ROOT
HETATM    1  C1  UNL     1       2.075  18.338  24.117  1.00  0.00     0.041 C 
HETATM    2  C2  UNL     1       3.390  19.054  24.444  1.00  0.00     0.057 C 
HETATM    3  C5  UNL     1       4.477  18.062  24.307  1.00  0.00     0.036 C 
HETATM    4  C6  UNL     1       5.362  18.228  23.120  1.00  0.00     0.050 C 
HETATM    5  C7  UNL     1       4.647  18.587  21.852  1.00  0.00     0.138 C 
HETATM    6  C9  UNL     1       3.461  19.484  22.066  1.00  0.00     0.082 C 
HETATM    7  C10 UNL     1       3.526  20.167  23.419  1.00  0.00     0.214 C 
ENDROOT
BRANCH   2   8
HETATM    8  N1  UNL     1       3.319  19.678  25.732  1.00  0.00    -0.353 N 
HETATM    9  C3  UNL     1       2.925  19.234  26.835  1.00  0.00     0.191 C 
HETATM   10  N2  UNL     1       2.955  20.066  27.985  1.00  0.00    -0.063 NA
HETATM   11  N3  UNL     1       2.450  17.910  26.951  1.00  0.00    -0.307 N 
HETATM   12  C4  UNL     1       1.689  17.490  27.896  1.00  0.00     0.203 C 
ATOM     13  H3  UNL     1       2.730  17.241  26.234  1.00  0.00     0.170 HD
HETATM   14  N4  UNL     1       1.268  16.137  27.917  1.00  0.00    -0.066 NA
HETATM   15  N5  UNL     1       1.254  18.356  28.929  1.00  0.00    -0.066 NA
ATOM     16  H1  UNL     1       3.643  20.645  25.755  1.00  0.00     0.163 HD
ENDBRANCH   2   8
BRANCH   7  17
HETATM   17  N7  UNL     1       2.498  21.145  23.546  1.00  0.00    -0.073 N 
ATOM     18  H73 UNL     1       1.616  20.718  23.830  1.00  0.00     0.274 HD
ATOM     19  H72 UNL     1       2.656  21.744  24.357  1.00  0.00     0.274 HD
ATOM     20  H71 UNL     1       2.384  21.697  22.696  1.00  0.00     0.274 HD
ENDBRANCH   7  17
BRANCH   5  21
HETATM   21  O1  UNL     1       4.251  17.441  21.168  1.00  0.00    -0.380 OA
ATOM     22  H1  UNL     1       3.407  17.572  20.752  1.00  0.00     0.211 HD
ENDBRANCH   5  21
BRANCH   5  23
HETATM   23  C8  UNL     1       5.610  19.312  20.983  1.00  0.00     0.265 C 
HETATM   24  N6  UNL     1       5.168  20.051  19.851  1.00  0.00    -0.059 NA
HETATM   25  O2  UNL     1       6.854  19.299  21.217  1.00  0.00    -0.273 OA
ENDBRANCH   5  23
TORSDOF 4
ENDMDL
MODEL 4
REMARK VINA RESULT: -7.595105829      2.988      6.194
REMARK  4 active torsions:
REMARK  status: ('A' for Active; 'I' for Inactive)
REMARK    1  A    between atoms: C2_2  and  N1_3 
REMARK       I    between atoms: C3_5  and  N3_7 
REMARK    2  A    between atoms: C7_14  and  O1_15 
REMARK    3  A    between atoms: C7_14  and  C8_17 
REMARK    4  A    between atoms: C10_21  and  N7_22 
ROOT
HETATM    1  C1  UNL     1       3.957  20.148  24.753  1.00  0.00     0.041 C 
HETATM    2  C2  UNL     1       3.569  18.772  24.200  1.00  0.00     0.057 C 
HETATM    3  C5  UNL     1       4.359  17.762  24.936  1.00  0.00     0.036 C 
HETATM    4  C6  UNL     1       3.603  16.932  25.915  1.00  0.00     0.050 C 
HETATM    5  C7  UNL     1       2.596  17.688  26.730  1.00  0.00     0.138 C 
HETATM    6  C9  UNL     1       1.924  18.798  25.972  1.00  0.00     0.082 C 
HETATM    7  C10 UNL     1       2.083  18.616  24.474  1.00  0.00     0.214 C 
ENDROOT
BRANCH   2   8
HETATM    8  N1  UNL     1       3.738  18.732  22.778  1.00  0.00    -0.353 N 
HETATM    9  C3  UNL     1       4.777  18.700  22.079  1.00  0.00     0.191 C 
HETATM   10  N2  UNL     1       4.678  18.665  20.663  1.00  0.00    -0.063 NA
HETATM   11  N3  UNL     1       6.053  18.699  22.683  1.00  0.00    -0.307 N 
HETATM   12  C4  UNL     1       7.138  19.049  22.093  1.00  0.00     0.203 C 
ATOM     13  H3  UNL     1       6.117  18.398  23.655  1.00  0.00     0.170 HD
HETATM   14  N4  UNL     1       8.369  19.010  22.794  1.00  0.00    -0.066 NA
HETATM   15  N5  UNL     1       7.134  19.480  20.743  1.00  0.00    -0.066 NA
ATOM     16  H1  UNL     1       2.868  18.730  22.246  1.00  0.00     0.163 HD
ENDBRANCH   2   8
BRANCH   7  17
HETATM   17  N7  UNL     1       1.300  19.568  23.759  1.00  0.00    -0.073 N 
ATOM     18  H73 UNL     1       1.025  19.208  22.845  1.00  0.00     0.274 HD
ATOM     19  H72 UNL     1       0.375  19.674  24.176  1.00  0.00     0.274 HD
ATOM     20  H71 UNL     1       1.772  20.468  23.674  1.00  0.00     0.274 HD
ENDBRANCH   7  17
BRANCH   5  21
HETATM   21  O1  UNL     1       3.179  18.196  27.887  1.00  0.00    -0.380 OA
ATOM     22  H1  UNL     1       3.883  18.796  27.673  1.00  0.00     0.211 HD
ENDBRANCH   5  21
BRANCH   5  23
HETATM   23  C8  UNL     1       1.543  16.727  27.148  1.00  0.00     0.265 C 
HETATM   24  N6  UNL     1       1.006  16.748  28.465  1.00  0.00    -0.059 NA
HETATM   25  O2  UNL     1       1.087  15.855  26.350  1.00  0.00    -0.273 OA
ENDBRANCH   5  23
TORSDOF 4
ENDMDL
MODEL 5
REMARK VINA RESULT: -7.512020189      2.955      6.219
REMARK  4 active torsions:
REMARK  status: ('A' for Active; 'I' for Inactive)
REMARK    1  A    between atoms: C2_2  and  N1_3 
REMARK       I    between atoms: C3_5  and  N3_7 
REMARK    2  A    between atoms: C7_14  and  O1_15 
REMARK    3  A    between atoms: C7_14  and  C8_17 
REMARK    4  A    between atoms: C10_21  and  N7_22 
ROOT
HETATM    1  C1  UNL     1       3.594  21.056  24.350  1.00  0.00     0.041 C 
HETATM    2  C2  UNL     1       3.445  19.536  24.220  1.00  0.00     0.057 C 
HETATM    3  C5  UNL     1       4.378  18.918  25.187  1.00  0.00     0.036 C 
HETATM    4  C6  UNL     1       3.751  18.290  26.384  1.00  0.00     0.050 C 
HETATM    5  C7  UNL     1       2.620  19.072  26.981  1.00  0.00     0.138 C 
HETATM    6  C9  UNL     1       1.789  19.797  25.961  1.00  0.00     0.082 C 
HETATM    7  C10 UNL     1       2.000  19.225  24.572  1.00  0.00     0.214 C 
ENDROOT
BRANCH   2   8
HETATM    8  N1  UNL     1       3.643  19.122  22.862  1.00  0.00    -0.353 N 
HETATM    9  C3  UNL     1       4.696  18.880  22.227  1.00  0.00     0.191 C 
HETATM   10  N2  UNL     1       4.625  18.479  20.867  1.00  0.00    -0.063 NA
HETATM   11  N3  UNL     1       5.957  18.999  22.848  1.00  0.00    -0.307 N 
HETATM   12  C4  UNL     1       7.066  19.153  22.220  1.00  0.00     0.203 C 
ATOM     13  H3  UNL     1       5.990  18.961  23.867  1.00  0.00     0.170 HD
HETATM   14  N4  UNL     1       8.280  19.263  22.944  1.00  0.00    -0.066 NA
HETATM   15  N5  UNL     1       7.106  19.217  20.806  1.00  0.00    -0.066 NA
ATOM     16  H1  UNL     1       2.785  19.006  22.324  1.00  0.00     0.163 HD
ENDBRANCH   2   8
BRANCH   7  17
HETATM   17  N7  UNL     1       1.085  19.795  23.641  1.00  0.00    -0.073 N 
ATOM     18  H73 UNL     1       0.599  20.596  24.044  1.00  0.00     0.274 HD
ATOM     19  H72 UNL     1       1.576  20.269  22.883  1.00  0.00     0.274 HD
ATOM     20  H71 UNL     1       0.424  19.107  23.279  1.00  0.00     0.274 HD
ENDBRANCH   7  17
BRANCH   5  21
HETATM   21  O1  UNL     1       3.091  19.975  27.929  1.00  0.00    -0.380 OA
ATOM     22  H1  UNL     1       3.052  19.599  28.800  1.00  0.00     0.211 HD
ENDBRANCH   5  21
BRANCH   5  23
HETATM   23  C8  UNL     1       1.732  18.111  27.685  1.00  0.00     0.265 C 
HETATM   24  N6  UNL     1       1.131  18.440  28.932  1.00  0.00    -0.059 NA
HETATM   25  O2  UNL     1       1.479  16.967  27.204  1.00  0.00    -0.273 OA
ENDBRANCH   5  23
TORSDOF 4
ENDMDL
