MODEL 1
REMARK VINA RESULT: -3.622966649      0.000      0.000
REMARK  1 active torsions:
REMARK  status: ('A' for Active; 'I' for Inactive)
REMARK    1  A    between atoms: N1_2  and  C4_5 
ROOT
HETATM    1  C4  UNL     1      -7.417  31.303  34.529  1.00  0.00     0.387 C 
HETATM    2  C5  UNL     1      -6.027  30.892  34.054  1.00  0.00     0.090 C 
HETATM    3  C6  UNL     1      -6.354  31.946  32.984  1.00  0.00     0.238 C 
HETATM    4  N2  UNL     1      -7.745  31.479  33.141  1.00  0.00    -0.046 N 
ATOM      5  H21 UNL     1      -8.540  32.044  32.843  1.00  0.00     0.279 HD
ATOM      6  H22 UNL     1      -8.124  30.717  32.578  1.00  0.00     0.279 HD
ENDROOT
BRANCH   1   7
HETATM    7  N1  UNL     1      -8.133  30.386  35.301  1.00  0.00    -0.050 N 
HETATM    8  C1  UNL     1      -9.315  29.948  34.545  1.00  0.00     0.274 C 
HETATM    9  C2  UNL     1      -8.573  30.797  36.588  1.00  0.00     0.274 C 
HETATM   10  C3  UNL     1      -7.336  29.162  35.490  1.00  0.00     0.274 C 
ENDBRANCH   1   7
TORSDOF 1
ENDMDL
MODEL 2
REMARK VINA RESULT: -3.622150285      2.364      3.116
REMARK  1 active torsions:
REMARK  status: ('A' for Active; 'I' for Inactive)
REMARK    1  A    between atoms: N1_2  and  C4_5 
ROOT
HETATM    1  C4  UNL     1      -7.515  28.852  36.403  1.00  0.00     0.387 C 
HETATM    2  C5  UNL     1      -7.828  30.035  35.492  1.00  0.00     0.090 C 
HETATM    3  C6  UNL     1      -6.405  29.715  35.006  1.00  0.00     0.238 C 
HETATM    4  N2  UNL     1      -6.158  29.324  36.407  1.00  0.00    -0.046 N 
ATOM      5  H21 UNL     1      -5.379  28.720  36.668  1.00  0.00     0.279 HD
ATOM      6  H22 UNL     1      -5.823  29.992  37.101  1.00  0.00     0.279 HD
ENDROOT
BRANCH   1   7
HETATM    7  N1  UNL     1      -8.221  28.758  37.604  1.00  0.00    -0.050 N 
HETATM    8  C1  UNL     1      -9.521  29.425  37.445  1.00  0.00     0.274 C 
HETATM    9  C2  UNL     1      -7.611  29.277  38.778  1.00  0.00     0.274 C 
HETATM   10  C3  UNL     1      -8.554  27.351  37.880  1.00  0.00     0.274 C 
ENDBRANCH   1   7
TORSDOF 1
ENDMDL
MODEL 3
REMARK VINA RESULT: -3.596444748      2.379      3.165
REMARK  1 active torsions:
REMARK  status: ('A' for Active; 'I' for Inactive)
REMARK    1  A    between atoms: N1_2  and  C4_5 
ROOT
HETATM    1  C4  UNL     1      -7.554  28.889  36.334  1.00  0.00     0.387 C 
HETATM    2  C5  UNL     1      -7.736  30.065  35.380  1.00  0.00     0.090 C 
HETATM    3  C6  UNL     1      -6.295  29.671  35.018  1.00  0.00     0.238 C 
HETATM    4  N2  UNL     1      -6.181  29.300  36.441  1.00  0.00    -0.046 N 
ATOM      5  H21 UNL     1      -5.455  28.668  36.776  1.00  0.00     0.279 HD
ATOM      6  H22 UNL     1      -5.873  29.967  37.148  1.00  0.00     0.279 HD
ENDROOT
BRANCH   1   7
HETATM    7  N1  UNL     1      -8.359  28.854  37.475  1.00  0.00    -0.050 N 
HETATM    8  C1  UNL     1      -8.587  27.452  37.853  1.00  0.00     0.274 C 
HETATM    9  C2  UNL     1      -9.625  29.496  37.418  1.00  0.00     0.274 C 
HETATM   10  C3  UNL     1      -7.634  29.436  38.617  1.00  0.00     0.274 C 
ENDBRANCH   1   7
TORSDOF 1
ENDMDL
MODEL 4
REMARK VINA RESULT: -3.595407314      2.350      3.320
REMARK  1 active torsions:
REMARK  status: ('A' for Active; 'I' for Inactive)
REMARK    1  A    between atoms: N1_2  and  C4_5 
ROOT
HETATM    1  C4  UNL     1      -7.503  28.867  36.290  1.00  0.00     0.387 C 
HETATM    2  C5  UNL     1      -7.744  30.050  35.357  1.00  0.00     0.090 C 
HETATM    3  C6  UNL     1      -6.290  29.726  34.979  1.00  0.00     0.238 C 
HETATM    4  N2  UNL     1      -6.149  29.336  36.395  1.00  0.00    -0.046 N 
ATOM      5  H21 UNL     1      -5.392  28.731  36.714  1.00  0.00     0.279 HD
ATOM      6  H22 UNL     1      -5.865  30.004  37.112  1.00  0.00     0.279 HD
ENDROOT
BRANCH   1   7
HETATM    7  N1  UNL     1      -8.297  28.776  37.436  1.00  0.00    -0.050 N 
HETATM    8  C1  UNL     1      -7.598  29.430  38.551  1.00  0.00     0.274 C 
HETATM    9  C2  UNL     1      -8.691  27.483  37.872  1.00  0.00     0.274 C 
HETATM   10  C3  UNL     1      -9.529  29.561  37.253  1.00  0.00     0.274 C 
ENDBRANCH   1   7
TORSDOF 1
ENDMDL
MODEL 5
REMARK VINA RESULT: -3.585785617      0.136      1.424
REMARK  1 active torsions:
REMARK  status: ('A' for Active; 'I' for Inactive)
REMARK    1  A    between atoms: N1_2  and  C4_5 
ROOT
HETATM    1  C4  UNL     1      -7.449  31.205  34.594  1.00  0.00     0.387 C 
HETATM    2  C5  UNL     1      -6.056  30.836  34.091  1.00  0.00     0.090 C 
HETATM    3  C6  UNL     1      -6.414  31.921  33.062  1.00  0.00     0.238 C 
HETATM    4  N2  UNL     1      -7.794  31.423  33.217  1.00  0.00    -0.046 N 
ATOM      5  H21 UNL     1      -8.602  31.984  32.946  1.00  0.00     0.279 HD
ATOM      6  H22 UNL     1      -8.165  30.675  32.631  1.00  0.00     0.279 HD
ENDROOT
BRANCH   1   7
HETATM    7  N1  UNL     1      -8.140  30.248  35.340  1.00  0.00    -0.050 N 
HETATM    8  C1  UNL     1      -8.587  30.859  36.600  1.00  0.00     0.274 C 
HETATM    9  C2  UNL     1      -7.465  29.040  35.662  1.00  0.00     0.274 C 
HETATM   10  C3  UNL     1      -9.382  29.873  34.644  1.00  0.00     0.274 C 
ENDBRANCH   1   7
TORSDOF 1
ENDMDL
