MODEL 1
REMARK VINA RESULT: -6.693035614      0.000      0.000
REMARK  4 active torsions:
REMARK  status: ('A' for Active; 'I' for Inactive)
REMARK    1  A    between atoms: C2_2  and  O1_5 
REMARK    2  A    between atoms: O1_5  and  C5_6 
REMARK    3  A    between atoms: C5_6  and  N1_7 
REMARK    4  A    between atoms: C5_6  and  C6_11 
REMARK       I    between atoms: N3_18  and  C12_19 
ROOT
HETATM    1  C6  UNL     1      55.842  48.750  34.829  1.00  0.00     0.144 C 
HETATM    2  C7  UNL     1      55.414  48.511  33.401  1.00  0.00     0.030 C 
HETATM    3  C8  UNL     1      56.139  49.392  32.418  1.00  0.00     0.005 C 
HETATM    4  C9  UNL     1      57.636  49.288  32.536  1.00  0.00     0.040 C 
HETATM    5  C10 UNL     1      58.078  48.658  33.827  1.00  0.00     0.195 C 
HETATM    6  C11 UNL     1      59.453  48.946  34.146  1.00  0.00     0.084 C 
HETATM    7  N2  UNL     1      60.559  49.189  34.417  1.00  0.00    -0.195 NA
HETATM    8  N3  UNL     1      57.209  49.216  34.877  1.00  0.00    -0.330 N 
HETATM    9  C12 UNL     1      57.719  50.121  35.823  1.00  0.00     0.185 C 
HETATM   10  N4  UNL     1      57.821  49.778  37.055  1.00  0.00    -0.374 N 
ATOM     11  H41 UNL     1      58.191  50.435  37.741  1.00  0.00     0.158 HD
ATOM     12  H42 UNL     1      57.525  48.839  37.323  1.00  0.00     0.158 HD
HETATM   13  N5  UNL     1      58.129  51.423  35.450  1.00  0.00    -0.064 NA
ENDROOT
BRANCH   1  14
HETATM   14  C5  UNL     1      54.887  49.648  35.572  1.00  0.00     0.342 C 
BRANCH  14  15
HETATM   15  O1  UNL     1      54.726  49.149  36.830  1.00  0.00    -0.348 OA
BRANCH  15  16
HETATM   16  C2  UNL     1      54.436  50.045  37.810  1.00  0.00     0.053 C 
HETATM   17  C1  UNL     1      53.163  49.725  38.521  1.00  0.00     0.045 C 
HETATM   18  C3  UNL     1      54.241  51.413  37.140  1.00  0.00     0.045 C 
HETATM   19  C4  UNL     1      55.529  50.232  38.834  1.00  0.00     0.045 C 
ENDBRANCH  15  16
ENDBRANCH  14  15
BRANCH  14  20
HETATM   20  N1  UNL     1      53.586  49.545  34.892  1.00  0.00    -0.051 N 
ATOM     21  H13 UNL     1      53.568  48.825  34.171  1.00  0.00     0.277 HD
ATOM     22  H12 UNL     1      52.855  49.156  35.486  1.00  0.00     0.277 HD
ATOM     23  H11 UNL     1      53.359  50.473  34.535  1.00  0.00     0.277 HD
ENDBRANCH  14  20
ENDBRANCH   1  14
TORSDOF 4
ENDMDL
MODEL 2
REMARK VINA RESULT: -6.398563000      1.956      4.562
REMARK  4 active torsions:
REMARK  status: ('A' for Active; 'I' for Inactive)
REMARK    1  A    between atoms: C2_2  and  O1_5 
REMARK    2  A    between atoms: O1_5  and  C5_6 
REMARK    3  A    between atoms: C5_6  and  N1_7 
REMARK    4  A    between atoms: C5_6  and  C6_11 
REMARK       I    between atoms: N3_18  and  C12_19 
ROOT
HETATM    1  C6  UNL     1      56.277  50.995  36.434  1.00  0.00     0.144 C 
HETATM    2  C7  UNL     1      55.422  51.126  37.671  1.00  0.00     0.030 C 
HETATM    3  C8  UNL     1      56.158  50.756  38.931  1.00  0.00     0.005 C 
HETATM    4  C9  UNL     1      57.443  51.522  39.103  1.00  0.00     0.040 C 
HETATM    5  C10 UNL     1      57.906  52.178  37.832  1.00  0.00     0.195 C 
HETATM    6  C11 UNL     1      59.303  52.525  37.861  1.00  0.00     0.084 C 
HETATM    7  N2  UNL     1      60.436  52.793  37.873  1.00  0.00    -0.195 NA
HETATM    8  N3  UNL     1      57.670  51.202  36.754  1.00  0.00    -0.330 N 
HETATM    9  C12 UNL     1      58.747  50.557  36.125  1.00  0.00     0.185 C 
HETATM   10  N4  UNL     1      59.021  50.808  34.896  1.00  0.00    -0.374 N 
ATOM     11  H41 UNL     1      59.803  50.339  34.439  1.00  0.00     0.158 HD
ATOM     12  H42 UNL     1      58.440  51.483  34.398  1.00  0.00     0.158 HD
HETATM   13  N5  UNL     1      59.552  49.620  36.815  1.00  0.00    -0.064 NA
ENDROOT
BRANCH   1  14
HETATM   14  C5  UNL     1      56.028  49.704  35.698  1.00  0.00     0.342 C 
BRANCH  14  15
HETATM   15  O1  UNL     1      55.902  49.987  34.371  1.00  0.00    -0.348 OA
BRANCH  15  16
HETATM   16  C2  UNL     1      56.170  48.977  33.502  1.00  0.00     0.053 C 
HETATM   17  C1  UNL     1      57.008  47.903  34.111  1.00  0.00     0.045 C 
HETATM   18  C3  UNL     1      56.980  49.572  32.342  1.00  0.00     0.045 C 
HETATM   19  C4  UNL     1      54.949  48.344  32.879  1.00  0.00     0.045 C 
ENDBRANCH  15  16
ENDBRANCH  14  15
BRANCH  14  20
HETATM   20  N1  UNL     1      54.728  49.192  36.160  1.00  0.00    -0.051 N 
ATOM     21  H13 UNL     1      54.641  49.181  37.176  1.00  0.00     0.277 HD
ATOM     22  H12 UNL     1      53.957  49.830  35.969  1.00  0.00     0.277 HD
ATOM     23  H11 UNL     1      54.599  48.272  35.739  1.00  0.00     0.277 HD
ENDBRANCH  14  20
ENDBRANCH   1  14
TORSDOF 4
ENDMDL
MODEL 3
REMARK VINA RESULT: -6.391886559      2.005      4.522
REMARK  4 active torsions:
REMARK  status: ('A' for Active; 'I' for Inactive)
REMARK    1  A    between atoms: C2_2  and  O1_5 
REMARK    2  A    between atoms: O1_5  and  C5_6 
REMARK    3  A    between atoms: C5_6  and  N1_7 
REMARK    4  A    between atoms: C5_6  and  C6_11 
REMARK       I    between atoms: N3_18  and  C12_19 
ROOT
HETATM    1  C6  UNL     1      56.478  50.936  36.527  1.00  0.00     0.144 C 
HETATM    2  C7  UNL     1      55.752  51.038  37.846  1.00  0.00     0.030 C 
HETATM    3  C8  UNL     1      56.601  50.614  39.015  1.00  0.00     0.005 C 
HETATM    4  C9  UNL     1      57.910  51.353  39.083  1.00  0.00     0.040 C 
HETATM    5  C10 UNL     1      58.259  52.045  37.795  1.00  0.00     0.195 C 
HETATM    6  C11 UNL     1      59.659  52.369  37.697  1.00  0.00     0.084 C 
HETATM    7  N2  UNL     1      60.792  52.618  37.605  1.00  0.00    -0.195 NA
HETATM    8  N3  UNL     1      57.900  51.111  36.715  1.00  0.00    -0.330 N 
HETATM    9  C12 UNL     1      58.897  50.470  35.961  1.00  0.00     0.185 C 
HETATM   10  N4  UNL     1      59.053  50.759  34.720  1.00  0.00    -0.374 N 
ATOM     11  H41 UNL     1      59.777  50.294  34.173  1.00  0.00     0.158 HD
ATOM     12  H42 UNL     1      58.440  51.459  34.305  1.00  0.00     0.158 HD
HETATM   13  N5  UNL     1      59.748  49.498  36.538  1.00  0.00    -0.064 NA
ENDROOT
BRANCH   1  14
HETATM   14  C5  UNL     1      56.133  49.675  35.778  1.00  0.00     0.342 C 
BRANCH  14  15
HETATM   15  O1  UNL     1      55.910  50.001  34.474  1.00  0.00    -0.348 OA
BRANCH  15  16
HETATM   16  C2  UNL     1      56.185  49.045  33.549  1.00  0.00     0.053 C 
HETATM   17  C1  UNL     1      56.939  49.580  32.377  1.00  0.00     0.045 C 
HETATM   18  C3  UNL     1      54.844  48.521  33.016  1.00  0.00     0.045 C 
HETATM   19  C4  UNL     1      56.920  47.842  34.089  1.00  0.00     0.045 C 
ENDBRANCH  15  16
ENDBRANCH  14  15
BRANCH  14  20
HETATM   20  N1  UNL     1      54.860  49.184  36.329  1.00  0.00    -0.051 N 
ATOM     21  H13 UNL     1      54.788  48.167  36.321  1.00  0.00     0.277 HD
ATOM     22  H12 UNL     1      54.786  49.313  37.338  1.00  0.00     0.277 HD
ATOM     23  H11 UNL     1      54.111  49.641  35.811  1.00  0.00     0.277 HD
ENDBRANCH  14  20
ENDBRANCH   1  14
TORSDOF 4
ENDMDL
MODEL 4
REMARK VINA RESULT: -6.112556898      2.321      4.937
REMARK  4 active torsions:
REMARK  status: ('A' for Active; 'I' for Inactive)
REMARK    1  A    between atoms: C2_2  and  O1_5 
REMARK    2  A    between atoms: O1_5  and  C5_6 
REMARK    3  A    between atoms: C5_6  and  N1_7 
REMARK    4  A    between atoms: C5_6  and  C6_11 
REMARK       I    between atoms: N3_18  and  C12_19 
ROOT
HETATM    1  C6  UNL     1      58.691  49.647  36.098  1.00  0.00     0.144 C 
HETATM    2  C7  UNL     1      60.147  50.043  36.039  1.00  0.00     0.030 C 
HETATM    3  C8  UNL     1      60.441  51.301  36.813  1.00  0.00     0.005 C 
HETATM    4  C9  UNL     1      59.980  51.226  38.245  1.00  0.00     0.040 C 
HETATM    5  C10 UNL     1      59.000  50.113  38.485  1.00  0.00     0.195 C 
HETATM    6  C11 UNL     1      58.235  50.293  39.692  1.00  0.00     0.084 C 
HETATM    7  N2  UNL     1      57.602  50.444  40.657  1.00  0.00    -0.195 NA
HETATM    8  N3  UNL     1      58.089  50.107  37.328  1.00  0.00    -0.330 N 
HETATM    9  C12 UNL     1      56.755  50.525  37.466  1.00  0.00     0.185 C 
HETATM   10  N4  UNL     1      55.798  49.677  37.346  1.00  0.00    -0.374 N 
ATOM     11  H41 UNL     1      54.830  49.980  37.446  1.00  0.00     0.158 HD
ATOM     12  H42 UNL     1      56.034  48.704  37.152  1.00  0.00     0.158 HD
HETATM   13  N5  UNL     1      56.428  51.875  37.735  1.00  0.00    -0.064 NA
ENDROOT
BRANCH   1  14
HETATM   14  C5  UNL     1      57.929  50.078  34.872  1.00  0.00     0.342 C 
BRANCH  14  15
HETATM   15  O1  UNL     1      57.582  48.962  34.172  1.00  0.00    -0.348 OA
BRANCH  15  16
HETATM   16  C2  UNL     1      56.407  49.006  33.492  1.00  0.00     0.053 C 
HETATM   17  C1  UNL     1      55.378  49.840  34.180  1.00  0.00     0.045 C 
HETATM   18  C3  UNL     1      55.855  47.575  33.433  1.00  0.00     0.045 C 
HETATM   19  C4  UNL     1      56.526  49.468  32.060  1.00  0.00     0.045 C 
ENDBRANCH  15  16
ENDBRANCH  14  15
BRANCH  14  20
HETATM   20  N1  UNL     1      58.864  50.846  34.034  1.00  0.00    -0.051 N 
ATOM     21  H13 UNL     1      58.395  51.504  33.413  1.00  0.00     0.277 HD
ATOM     22  H12 UNL     1      59.406  51.528  34.563  1.00  0.00     0.277 HD
ATOM     23  H11 UNL     1      59.446  50.173  33.536  1.00  0.00     0.277 HD
ENDBRANCH  14  20
ENDBRANCH   1  14
TORSDOF 4
ENDMDL
MODEL 5
REMARK VINA RESULT: -5.978600705      1.918      5.673
REMARK  4 active torsions:
REMARK  status: ('A' for Active; 'I' for Inactive)
REMARK    1  A    between atoms: C2_2  and  O1_5 
REMARK    2  A    between atoms: O1_5  and  C5_6 
REMARK    3  A    between atoms: C5_6  and  N1_7 
REMARK    4  A    between atoms: C5_6  and  C6_11 
REMARK       I    between atoms: N3_18  and  C12_19 
ROOT
HETATM    1  C6  UNL     1      57.205  50.136  37.352  1.00  0.00     0.144 C 
HETATM    2  C7  UNL     1      57.469  51.123  38.463  1.00  0.00     0.030 C 
HETATM    3  C8  UNL     1      56.369  52.141  38.614  1.00  0.00     0.005 C 
HETATM    4  C9  UNL     1      55.013  51.512  38.788  1.00  0.00     0.040 C 
HETATM    5  C10 UNL     1      54.984  50.064  38.388  1.00  0.00     0.195 C 
HETATM    6  C11 UNL     1      53.651  49.582  38.130  1.00  0.00     0.084 C 
HETATM    7  N2  UNL     1      52.578  49.192  37.904  1.00  0.00    -0.195 NA
HETATM    8  N3  UNL     1      55.784  49.960  37.156  1.00  0.00    -0.330 N 
HETATM    9  C12 UNL     1      55.167  49.709  35.919  1.00  0.00     0.185 C 
HETATM   10  N4  UNL     1      55.361  48.594  35.316  1.00  0.00    -0.374 N 
ATOM     11  H41 UNL     1      54.912  48.411  34.418  1.00  0.00     0.158 HD
ATOM     12  H42 UNL     1      55.968  47.903  35.757  1.00  0.00     0.158 HD
HETATM   13  N5  UNL     1      54.324  50.667  35.308  1.00  0.00    -0.064 NA
ENDROOT
BRANCH   1  14
HETATM   14  C5  UNL     1      57.935  50.492  36.083  1.00  0.00     0.342 C 
BRANCH  14  15
HETATM   15  O1  UNL     1      58.578  49.376  35.635  1.00  0.00    -0.348 OA
BRANCH  15  16
HETATM   16  C2  UNL     1      58.941  49.365  34.326  1.00  0.00     0.053 C 
HETATM   17  C1  UNL     1      58.286  48.266  33.558  1.00  0.00     0.045 C 
HETATM   18  C3  UNL     1      60.454  49.109  34.270  1.00  0.00     0.045 C 
HETATM   19  C4  UNL     1      58.710  50.668  33.598  1.00  0.00     0.045 C 
ENDBRANCH  15  16
ENDBRANCH  14  15
BRANCH  14  20
HETATM   20  N1  UNL     1      58.969  51.474  36.445  1.00  0.00    -0.051 N 
ATOM     21  H13 UNL     1      58.859  52.366  35.962  1.00  0.00     0.277 HD
ATOM     22  H12 UNL     1      58.869  51.827  37.396  1.00  0.00     0.277 HD
ATOM     23  H11 UNL     1      59.874  51.038  36.274  1.00  0.00     0.277 HD
ENDBRANCH  14  20
ENDBRANCH   1  14
TORSDOF 4
ENDMDL
