MODEL 1
REMARK VINA RESULT: -5.679601482      0.000      0.000
REMARK  0 active torsions:
REMARK  status: ('A' for Active; 'I' for Inactive)
ROOT
HETATM    1  C1  UNL     1      11.100  16.846  15.311  1.00  0.00     0.002 C 
HETATM    2  C2  UNL     1      12.405  17.113  14.616  1.00  0.00     0.019 C 
HETATM    3  C3  UNL     1      13.451  16.088  14.849  1.00  0.00     0.117 C 
HETATM    4  N1  UNL     1      13.231  15.205  15.937  1.00  0.00    -0.390 N 
ATOM      5  H1  UNL     1      13.003  14.220  15.800  1.00  0.00     0.156 HD
HETATM    6  C4  UNL     1      13.349  15.784  17.236  1.00  0.00     0.154 C 
HETATM    7  C5  UNL     1      12.558  17.066  17.345  1.00  0.00     0.062 C 
HETATM    8  C6  UNL     1      11.175  16.897  16.794  1.00  0.00     0.005 C 
HETATM    9  C7  UNL     1      12.917  14.759  18.260  1.00  0.00     0.292 C 
HETATM   10  N2  UNL     1      14.031  13.899  18.658  1.00  0.00    -0.069 N 
ATOM     11  H21 UNL     1      14.406  13.378  17.865  1.00  0.00     0.277 HD
ATOM     12  H22 UNL     1      13.713  13.113  19.226  1.00  0.00     0.277 HD
HETATM   13  C8  UNL     1      15.069  14.660  19.335  1.00  0.00     0.258 C 
HETATM   14  C9  UNL     1      14.926  16.108  18.899  1.00  0.00     0.198 C 
HETATM   15  O1  UNL     1      14.688  16.095  17.527  1.00  0.00    -0.358 OA
ENDROOT
TORSDOF 0
ENDMDL
MODEL 2
REMARK VINA RESULT: -5.207991319      2.323      3.533
REMARK  0 active torsions:
REMARK  status: ('A' for Active; 'I' for Inactive)
ROOT
HETATM    1  C1  UNL     1      12.207  15.085  17.798  1.00  0.00     0.002 C 
HETATM    2  C2  UNL     1      11.513  15.135  16.467  1.00  0.00     0.019 C 
HETATM    3  C3  UNL     1      12.419  15.266  15.301  1.00  0.00     0.117 C 
HETATM    4  N1  UNL     1      13.748  15.674  15.584  1.00  0.00    -0.390 N 
ATOM      5  H1  UNL     1      14.541  15.039  15.495  1.00  0.00     0.156 HD
HETATM    6  C4  UNL     1      13.903  17.030  16.000  1.00  0.00     0.154 C 
HETATM    7  C5  UNL     1      12.928  17.388  17.097  1.00  0.00     0.062 C 
HETATM    8  C6  UNL     1      12.912  16.339  18.168  1.00  0.00     0.005 C 
HETATM    9  C7  UNL     1      15.339  17.241  16.423  1.00  0.00     0.292 C 
HETATM   10  N2  UNL     1      16.183  17.606  15.285  1.00  0.00    -0.069 N 
ATOM     11  H21 UNL     1      16.193  16.873  14.575  1.00  0.00     0.277 HD
ATOM     12  H22 UNL     1      17.172  17.596  15.534  1.00  0.00     0.277 HD
HETATM   13  C8  UNL     1      15.785  18.887  14.723  1.00  0.00     0.258 C 
HETATM   14  C9  UNL     1      14.336  19.122  15.111  1.00  0.00     0.198 C 
HETATM   15  O1  UNL     1      13.669  17.913  14.933  1.00  0.00    -0.358 OA
ENDROOT
TORSDOF 0
ENDMDL
MODEL 3
REMARK VINA RESULT: -5.120011595      1.876      3.983
REMARK  0 active torsions:
REMARK  status: ('A' for Active; 'I' for Inactive)
ROOT
HETATM    1  C1  UNL     1      13.583  14.432  18.507  1.00  0.00     0.002 C 
HETATM    2  C2  UNL     1      12.164  14.850  18.244  1.00  0.00     0.019 C 
HETATM    3  C3  UNL     1      11.827  15.026  16.811  1.00  0.00     0.117 C 
HETATM    4  N1  UNL     1      12.923  15.130  15.918  1.00  0.00    -0.390 N 
ATOM      5  H1  UNL     1      13.156  14.390  15.256  1.00  0.00     0.156 HD
HETATM    6  C4  UNL     1      13.680  16.337  16.006  1.00  0.00     0.154 C 
HETATM    7  C5  UNL     1      14.049  16.657  17.435  1.00  0.00     0.062 C 
HETATM    8  C6  UNL     1      14.599  15.450  18.134  1.00  0.00     0.005 C 
HETATM    9  C7  UNL     1      14.897  16.206  15.119  1.00  0.00     0.292 C 
HETATM   10  N2  UNL     1      14.604  16.615  13.745  1.00  0.00    -0.069 N 
ATOM     11  H21 UNL     1      13.876  16.035  13.328  1.00  0.00     0.277 HD
ATOM     12  H22 UNL     1      15.371  16.382  13.113  1.00  0.00     0.277 HD
HETATM   13  C8  UNL     1      14.266  18.027  13.677  1.00  0.00     0.258 C 
HETATM   14  C9  UNL     1      13.779  18.444  15.054  1.00  0.00     0.198 C 
HETATM   15  O1  UNL     1      12.945  17.427  15.512  1.00  0.00    -0.358 OA
ENDROOT
TORSDOF 0
ENDMDL
MODEL 4
REMARK VINA RESULT: -5.098156979      2.364      3.891
REMARK  0 active torsions:
REMARK  status: ('A' for Active; 'I' for Inactive)
ROOT
HETATM    1  C1  UNL     1      11.424  15.177  16.488  1.00  0.00     0.002 C 
HETATM    2  C2  UNL     1      12.330  15.144  17.686  1.00  0.00     0.019 C 
HETATM    3  C3  UNL     1      12.918  16.455  18.053  1.00  0.00     0.117 C 
HETATM    4  N1  UNL     1      12.851  17.470  17.065  1.00  0.00    -0.390 N 
ATOM      5  H1  UNL     1      12.240  18.281  17.161  1.00  0.00     0.156 HD
HETATM    6  C4  UNL     1      13.693  17.282  15.927  1.00  0.00     0.154 C 
HETATM    7  C5  UNL     1      13.551  15.891  15.357  1.00  0.00     0.062 C 
HETATM    8  C6  UNL     1      12.109  15.510  15.213  1.00  0.00     0.005 C 
HETATM    9  C7  UNL     1      13.368  18.351  14.909  1.00  0.00     0.292 C 
HETATM   10  N2  UNL     1      14.142  19.570  15.148  1.00  0.00    -0.069 N 
ATOM     11  H21 UNL     1      13.939  19.969  16.065  1.00  0.00     0.277 HD
ATOM     12  H22 UNL     1      13.816  20.341  14.565  1.00  0.00     0.277 HD
HETATM   13  C8  UNL     1      15.566  19.333  14.972  1.00  0.00     0.258 C 
HETATM   14  C9  UNL     1      15.805  17.846  15.170  1.00  0.00     0.198 C 
HETATM   15  O1  UNL     1      15.044  17.457  16.269  1.00  0.00    -0.358 OA
ENDROOT
TORSDOF 0
ENDMDL
MODEL 5
REMARK VINA RESULT: -5.091588345      2.138      3.130
REMARK  0 active torsions:
REMARK  status: ('A' for Active; 'I' for Inactive)
ROOT
HETATM    1  C1  UNL     1      11.578  19.262  14.272  1.00  0.00     0.002 C 
HETATM    2  C2  UNL     1      10.197  18.674  14.335  1.00  0.00     0.019 C 
HETATM    3  C3  UNL     1       9.805  18.158  15.669  1.00  0.00     0.117 C 
HETATM    4  N1  UNL     1      10.858  17.957  16.597  1.00  0.00    -0.390 N 
ATOM      5  H1  UNL     1      10.979  18.552  17.417  1.00  0.00     0.156 HD
HETATM    6  C4  UNL     1      11.737  16.870  16.309  1.00  0.00     0.154 C 
HETATM    7  C5  UNL     1      12.211  16.906  14.876  1.00  0.00     0.062 C 
HETATM    8  C6  UNL     1      12.671  18.280  14.492  1.00  0.00     0.005 C 
HETATM    9  C7  UNL     1      12.887  16.910  17.290  1.00  0.00     0.292 C 
HETATM   10  N2  UNL     1      12.565  16.186  18.520  1.00  0.00    -0.069 N 
ATOM     11  H21 UNL     1      11.761  16.594  18.997  1.00  0.00     0.277 HD
ATOM     12  H22 UNL     1      13.271  16.341  19.241  1.00  0.00     0.277 HD
HETATM   13  C8  UNL     1      12.369  14.769  18.260  1.00  0.00     0.258 C 
HETATM   14  C9  UNL     1      12.000  14.623  16.794  1.00  0.00     0.198 C 
HETATM   15  O1  UNL     1      11.092  15.638  16.504  1.00  0.00    -0.358 OA
ENDROOT
TORSDOF 0
ENDMDL
