MODEL 1
REMARK VINA RESULT: -5.388361981      0.000      0.000
REMARK  1 active torsions:
REMARK  status: ('A' for Active; 'I' for Inactive)
REMARK    1  A    between atoms: O1_1  and  C1_3 
ROOT
HETATM    1  C1  UNL     1      18.075  17.843  17.358  1.00  0.00     0.142 C 
HETATM    2  C2  UNL     1      17.413  17.328  18.648  1.00  0.00     0.034 C 
HETATM    3  C3  UNL     1      16.174  16.658  18.222  1.00  0.00     0.004 C 
HETATM    4  C4  UNL     1      15.467  15.777  19.228  1.00  0.00     0.019 C 
HETATM    5  C5  UNL     1      14.208  15.349  18.438  1.00  0.00     0.113 C 
HETATM    6  N1  UNL     1      14.492  15.192  17.048  1.00  0.00    -0.421 N 
ATOM      7  H1  UNL     1      15.123  14.465  16.711  1.00  0.00     0.153 HD
HETATM    8  C6  UNL     1      13.849  16.102  16.152  1.00  0.00     0.115 C 
HETATM    9  C7  UNL     1      14.602  16.343  14.875  1.00  0.00     0.045 C 
HETATM   10  C8  UNL     1      15.472  17.551  14.849  1.00  0.00     0.169 C 
HETATM   11  O2  UNL     1      16.742  17.357  15.387  1.00  0.00    -0.389 OA
HETATM   12  C9  UNL     1      17.098  18.317  16.336  1.00  0.00     0.199 C 
ENDROOT
BRANCH   1  13
HETATM   13  O1  UNL     1      18.838  18.956  17.766  1.00  0.00    -0.393 OA
ATOM     14  H1  UNL     1      19.327  19.210  16.992  1.00  0.00     0.210 HD
ENDBRANCH   1  13
TORSDOF 1
ENDMDL
MODEL 2
REMARK VINA RESULT: -5.249767819      2.231      3.740
REMARK  1 active torsions:
REMARK  status: ('A' for Active; 'I' for Inactive)
REMARK    1  A    between atoms: O1_1  and  C1_3 
ROOT
HETATM    1  C1  UNL     1      14.173  16.234  18.319  1.00  0.00     0.142 C 
HETATM    2  C2  UNL     1      15.482  16.135  19.121  1.00  0.00     0.034 C 
HETATM    3  C3  UNL     1      16.495  16.841  18.320  1.00  0.00     0.004 C 
HETATM    4  C4  UNL     1      17.807  17.190  18.989  1.00  0.00     0.019 C 
HETATM    5  C5  UNL     1      18.597  17.822  17.819  1.00  0.00     0.113 C 
HETATM    6  N1  UNL     1      17.737  18.550  16.942  1.00  0.00    -0.421 N 
ATOM      7  H1  UNL     1      17.246  19.388  17.249  1.00  0.00     0.153 HD
HETATM    8  C6  UNL     1      17.598  18.044  15.611  1.00  0.00     0.115 C 
HETATM    9  C7  UNL     1      16.293  18.392  14.954  1.00  0.00     0.045 C 
HETATM   10  C8  UNL     1      15.226  17.357  15.036  1.00  0.00     0.169 C 
HETATM   11  O2  UNL     1      14.475  17.395  16.208  1.00  0.00    -0.389 OA
HETATM   12  C9  UNL     1      14.371  16.156  16.843  1.00  0.00     0.199 C 
ENDROOT
BRANCH   1  13
HETATM   13  O1  UNL     1      13.429  15.101  18.708  1.00  0.00    -0.393 OA
ATOM     14  H1  UNL     1      12.661  15.113  18.149  1.00  0.00     0.210 HD
ENDBRANCH   1  13
TORSDOF 1
ENDMDL
MODEL 3
REMARK VINA RESULT: -5.171052891      2.012      3.419
REMARK  1 active torsions:
REMARK  status: ('A' for Active; 'I' for Inactive)
REMARK    1  A    between atoms: O1_1  and  C1_3 
ROOT
HETATM    1  C1  UNL     1      18.208  18.037  19.785  1.00  0.00     0.142 C 
HETATM    2  C2  UNL     1      18.576  18.337  18.322  1.00  0.00     0.034 C 
HETATM    3  C3  UNL     1      17.450  17.839  17.516  1.00  0.00     0.004 C 
HETATM    4  C4  UNL     1      17.370  18.272  16.069  1.00  0.00     0.019 C 
HETATM    5  C5  UNL     1      16.135  17.484  15.574  1.00  0.00     0.113 C 
HETATM    6  N1  UNL     1      15.150  17.359  16.599  1.00  0.00    -0.421 N 
ATOM      7  H1  UNL     1      14.659  18.172  16.971  1.00  0.00     0.153 HD
HETATM    8  C6  UNL     1      14.886  16.039  17.081  1.00  0.00     0.115 C 
HETATM    9  C7  UNL     1      14.385  15.989  18.496  1.00  0.00     0.045 C 
HETATM   10  C8  UNL     1      15.413  15.740  19.544  1.00  0.00     0.169 C 
HETATM   11  O2  UNL     1      16.082  16.882  19.978  1.00  0.00    -0.389 OA
HETATM   12  C9  UNL     1      17.471  16.753  19.963  1.00  0.00     0.199 C 
ENDROOT
BRANCH   1  13
HETATM   13  O1  UNL     1      19.447  17.911  20.447  1.00  0.00    -0.393 OA
ATOM     14  H1  UNL     1      19.243  18.034  21.366  1.00  0.00     0.210 HD
ENDBRANCH   1  13
TORSDOF 1
ENDMDL
MODEL 4
REMARK VINA RESULT: -5.131368809      3.217      4.484
REMARK  1 active torsions:
REMARK  status: ('A' for Active; 'I' for Inactive)
REMARK    1  A    between atoms: O1_1  and  C1_3 
ROOT
HETATM    1  C1  UNL     1      13.860  14.893  18.626  1.00  0.00     0.142 C 
HETATM    2  C2  UNL     1      15.122  15.496  17.985  1.00  0.00     0.034 C 
HETATM    3  C3  UNL     1      14.640  16.445  16.969  1.00  0.00     0.004 C 
HETATM    4  C4  UNL     1      15.636  17.426  16.391  1.00  0.00     0.019 C 
HETATM    5  C5  UNL     1      14.777  18.157  15.332  1.00  0.00     0.113 C 
HETATM    6  N1  UNL     1      13.424  18.297  15.765  1.00  0.00    -0.421 N 
ATOM      7  H1  UNL     1      13.177  18.873  16.569  1.00  0.00     0.153 HD
HETATM    8  C6  UNL     1      12.432  17.589  15.016  1.00  0.00     0.115 C 
HETATM    9  C7  UNL     1      11.205  17.231  15.804  1.00  0.00     0.045 C 
HETATM   10  C8  UNL     1      11.179  15.859  16.382  1.00  0.00     0.169 C 
HETATM   11  O2  UNL     1      11.823  15.740  17.612  1.00  0.00    -0.389 OA
HETATM   12  C9  UNL     1      12.741  14.690  17.661  1.00  0.00     0.199 C 
ENDROOT
BRANCH   1  13
HETATM   13  O1  UNL     1      14.262  13.621  19.082  1.00  0.00    -0.393 OA
ATOM     14  H1  UNL     1      13.961  13.018  18.413  1.00  0.00     0.210 HD
ENDBRANCH   1  13
TORSDOF 1
ENDMDL
MODEL 5
REMARK VINA RESULT: -5.056580779      1.964      2.921
REMARK  1 active torsions:
REMARK  status: ('A' for Active; 'I' for Inactive)
REMARK    1  A    between atoms: O1_1  and  C1_3 
ROOT
HETATM    1  C1  UNL     1      15.174  17.739  15.519  1.00  0.00     0.142 C 
HETATM    2  C2  UNL     1      15.857  17.326  16.835  1.00  0.00     0.034 C 
HETATM    3  C3  UNL     1      14.955  16.347  17.463  1.00  0.00     0.004 C 
HETATM    4  C4  UNL     1      15.497  15.522  18.609  1.00  0.00     0.019 C 
HETATM    5  C5  UNL     1      14.249  14.710  19.028  1.00  0.00     0.113 C 
HETATM    6  N1  UNL     1      13.439  14.380  17.899  1.00  0.00    -0.421 N 
ATOM      7  H1  UNL     1      13.774  13.756  17.165  1.00  0.00     0.153 HD
HETATM    8  C6  UNL     1      12.136  14.967  17.848  1.00  0.00     0.115 C 
HETATM    9  C7  UNL     1      11.593  15.139  16.458  1.00  0.00     0.045 C 
HETATM   10  C8  UNL     1      11.789  16.480  15.843  1.00  0.00     0.169 C 
HETATM   11  O2  UNL     1      13.024  16.653  15.221  1.00  0.00    -0.389 OA
HETATM   12  C9  UNL     1      13.689  17.815  15.617  1.00  0.00     0.199 C 
ENDROOT
BRANCH   1  13
HETATM   13  O1  UNL     1      15.650  19.042  15.263  1.00  0.00    -0.393 OA
ATOM     14  H1  UNL     1      15.356  19.236  14.381  1.00  0.00     0.210 HD
ENDBRANCH   1  13
TORSDOF 1
ENDMDL
