MODEL 1
REMARK VINA RESULT: -5.158809647      0.000      0.000
REMARK  2 active torsions:
REMARK  status: ('A' for Active; 'I' for Inactive)
REMARK    1  A    between atoms: O1_1  and  C1_3 
REMARK    2  A    between atoms: C3_5  and  O2_6 
ROOT
HETATM    1  C1  UNL     1      16.480  16.918  19.444  1.00  0.00     0.155 C 
HETATM    2  C2  UNL     1      17.914  16.989  18.922  1.00  0.00     0.098 C 
HETATM    3  C3  UNL     1      18.668  17.562  20.119  1.00  0.00     0.359 C 
HETATM    4  N1  UNL     1      17.730  17.712  21.178  1.00  0.00     0.124 N 
HETATM    5  C4  UNL     1      18.261  17.584  22.496  1.00  0.00     0.276 C 
HETATM    6  C5  UNL     1      17.098  17.831  23.464  1.00  0.00     0.030 C 
HETATM    7  C6  UNL     1      15.981  16.829  23.222  1.00  0.00     0.004 C 
HETATM    8  C7  UNL     1      15.527  16.866  21.760  1.00  0.00     0.038 C 
HETATM    9  C8  UNL     1      16.741  16.663  20.917  1.00  0.00     0.255 C 
ENDROOT
BRANCH   1  10
HETATM   10  O1  UNL     1      15.742  15.936  18.841  1.00  0.00    -0.393 OA
ATOM     11  H1  UNL     1      14.835  15.928  19.125  1.00  0.00     0.210 HD
ENDBRANCH   1  10
BRANCH   3  12
HETATM   12  O2  UNL     1      19.777  16.805  20.447  1.00  0.00    -0.368 OA
ATOM     13  H2  UNL     1      20.081  16.978  21.331  1.00  0.00     0.212 HD
ENDBRANCH   3  12
TORSDOF 2
ENDMDL
MODEL 2
REMARK VINA RESULT: -5.051998506      4.703      6.474
REMARK  2 active torsions:
REMARK  status: ('A' for Active; 'I' for Inactive)
REMARK    1  A    between atoms: O1_1  and  C1_3 
REMARK    2  A    between atoms: C3_5  and  O2_6 
ROOT
HETATM    1  C1  UNL     1      14.257  15.128  18.430  1.00  0.00     0.155 C 
HETATM    2  C2  UNL     1      12.882  14.495  18.222  1.00  0.00     0.098 C 
HETATM    3  C3  UNL     1      12.163  15.549  17.384  1.00  0.00     0.359 C 
HETATM    4  N1  UNL     1      13.093  16.595  17.129  1.00  0.00     0.124 N 
HETATM    5  C4  UNL     1      12.907  17.300  15.903  1.00  0.00     0.276 C 
HETATM    6  C5  UNL     1      13.975  18.400  15.863  1.00  0.00     0.030 C 
HETATM    7  C6  UNL     1      15.367  17.793  15.943  1.00  0.00     0.004 C 
HETATM    8  C7  UNL     1      15.503  16.908  17.184  1.00  0.00     0.038 C 
HETATM    9  C8  UNL     1      14.391  15.915  17.140  1.00  0.00     0.255 C 
ENDROOT
BRANCH   1  10
HETATM   10  O1  UNL     1      15.247  14.201  18.612  1.00  0.00    -0.393 OA
ATOM     11  H1  UNL     1      16.089  14.594  18.809  1.00  0.00     0.210 HD
ENDBRANCH   1  10
BRANCH   3  12
HETATM   12  O2  UNL     1      11.590  15.010  16.248  1.00  0.00    -0.368 OA
ATOM     13  H2  UNL     1      11.057  14.248  16.442  1.00  0.00     0.212 HD
ENDBRANCH   3  12
TORSDOF 2
ENDMDL
MODEL 3
REMARK VINA RESULT: -4.806509037      1.551      3.983
REMARK  2 active torsions:
REMARK  status: ('A' for Active; 'I' for Inactive)
REMARK    1  A    between atoms: O1_1  and  C1_3 
REMARK    2  A    between atoms: C3_5  and  O2_6 
ROOT
HETATM    1  C1  UNL     1      17.212  17.543  22.716  1.00  0.00     0.155 C 
HETATM    2  C2  UNL     1      15.836  16.882  22.665  1.00  0.00     0.098 C 
HETATM    3  C3  UNL     1      15.573  16.798  21.164  1.00  0.00     0.359 C 
HETATM    4  N1  UNL     1      16.724  17.305  20.501  1.00  0.00     0.124 N 
HETATM    5  C4  UNL     1      16.994  16.746  19.217  1.00  0.00     0.276 C 
HETATM    6  C5  UNL     1      18.234  17.468  18.676  1.00  0.00     0.030 C 
HETATM    7  C6  UNL     1      19.414  17.278  19.616  1.00  0.00     0.004 C 
HETATM    8  C7  UNL     1      19.057  17.737  21.032  1.00  0.00     0.038 C 
HETATM    9  C8  UNL     1      17.817  17.009  21.431  1.00  0.00     0.255 C 
ENDROOT
BRANCH   1  10
HETATM   10  O1  UNL     1      17.922  17.208  23.837  1.00  0.00    -0.393 OA
ATOM     11  H1  UNL     1      18.860  17.304  23.722  1.00  0.00     0.210 HD
ENDBRANCH   1  10
BRANCH   3  12
HETATM   12  O2  UNL     1      15.206  15.525  20.770  1.00  0.00    -0.368 OA
ATOM     13  H2  UNL     1      14.296  15.337  20.964  1.00  0.00     0.212 HD
ENDBRANCH   3  12
TORSDOF 2
ENDMDL
MODEL 4
REMARK VINA RESULT: -4.747431025      4.134      5.451
REMARK  2 active torsions:
REMARK  status: ('A' for Active; 'I' for Inactive)
REMARK    1  A    between atoms: O1_1  and  C1_3 
REMARK    2  A    between atoms: C3_5  and  O2_6 
ROOT
HETATM    1  C1  UNL     1      12.163  16.038  16.639  1.00  0.00     0.155 C 
HETATM    2  C2  UNL     1      12.694  17.139  15.723  1.00  0.00     0.098 C 
HETATM    3  C3  UNL     1      13.946  17.602  16.464  1.00  0.00     0.359 C 
HETATM    4  N1  UNL     1      14.085  16.780  17.616  1.00  0.00     0.124 N 
HETATM    5  C4  UNL     1      15.422  16.563  18.062  1.00  0.00     0.276 C 
HETATM    6  C5  UNL     1      15.329  15.704  19.329  1.00  0.00     0.030 C 
HETATM    7  C6  UNL     1      14.630  14.387  19.029  1.00  0.00     0.004 C 
HETATM    8  C7  UNL     1      13.256  14.634  18.402  1.00  0.00     0.038 C 
HETATM    9  C8  UNL     1      13.465  15.514  17.216  1.00  0.00     0.255 C 
ENDROOT
BRANCH   1  10
HETATM   10  O1  UNL     1      11.440  15.090  15.967  1.00  0.00    -0.393 OA
ATOM     11  H1  UNL     1      10.805  14.649  16.520  1.00  0.00     0.210 HD
ENDBRANCH   1  10
BRANCH   3  12
HETATM   12  O2  UNL     1      15.059  17.624  15.645  1.00  0.00    -0.368 OA
ATOM     13  H2  UNL     1      15.742  18.190  15.984  1.00  0.00     0.212 HD
ENDBRANCH   3  12
TORSDOF 2
ENDMDL
MODEL 5
REMARK VINA RESULT: -4.713044977      4.947      6.614
REMARK  2 active torsions:
REMARK  status: ('A' for Active; 'I' for Inactive)
REMARK    1  A    between atoms: O1_1  and  C1_3 
REMARK    2  A    between atoms: C3_5  and  O2_6 
ROOT
HETATM    1  C1  UNL     1      13.997  17.618  15.412  1.00  0.00     0.155 C 
HETATM    2  C2  UNL     1      12.573  17.595  14.861  1.00  0.00     0.098 C 
HETATM    3  C3  UNL     1      11.967  16.392  15.579  1.00  0.00     0.359 C 
HETATM    4  N1  UNL     1      12.958  15.881  16.462  1.00  0.00     0.124 N 
HETATM    5  C4  UNL     1      12.466  15.251  17.644  1.00  0.00     0.276 C 
HETATM    6  C5  UNL     1      13.691  14.738  18.410  1.00  0.00     0.030 C 
HETATM    7  C6  UNL     1      14.627  15.888  18.749  1.00  0.00     0.004 C 
HETATM    8  C7  UNL     1      15.022  16.655  17.485  1.00  0.00     0.038 C 
HETATM    9  C8  UNL     1      13.759  17.059  16.803  1.00  0.00     0.255 C 
ENDROOT
BRANCH   1  10
HETATM   10  O1  UNL     1      14.548  18.870  15.412  1.00  0.00    -0.393 OA
ATOM     11  H1  UNL     1      14.997  19.077  16.223  1.00  0.00     0.210 HD
ENDBRANCH   1  10
BRANCH   3  12
HETATM   12  O2  UNL     1      10.767  16.700  16.191  1.00  0.00    -0.368 OA
ATOM     13  H2  UNL     1      10.603  16.158  16.954  1.00  0.00     0.212 HD
ENDBRANCH   3  12
TORSDOF 2
ENDMDL
