MODEL 1
REMARK VINA RESULT: -4.993195552      0.000      0.000
REMARK  2 active torsions:
REMARK  status: ('A' for Active; 'I' for Inactive)
REMARK    1  A    between atoms: C6_6  and  O1_7 
REMARK    2  A    between atoms: C8_11  and  O3_12 
ROOT
HETATM    1  C1  UNL     1      15.784  15.950  18.745  1.00  0.00     0.012 C 
HETATM    2  C2  UNL     1      14.446  15.840  18.027  1.00  0.00     0.012 C 
HETATM    3  C3  UNL     1      13.794  17.176  17.895  1.00  0.00     0.007 C 
HETATM    4  C4  UNL     1      13.431  17.542  16.507  1.00  0.00     0.005 C 
HETATM    5  C5  UNL     1      13.059  16.433  15.597  1.00  0.00     0.060 C 
HETATM    6  C6  UNL     1      12.147  15.401  16.108  1.00  0.00     0.256 C 
HETATM    7  O2  UNL     1      11.758  15.521  17.419  1.00  0.00    -0.359 OA
HETATM    8  C7  UNL     1      12.286  14.561  18.255  1.00  0.00     0.203 C 
HETATM    9  C8  UNL     1      13.633  14.830  18.779  1.00  0.00     0.145 C 
ENDROOT
BRANCH   6  10
HETATM   10  O1  UNL     1      10.958  15.315  15.343  1.00  0.00    -0.371 OA
ATOM     11  H1  UNL     1      10.303  14.766  15.760  1.00  0.00     0.212 HD
ENDBRANCH   6  10
BRANCH   9  12
HETATM   12  O3  UNL     1      14.374  13.635  18.772  1.00  0.00    -0.393 OA
ATOM     13  H3  UNL     1      14.160  13.179  19.577  1.00  0.00     0.210 HD
ENDBRANCH   9  12
TORSDOF 2
ENDMDL
MODEL 2
REMARK VINA RESULT: -4.750562714      2.139      3.615
REMARK  2 active torsions:
REMARK  status: ('A' for Active; 'I' for Inactive)
REMARK    1  A    between atoms: C6_6  and  O1_7 
REMARK    2  A    between atoms: C8_11  and  O3_12 
ROOT
HETATM    1  C1  UNL     1      14.938  15.641  13.997  1.00  0.00     0.012 C 
HETATM    2  C2  UNL     1      14.044  16.003  15.175  1.00  0.00     0.012 C 
HETATM    3  C3  UNL     1      12.617  15.674  14.890  1.00  0.00     0.007 C 
HETATM    4  C4  UNL     1      11.980  14.799  15.899  1.00  0.00     0.005 C 
HETATM    5  C5  UNL     1      12.452  14.934  17.298  1.00  0.00     0.060 C 
HETATM    6  C6  UNL     1      12.629  16.290  17.835  1.00  0.00     0.256 C 
HETATM    7  O2  UNL     1      12.394  17.329  16.969  1.00  0.00    -0.359 OA
HETATM    8  C7  UNL     1      13.527  18.020  16.596  1.00  0.00     0.203 C 
HETATM    9  C8  UNL     1      14.294  17.449  15.478  1.00  0.00     0.145 C 
ENDROOT
BRANCH   6  10
HETATM   10  O1  UNL     1      11.814  16.523  18.971  1.00  0.00    -0.371 OA
ATOM     11  H1  UNL     1      10.968  16.886  18.736  1.00  0.00     0.212 HD
ENDBRANCH   6  10
BRANCH   9  12
HETATM   12  O3  UNL     1      15.667  17.569  15.758  1.00  0.00    -0.393 OA
ATOM     13  H3  UNL     1      15.812  17.137  16.591  1.00  0.00     0.210 HD
ENDBRANCH   9  12
TORSDOF 2
ENDMDL
MODEL 3
REMARK VINA RESULT: -4.743272151      1.167      1.234
REMARK  2 active torsions:
REMARK  status: ('A' for Active; 'I' for Inactive)
REMARK    1  A    between atoms: C6_6  and  O1_7 
REMARK    2  A    between atoms: C8_11  and  O3_12 
ROOT
HETATM    1  C1  UNL     1      15.497  16.492  18.098  1.00  0.00     0.012 C 
HETATM    2  C2  UNL     1      14.145  16.526  17.400  1.00  0.00     0.012 C 
HETATM    3  C3  UNL     1      13.896  17.856  16.769  1.00  0.00     0.007 C 
HETATM    4  C4  UNL     1      13.572  17.793  15.326  1.00  0.00     0.005 C 
HETATM    5  C5  UNL     1      12.845  16.592  14.853  1.00  0.00     0.060 C 
HETATM    6  C6  UNL     1      11.707  16.118  15.652  1.00  0.00     0.256 C 
HETATM    7  O2  UNL     1      11.447  16.802  16.814  1.00  0.00    -0.359 OA
HETATM    8  C7  UNL     1      11.726  16.092  17.962  1.00  0.00     0.203 C 
HETATM    9  C8  UNL     1      13.122  16.129  18.422  1.00  0.00     0.145 C 
ENDROOT
BRANCH   6  10
HETATM   10  O1  UNL     1      10.500  16.114  14.910  1.00  0.00    -0.371 OA
ATOM     11  H1  UNL     1      10.348  16.942  14.469  1.00  0.00     0.212 HD
ENDBRANCH   6  10
BRANCH   9  12
HETATM   12  O3  UNL     1      13.487  14.850  18.877  1.00  0.00    -0.393 OA
ATOM     13  H3  UNL     1      13.327  14.840  19.813  1.00  0.00     0.210 HD
ENDBRANCH   9  12
TORSDOF 2
ENDMDL
MODEL 4
REMARK VINA RESULT: -4.672590815      1.731      2.591
REMARK  2 active torsions:
REMARK  status: ('A' for Active; 'I' for Inactive)
REMARK    1  A    between atoms: C6_6  and  O1_7 
REMARK    2  A    between atoms: C8_11  and  O3_12 
ROOT
HETATM    1  C1  UNL     1      15.585  15.879  19.154  1.00  0.00     0.012 C 
HETATM    2  C2  UNL     1      14.411  15.935  18.187  1.00  0.00     0.012 C 
HETATM    3  C3  UNL     1      13.596  14.686  18.254  1.00  0.00     0.007 C 
HETATM    4  C4  UNL     1      12.158  14.911  18.523  1.00  0.00     0.005 C 
HETATM    5  C5  UNL     1      11.566  16.164  17.998  1.00  0.00     0.060 C 
HETATM    6  C6  UNL     1      11.896  16.556  16.622  1.00  0.00     0.256 C 
HETATM    7  O2  UNL     1      12.781  15.751  15.949  1.00  0.00    -0.359 OA
HETATM    8  C7  UNL     1      14.014  16.327  15.729  1.00  0.00     0.203 C 
HETATM    9  C8  UNL     1      14.981  16.226  16.832  1.00  0.00     0.145 C 
ENDROOT
BRANCH   6  10
HETATM   10  O1  UNL     1      10.742  16.655  15.804  1.00  0.00    -0.371 OA
ATOM     11  H1  UNL     1      10.613  17.536  15.472  1.00  0.00     0.212 HD
ENDBRANCH   6  10
BRANCH   9  12
HETATM   12  O3  UNL     1      15.676  17.444  16.943  1.00  0.00    -0.393 OA
ATOM     13  H3  UNL     1      16.553  17.285  16.615  1.00  0.00     0.210 HD
ENDBRANCH   9  12
TORSDOF 2
ENDMDL
MODEL 5
REMARK VINA RESULT: -4.666881267      1.875      3.374
REMARK  2 active torsions:
REMARK  status: ('A' for Active; 'I' for Inactive)
REMARK    1  A    between atoms: C6_6  and  O1_7 
REMARK    2  A    between atoms: C8_11  and  O3_12 
ROOT
HETATM    1  C1  UNL     1      14.344  17.400  13.868  1.00  0.00     0.012 C 
HETATM    2  C2  UNL     1      13.589  16.926  15.102  1.00  0.00     0.012 C 
HETATM    3  C3  UNL     1      12.113  17.033  14.905  1.00  0.00     0.007 C 
HETATM    4  C4  UNL     1      11.375  15.772  15.137  1.00  0.00     0.005 C 
HETATM    5  C5  UNL     1      11.929  14.846  16.153  1.00  0.00     0.060 C 
HETATM    6  C6  UNL     1      12.378  15.417  17.430  1.00  0.00     0.256 C 
HETATM    7  O2  UNL     1      12.298  16.782  17.553  1.00  0.00    -0.359 OA
HETATM    8  C7  UNL     1      13.520  17.420  17.573  1.00  0.00     0.203 C 
HETATM    9  C8  UNL     1      14.114  17.717  16.261  1.00  0.00     0.145 C 
ENDROOT
BRANCH   6  10
HETATM   10  O1  UNL     1      11.675  14.873  18.533  1.00  0.00    -0.371 OA
ATOM     11  H1  UNL     1      10.733  14.958  18.435  1.00  0.00     0.212 HD
ENDBRANCH   6  10
BRANCH   9  12
HETATM   12  O3  UNL     1      15.498  17.470  16.320  1.00  0.00    -0.393 OA
ATOM     13  H3  UNL     1      15.928  18.305  16.180  1.00  0.00     0.210 HD
ENDBRANCH   9  12
TORSDOF 2
ENDMDL
