MODEL 1
REMARK VINA RESULT: -5.467690635      0.000      0.000
REMARK  2 active torsions:
REMARK  status: ('A' for Active; 'I' for Inactive)
REMARK       I    between atoms: N1_1  and  C1_5 
REMARK       I    between atoms: C1_5  and  N2_6 
REMARK       I    between atoms: C1_5  and  N3_10 
REMARK    1  A    between atoms: N3_10  and  N4_12 
REMARK    2  A    between atoms: C2_14  and  C3_15 
ROOT
HETATM    1  N1  UNL     1      84.442 -12.083  65.346  1.00  0.00    -0.032 N 
ATOM      2  H11 UNL     1      83.948 -12.419  64.518  1.00  0.00     0.279 HD
ATOM      3  H12 UNL     1      85.402 -11.795  65.155  1.00  0.00     0.279 HD
ATOM      4  H13 UNL     1      84.105 -11.181  65.681  1.00  0.00     0.279 HD
HETATM    5  C1  UNL     1      84.341 -13.149  66.341  1.00  0.00     0.494 C 
HETATM    6  N2  UNL     1      85.045 -12.672  67.517  1.00  0.00    -0.032 N 
ATOM      7  H21 UNL     1      84.975 -13.416  68.211  1.00  0.00     0.279 HD
ATOM      8  H22 UNL     1      84.708 -11.770  67.853  1.00  0.00     0.279 HD
ATOM      9  H23 UNL     1      86.004 -12.384  67.327  1.00  0.00     0.279 HD
HETATM   10  N3  UNL     1      84.980 -14.360  65.899  1.00  0.00    -0.284 N 
ATOM     11  H3  UNL     1      85.750 -14.736  66.452  1.00  0.00     0.184 HD
ENDROOT
BRANCH  10  12
HETATM   12  N4  UNL     1      84.586 -15.046  64.739  1.00  0.00    -0.309 N 
HETATM   13  C2  UNL     1      83.581 -15.857  64.774  1.00  0.00     0.155 C 
ATOM     14  H4  UNL     1      85.096 -14.904  63.866  1.00  0.00     0.185 HD
BRANCH  13  15
HETATM   15  C3  UNL     1      83.184 -16.564  63.559  1.00  0.00     0.122 A 
HETATM   16  N5  UNL     1      81.968 -17.137  63.380  1.00  0.00    -0.350 N 
HETATM   17  C4  UNL     1      81.907 -17.708  62.164  1.00  0.00     0.106 A 
ATOM     18  H5  UNL     1      81.212 -17.135  64.065  1.00  0.00     0.166 HD
HETATM   19  C5  UNL     1      83.136 -17.468  61.592  1.00  0.00     0.106 A 
HETATM   20  N6  UNL     1      83.915 -16.769  62.444  1.00  0.00    -0.350 N 
ATOM     21  H6  UNL     1      84.872 -16.456  62.277  1.00  0.00     0.166 HD
ENDBRANCH  13  15
ENDBRANCH  10  12
TORSDOF 2
ENDMDL
MODEL 2
REMARK VINA RESULT: -5.454304685      0.220      1.111
REMARK  2 active torsions:
REMARK  status: ('A' for Active; 'I' for Inactive)
REMARK       I    between atoms: N1_1  and  C1_5 
REMARK       I    between atoms: C1_5  and  N2_6 
REMARK       I    between atoms: C1_5  and  N3_10 
REMARK    1  A    between atoms: N3_10  and  N4_12 
REMARK    2  A    between atoms: C2_14  and  C3_15 
ROOT
HETATM    1  N1  UNL     1      84.383 -12.116  65.272  1.00  0.00    -0.032 N 
ATOM      2  H11 UNL     1      83.874 -12.507  64.479  1.00  0.00     0.279 HD
ATOM      3  H12 UNL     1      85.337 -11.838  65.044  1.00  0.00     0.279 HD
ATOM      4  H13 UNL     1      84.048 -11.195  65.555  1.00  0.00     0.279 HD
HETATM    5  C1  UNL     1      84.308 -13.115  66.337  1.00  0.00     0.494 C 
HETATM    6  N2  UNL     1      85.032 -12.559  67.465  1.00  0.00    -0.032 N 
ATOM      7  H21 UNL     1      84.979 -13.256  68.208  1.00  0.00     0.279 HD
ATOM      8  H22 UNL     1      84.697 -11.638  67.748  1.00  0.00     0.279 HD
ATOM      9  H23 UNL     1      85.986 -12.280  67.237  1.00  0.00     0.279 HD
HETATM   10  N3  UNL     1      84.943 -14.349  65.963  1.00  0.00    -0.284 N 
ATOM     11  H3  UNL     1      85.726 -14.686  66.524  1.00  0.00     0.184 HD
ENDROOT
BRANCH  10  12
HETATM   12  N4  UNL     1      84.531 -15.112  64.858  1.00  0.00    -0.309 N 
HETATM   13  C2  UNL     1      83.433 -15.791  64.913  1.00  0.00     0.155 C 
ATOM     14  H4  UNL     1      85.099 -15.129  64.011  1.00  0.00     0.185 HD
BRANCH  13  15
HETATM   15  C3  UNL     1      83.016 -16.580  63.755  1.00  0.00     0.122 A 
HETATM   16  N5  UNL     1      83.681 -16.598  62.573  1.00  0.00    -0.350 N 
HETATM   17  C4  UNL     1      83.054 -17.416  61.710  1.00  0.00     0.106 A 
ATOM     18  H5  UNL     1      84.531 -16.071  62.370  1.00  0.00     0.166 HD
HETATM   19  C5  UNL     1      81.970 -17.907  62.402  1.00  0.00     0.106 A 
HETATM   20  N6  UNL     1      81.948 -17.396  63.651  1.00  0.00    -0.350 N 
ATOM     21  H6  UNL     1      81.257 -17.590  64.376  1.00  0.00     0.166 HD
ENDBRANCH  13  15
ENDBRANCH  10  12
TORSDOF 2
ENDMDL
MODEL 3
REMARK VINA RESULT: -5.152672493      1.445      1.646
REMARK  2 active torsions:
REMARK  status: ('A' for Active; 'I' for Inactive)
REMARK       I    between atoms: N1_1  and  C1_5 
REMARK       I    between atoms: C1_5  and  N2_6 
REMARK       I    between atoms: C1_5  and  N3_10 
REMARK    1  A    between atoms: N3_10  and  N4_12 
REMARK    2  A    between atoms: C2_14  and  C3_15 
ROOT
HETATM    1  N1  UNL     1      87.090 -15.112  65.664  1.00  0.00    -0.032 N 
ATOM      2  H11 UNL     1      87.025 -15.236  64.654  1.00  0.00     0.279 HD
ATOM      3  H12 UNL     1      87.219 -15.987  66.172  1.00  0.00     0.279 HD
ATOM      4  H13 UNL     1      87.957 -14.665  65.963  1.00  0.00     0.279 HD
HETATM    5  C1  UNL     1      85.891 -14.378  66.064  1.00  0.00     0.494 C 
HETATM    6  N2  UNL     1      85.984 -14.203  67.501  1.00  0.00    -0.032 N 
ATOM      7  H21 UNL     1      85.147 -13.691  67.780  1.00  0.00     0.279 HD
ATOM      8  H22 UNL     1      86.851 -13.756  67.800  1.00  0.00     0.279 HD
ATOM      9  H23 UNL     1      86.113 -15.077  68.009  1.00  0.00     0.279 HD
HETATM   10  N3  UNL     1      84.690 -15.117  65.782  1.00  0.00    -0.284 N 
ATOM     11  H3  UNL     1      84.071 -15.359  66.556  1.00  0.00     0.184 HD
ENDROOT
BRANCH  10  12
HETATM   12  N4  UNL     1      84.332 -15.519  64.484  1.00  0.00    -0.309 N 
HETATM   13  C2  UNL     1      83.233 -16.169  64.286  1.00  0.00     0.155 C 
ATOM     14  H4  UNL     1      84.942 -15.297  63.696  1.00  0.00     0.185 HD
BRANCH  13  15
HETATM   15  C3  UNL     1      82.874 -16.581  62.931  1.00  0.00     0.122 A 
HETATM   16  N5  UNL     1      81.639 -16.422  62.393  1.00  0.00    -0.350 N 
HETATM   17  C4  UNL     1      81.624 -16.898  61.136  1.00  0.00     0.106 A 
ATOM     18  H5  UNL     1      80.841 -16.004  62.871  1.00  0.00     0.166 HD
HETATM   19  C5  UNL     1      82.902 -17.360  60.911  1.00  0.00     0.106 A 
HETATM   20  N6  UNL     1      83.665 -17.166  62.007  1.00  0.00    -0.350 N 
ATOM     21  H6  UNL     1      84.649 -17.413  62.116  1.00  0.00     0.166 HD
ENDBRANCH  13  15
ENDBRANCH  10  12
TORSDOF 2
ENDMDL
MODEL 4
REMARK VINA RESULT: -5.129179217      1.280      5.548
REMARK  2 active torsions:
REMARK  status: ('A' for Active; 'I' for Inactive)
REMARK       I    between atoms: N1_1  and  C1_5 
REMARK       I    between atoms: C1_5  and  N2_6 
REMARK       I    between atoms: C1_5  and  N3_10 
REMARK    1  A    between atoms: N3_10  and  N4_12 
REMARK    2  A    between atoms: C2_14  and  C3_15 
ROOT
HETATM    1  N1  UNL     1      83.909 -17.632  62.479  1.00  0.00    -0.032 N 
ATOM      2  H11 UNL     1      84.552 -17.288  63.192  1.00  0.00     0.279 HD
ATOM      3  H12 UNL     1      83.881 -17.050  61.643  1.00  0.00     0.279 HD
ATOM      4  H13 UNL     1      84.228 -18.488  62.024  1.00  0.00     0.279 HD
HETATM    5  C1  UNL     1      82.610 -17.772  63.134  1.00  0.00     0.494 C 
HETATM    6  N2  UNL     1      81.696 -18.262  62.119  1.00  0.00    -0.032 N 
ATOM      7  H21 UNL     1      80.789 -18.359  62.577  1.00  0.00     0.279 HD
ATOM      8  H22 UNL     1      82.015 -19.118  61.665  1.00  0.00     0.279 HD
ATOM      9  H23 UNL     1      81.668 -17.679  61.283  1.00  0.00     0.279 HD
HETATM   10  N3  UNL     1      82.111 -16.512  63.613  1.00  0.00    -0.284 N 
ATOM     11  H3  UNL     1      81.220 -16.170  63.253  1.00  0.00     0.184 HD
ENDROOT
BRANCH  10  12
HETATM   12  N4  UNL     1      82.799 -15.731  64.557  1.00  0.00    -0.309 N 
HETATM   13  C2  UNL     1      83.446 -14.679  64.180  1.00  0.00     0.155 C 
ATOM     14  H4  UNL     1      82.788 -15.996  65.542  1.00  0.00     0.185 HD
BRANCH  13  15
HETATM   15  C3  UNL     1      84.158 -13.877  65.173  1.00  0.00     0.122 A 
HETATM   16  N5  UNL     1      84.212 -12.522  65.153  1.00  0.00    -0.350 N 
HETATM   17  C4  UNL     1      84.938 -12.079  66.194  1.00  0.00     0.106 A 
ATOM     18  H5  UNL     1      83.768 -11.927  64.454  1.00  0.00     0.166 HD
HETATM   19  C5  UNL     1      85.335 -13.215  66.865  1.00  0.00     0.106 A 
HETATM   20  N6  UNL     1      84.857 -14.312  66.241  1.00  0.00    -0.350 N 
ATOM     21  H6  UNL     1      84.998 -15.283  66.522  1.00  0.00     0.166 HD
ENDBRANCH  13  15
ENDBRANCH  10  12
TORSDOF 2
ENDMDL
MODEL 5
REMARK VINA RESULT: -5.099697890      1.417      1.896
REMARK  2 active torsions:
REMARK  status: ('A' for Active; 'I' for Inactive)
REMARK       I    between atoms: N1_1  and  C1_5 
REMARK       I    between atoms: C1_5  and  N2_6 
REMARK       I    between atoms: C1_5  and  N3_10 
REMARK    1  A    between atoms: N3_10  and  N4_12 
REMARK    2  A    between atoms: C2_14  and  C3_15 
ROOT
HETATM    1  N1  UNL     1      87.033 -15.079  65.676  1.00  0.00    -0.032 N 
ATOM      2  H11 UNL     1      86.944 -15.207  64.668  1.00  0.00     0.279 HD
ATOM      3  H12 UNL     1      87.198 -15.949  66.182  1.00  0.00     0.279 HD
ATOM      4  H13 UNL     1      87.896 -14.610  65.951  1.00  0.00     0.279 HD
HETATM    5  C1  UNL     1      85.826 -14.375  66.106  1.00  0.00     0.494 C 
HETATM    6  N2  UNL     1      85.953 -14.194  67.541  1.00  0.00    -0.032 N 
ATOM      7  H21 UNL     1      85.111 -13.703  67.840  1.00  0.00     0.279 HD
ATOM      8  H22 UNL     1      86.815 -13.725  67.815  1.00  0.00     0.279 HD
ATOM      9  H23 UNL     1      86.117 -15.064  68.047  1.00  0.00     0.279 HD
HETATM   10  N3  UNL     1      84.637 -15.145  65.857  1.00  0.00    -0.284 N 
ATOM     11  H3  UNL     1      84.046 -15.401  66.648  1.00  0.00     0.184 HD
ENDROOT
BRANCH  10  12
HETATM   12  N4  UNL     1      84.256 -15.559  64.570  1.00  0.00    -0.309 N 
HETATM   13  C2  UNL     1      83.141 -16.188  64.395  1.00  0.00     0.155 C 
ATOM     14  H4  UNL     1      84.861 -15.363  63.772  1.00  0.00     0.185 HD
BRANCH  13  15
HETATM   15  C3  UNL     1      82.758 -16.613  63.050  1.00  0.00     0.122 A 
HETATM   16  N5  UNL     1      83.610 -17.190  62.168  1.00  0.00    -0.350 N 
HETATM   17  C4  UNL     1      82.963 -17.465  61.022  1.00  0.00     0.106 A 
ATOM     18  H5  UNL     1      84.595 -17.385  62.346  1.00  0.00     0.166 HD
HETATM   19  C5  UNL     1      81.670 -17.037  61.227  1.00  0.00     0.106 A 
HETATM   20  N6  UNL     1      81.546 -16.517  62.466  1.00  0.00    -0.350 N 
ATOM     21  H6  UNL     1      80.699 -16.127  62.880  1.00  0.00     0.166 HD
ENDBRANCH  13  15
ENDBRANCH  10  12
TORSDOF 2
ENDMDL
