MODEL 1
REMARK VINA RESULT: -9.894908984      0.000      0.000
REMARK  13 active torsions:
REMARK  status: ('A' for Active; 'I' for Inactive)
REMARK    1  A    between atoms: C2_2  and  C3_3 
REMARK    2  A    between atoms: C2_2  and  C14_20 
REMARK    3  A    between atoms: C3_3  and  C4_4 
REMARK    4  A    between atoms: C4_4  and  C5_5 
REMARK    5  A    between atoms: C5_5  and  C6_6 
REMARK    6  A    between atoms: C6_6  and  O1_7 
REMARK    7  A    between atoms: C6_6  and  C7_9 
REMARK    8  A    between atoms: C7_9  and  C8_10 
REMARK    9  A    between atoms: C8_10  and  C9_11 
REMARK   10  A    between atoms: C9_11  and  C10_12 
REMARK   11  A    between atoms: C10_12  and  C11_13 
REMARK   12  A    between atoms: C11_13  and  C12_14 
REMARK   13  A    between atoms: C12_14  and  N1_15 
REMARK       I    between atoms: N1_15  and  C13_17 
ROOT
HETATM    1  C14 UNL     1      -9.575  17.011  29.380  1.00  0.00    -0.002 C 
HETATM    2  C15 UNL     1     -10.964  17.500  28.948  1.00  0.00     0.006 C 
HETATM    3  C16 UNL     1     -11.138  17.136  27.509  1.00  0.00     0.006 C 
HETATM    4  C17 UNL     1     -10.034  16.156  27.174  1.00  0.00    -0.002 C 
HETATM    5  C18 UNL     1      -9.684  16.105  25.739  1.00  0.00    -0.005 C 
HETATM    6  C19 UNL     1     -11.010  16.192  24.963  1.00  0.00     0.006 C 
HETATM    7  C20 UNL     1     -10.668  16.001  23.529  1.00  0.00     0.015 C 
HETATM    8  C21 UNL     1      -9.609  16.903  22.982  1.00  0.00     0.087 C 
HETATM    9  C22 UNL     1      -9.421  16.527  21.571  1.00  0.00     0.229 C 
HETATM   10  O3  UNL     1     -10.179  15.651  21.046  1.00  0.00    -0.273 OA
HETATM   11  N3  UNL     1      -8.458  17.034  20.663  1.00  0.00    -0.297 N 
ATOM     12  H3  UNL     1      -8.656  16.892  19.673  1.00  0.00     0.171 HD
HETATM   13  C23 UNL     1      -7.247  17.719  20.968  1.00  0.00     0.224 C 
HETATM   14  O4  UNL     1      -6.755  18.435  20.033  1.00  0.00    -0.273 OA
HETATM   15  C24 UNL     1      -6.515  17.683  22.242  1.00  0.00     0.104 C 
HETATM   16  C25 UNL     1      -7.344  17.900  23.462  1.00  0.00     0.019 C 
HETATM   17  C26 UNL     1      -8.347  16.871  23.823  1.00  0.00    -0.028 C 
HETATM   18  C27 UNL     1      -7.758  15.486  23.881  1.00  0.00     0.016 C 
HETATM   19  C28 UNL     1      -8.835  17.210  25.225  1.00  0.00    -0.001 C 
HETATM   20  C29 UNL     1      -7.786  17.680  26.160  1.00  0.00     0.006 C 
HETATM   21  C30 UNL     1      -8.362  17.869  27.526  1.00  0.00     0.010 C 
HETATM   22  C31 UNL     1      -8.962  16.586  28.124  1.00  0.00    -0.036 C 
HETATM   23  C32 UNL     1      -7.814  15.622  28.191  1.00  0.00     0.016 C 
ENDROOT
BRANCH   1  24
HETATM   24  C2  UNL     1      -9.760  16.095  30.521  1.00  0.00    -0.014 C 
HETATM   25  C1  UNL     1     -10.776  15.031  30.402  1.00  0.00     0.010 C 
BRANCH  24  26
HETATM   26  C3  UNL     1      -8.505  15.546  31.138  1.00  0.00     0.005 C 
BRANCH  26  27
HETATM   27  C4  UNL     1      -7.976  16.312  32.319  1.00  0.00     0.003 C 
BRANCH  27  28
HETATM   28  C5  UNL     1      -9.064  17.063  32.990  1.00  0.00     0.032 C 
BRANCH  28  29
HETATM   29  C6  UNL     1      -9.246  16.634  34.461  1.00  0.00     0.118 C 
BRANCH  29  30
HETATM   30  O1  UNL     1     -10.498  17.149  34.870  1.00  0.00    -0.396 OA
ATOM     31  H1  UNL     1     -10.329  17.673  35.645  1.00  0.00     0.210 HD
ENDBRANCH  29  30
BRANCH  29  32
HETATM   32  C7  UNL     1      -9.215  15.164  34.601  1.00  0.00     0.032 C 
BRANCH  32  33
HETATM   33  C8  UNL     1     -10.060  14.639  35.706  1.00  0.00     0.002 C 
BRANCH  33  34
HETATM   34  C9  UNL     1     -11.104  13.645  35.326  1.00  0.00     0.000 C 
BRANCH  34  35
HETATM   35  C10 UNL     1     -12.443  14.404  35.393  1.00  0.00     0.002 C 
BRANCH  35  36
HETATM   36  C11 UNL     1     -13.247  14.091  34.195  1.00  0.00     0.020 C 
BRANCH  36  37
HETATM   37  C12 UNL     1     -13.190  15.200  33.183  1.00  0.00     0.124 C 
BRANCH  37  38
HETATM   38  N1  UNL     1     -14.545  15.469  32.665  1.00  0.00    -0.345 N 
HETATM   39  C13 UNL     1     -14.946  14.765  31.511  1.00  0.00     0.328 C 
HETATM   40  N2  UNL     1     -16.232  14.979  30.966  1.00  0.00    -0.040 NA
HETATM   41  O2  UNL     1     -14.190  13.936  30.935  1.00  0.00    -0.251 OA
ATOM     42  H1  UNL     1     -15.166  16.137  33.122  1.00  0.00     0.163 HD
ENDBRANCH  37  38
ENDBRANCH  36  37
ENDBRANCH  35  36
ENDBRANCH  34  35
ENDBRANCH  33  34
ENDBRANCH  32  33
ENDBRANCH  29  32
ENDBRANCH  28  29
ENDBRANCH  27  28
ENDBRANCH  26  27
ENDBRANCH  24  26
ENDBRANCH   1  24
TORSDOF 13
ENDMDL
MODEL 2
REMARK VINA RESULT: -9.880402032      1.493      3.363
REMARK  13 active torsions:
REMARK  status: ('A' for Active; 'I' for Inactive)
REMARK    1  A    between atoms: C2_2  and  C3_3 
REMARK    2  A    between atoms: C2_2  and  C14_20 
REMARK    3  A    between atoms: C3_3  and  C4_4 
REMARK    4  A    between atoms: C4_4  and  C5_5 
REMARK    5  A    between atoms: C5_5  and  C6_6 
REMARK    6  A    between atoms: C6_6  and  O1_7 
REMARK    7  A    between atoms: C6_6  and  C7_9 
REMARK    8  A    between atoms: C7_9  and  C8_10 
REMARK    9  A    between atoms: C8_10  and  C9_11 
REMARK   10  A    between atoms: C9_11  and  C10_12 
REMARK   11  A    between atoms: C10_12  and  C11_13 
REMARK   12  A    between atoms: C11_13  and  C12_14 
REMARK   13  A    between atoms: C12_14  and  N1_15 
REMARK       I    between atoms: N1_15  and  C13_17 
ROOT
HETATM    1  C14 UNL     1      -9.248  17.277  29.602  1.00  0.00    -0.002 C 
HETATM    2  C15 UNL     1     -10.639  17.802  29.217  1.00  0.00     0.006 C 
HETATM    3  C16 UNL     1     -10.889  17.403  27.798  1.00  0.00     0.006 C 
HETATM    4  C17 UNL     1      -9.835  16.376  27.445  1.00  0.00    -0.002 C 
HETATM    5  C18 UNL     1      -9.552  16.271  25.998  1.00  0.00    -0.005 C 
HETATM    6  C19 UNL     1     -10.907  16.382  25.279  1.00  0.00     0.006 C 
HETATM    7  C20 UNL     1     -10.636  16.138  23.838  1.00  0.00     0.015 C 
HETATM    8  C21 UNL     1      -9.573  16.987  23.218  1.00  0.00     0.087 C 
HETATM    9  C22 UNL     1      -9.462  16.565  21.812  1.00  0.00     0.229 C 
HETATM   10  O3  UNL     1     -10.272  15.700  21.348  1.00  0.00    -0.273 OA
HETATM   11  N3  UNL     1      -8.524  17.012  20.848  1.00  0.00    -0.297 N 
ATOM     12  H3  UNL     1      -8.771  16.848  19.872  1.00  0.00     0.171 HD
HETATM   13  C23 UNL     1      -7.278  17.662  21.079  1.00  0.00     0.224 C 
HETATM   14  O4  UNL     1      -6.805  18.334  20.101  1.00  0.00    -0.273 OA
HETATM   15  C24 UNL     1      -6.492  17.638  22.319  1.00  0.00     0.104 C 
HETATM   16  C25 UNL     1      -7.257  17.918  23.568  1.00  0.00     0.019 C 
HETATM   17  C26 UNL     1      -8.277  16.936  24.003  1.00  0.00    -0.028 C 
HETATM   18  C27 UNL     1      -7.732  15.534  24.077  1.00  0.00     0.016 C 
HETATM   19  C28 UNL     1      -8.690  17.331  25.414  1.00  0.00    -0.001 C 
HETATM   20  C29 UNL     1      -7.585  17.791  26.287  1.00  0.00     0.006 C 
HETATM   21  C30 UNL     1      -8.092  18.040  27.671  1.00  0.00     0.010 C 
HETATM   22  C31 UNL     1      -8.707  16.796  28.334  1.00  0.00    -0.036 C 
HETATM   23  C32 UNL     1      -7.590  15.795  28.380  1.00  0.00     0.016 C 
ENDROOT
BRANCH   1  24
HETATM   24  C2  UNL     1      -9.412  16.401  30.777  1.00  0.00    -0.014 C 
HETATM   25  C1  UNL     1      -8.678  16.745  32.010  1.00  0.00     0.010 C 
BRANCH  24  26
HETATM   26  C3  UNL     1     -10.821  15.996  31.109  1.00  0.00     0.005 C 
BRANCH  26  27
HETATM   27  C4  UNL     1     -11.105  14.522  31.033  1.00  0.00     0.003 C 
BRANCH  27  28
HETATM   28  C5  UNL     1     -11.627  14.154  29.696  1.00  0.00     0.032 C 
BRANCH  28  29
HETATM   29  C6  UNL     1     -13.030  14.743  29.437  1.00  0.00     0.118 C 
BRANCH  29  30
HETATM   30  O1  UNL     1     -13.208  14.737  28.033  1.00  0.00    -0.396 OA
ATOM     31  H1  UNL     1     -12.338  14.801  27.655  1.00  0.00     0.210 HD
ENDBRANCH  29  30
BRANCH  29  32
HETATM   32  C7  UNL     1     -14.079  13.944  30.100  1.00  0.00     0.032 C 
BRANCH  32  33
HETATM   33  C8  UNL     1     -14.959  14.727  31.008  1.00  0.00     0.002 C 
BRANCH  33  34
HETATM   34  C9  UNL     1     -14.511  14.846  32.424  1.00  0.00     0.000 C 
BRANCH  34  35
HETATM   35  C10 UNL     1     -14.060  13.431  32.837  1.00  0.00     0.002 C 
BRANCH  35  36
HETATM   36  C11 UNL     1     -13.448  13.481  34.180  1.00  0.00     0.020 C 
BRANCH  36  37
HETATM   37  C12 UNL     1     -12.719  14.775  34.408  1.00  0.00     0.124 C 
BRANCH  37  38
HETATM   38  N1  UNL     1     -11.326  14.496  34.805  1.00  0.00    -0.345 N 
HETATM   39  C13 UNL     1     -10.490  15.606  35.047  1.00  0.00     0.328 C 
HETATM   40  N2  UNL     1      -9.145  15.405  35.430  1.00  0.00    -0.040 NA
HETATM   41  O2  UNL     1     -10.902  16.793  34.932  1.00  0.00    -0.251 OA
ATOM     42  H1  UNL     1     -10.981  13.541  34.901  1.00  0.00     0.163 HD
ENDBRANCH  37  38
ENDBRANCH  36  37
ENDBRANCH  35  36
ENDBRANCH  34  35
ENDBRANCH  33  34
ENDBRANCH  32  33
ENDBRANCH  29  32
ENDBRANCH  28  29
ENDBRANCH  27  28
ENDBRANCH  26  27
ENDBRANCH  24  26
ENDBRANCH   1  24
TORSDOF 13
ENDMDL
MODEL 3
REMARK VINA RESULT: -9.833968182      1.059      1.380
REMARK  13 active torsions:
REMARK  status: ('A' for Active; 'I' for Inactive)
REMARK    1  A    between atoms: C2_2  and  C3_3 
REMARK    2  A    between atoms: C2_2  and  C14_20 
REMARK    3  A    between atoms: C3_3  and  C4_4 
REMARK    4  A    between atoms: C4_4  and  C5_5 
REMARK    5  A    between atoms: C5_5  and  C6_6 
REMARK    6  A    between atoms: C6_6  and  O1_7 
REMARK    7  A    between atoms: C6_6  and  C7_9 
REMARK    8  A    between atoms: C7_9  and  C8_10 
REMARK    9  A    between atoms: C8_10  and  C9_11 
REMARK   10  A    between atoms: C9_11  and  C10_12 
REMARK   11  A    between atoms: C10_12  and  C11_13 
REMARK   12  A    between atoms: C11_13  and  C12_14 
REMARK   13  A    between atoms: C12_14  and  N1_15 
REMARK       I    between atoms: N1_15  and  C13_17 
ROOT
HETATM    1  C14 UNL     1      -9.247  17.308  29.655  1.00  0.00    -0.002 C 
HETATM    2  C15 UNL     1     -10.649  17.812  29.286  1.00  0.00     0.006 C 
HETATM    3  C16 UNL     1     -10.913  17.406  27.873  1.00  0.00     0.006 C 
HETATM    4  C17 UNL     1      -9.850  16.392  27.509  1.00  0.00    -0.002 C 
HETATM    5  C18 UNL     1      -9.585  16.287  26.058  1.00  0.00    -0.005 C 
HETATM    6  C19 UNL     1     -10.951  16.377  25.357  1.00  0.00     0.006 C 
HETATM    7  C20 UNL     1     -10.696  16.132  23.913  1.00  0.00     0.015 C 
HETATM    8  C21 UNL     1      -9.653  16.994  23.277  1.00  0.00     0.087 C 
HETATM    9  C22 UNL     1      -9.554  16.568  21.870  1.00  0.00     0.229 C 
HETATM   10  O3  UNL     1     -10.359  15.692  21.419  1.00  0.00    -0.273 OA
HETATM   11  N3  UNL     1      -8.636  17.025  20.892  1.00  0.00    -0.297 N 
ATOM     12  H3  UNL     1      -8.894  16.855  19.920  1.00  0.00     0.171 HD
HETATM   13  C23 UNL     1      -7.396  17.693  21.105  1.00  0.00     0.224 C 
HETATM   14  O4  UNL     1      -6.945  18.367  20.119  1.00  0.00    -0.273 OA
HETATM   15  C24 UNL     1      -6.592  17.682  22.335  1.00  0.00     0.104 C 
HETATM   16  C25 UNL     1      -7.345  17.957  23.593  1.00  0.00     0.019 C 
HETATM   17  C26 UNL     1      -8.345  16.962  24.045  1.00  0.00    -0.028 C 
HETATM   18  C27 UNL     1      -7.781  15.567  24.115  1.00  0.00     0.016 C 
HETATM   19  C28 UNL     1      -8.745  17.356  25.459  1.00  0.00    -0.001 C 
HETATM   20  C29 UNL     1      -7.634  17.834  26.316  1.00  0.00     0.006 C 
HETATM   21  C30 UNL     1      -8.126  18.079  27.706  1.00  0.00     0.010 C 
HETATM   22  C31 UNL     1      -8.716  16.829  28.381  1.00  0.00    -0.036 C 
HETATM   23  C32 UNL     1      -7.586  15.844  28.415  1.00  0.00     0.016 C 
ENDROOT
BRANCH   1  24
HETATM   24  C2  UNL     1      -9.383  16.433  30.835  1.00  0.00    -0.014 C 
HETATM   25  C1  UNL     1     -10.098  15.153  30.673  1.00  0.00     0.010 C 
BRANCH  24  26
HETATM   26  C3  UNL     1      -8.142  16.233  31.657  1.00  0.00     0.005 C 
BRANCH  26  27
HETATM   27  C4  UNL     1      -8.356  15.621  33.013  1.00  0.00     0.003 C 
BRANCH  27  28
HETATM   28  C5  UNL     1      -9.085  16.555  33.904  1.00  0.00     0.032 C 
BRANCH  28  29
HETATM   29  C6  UNL     1      -9.960  15.811  34.935  1.00  0.00     0.118 C 
BRANCH  29  30
HETATM   30  O1  UNL     1     -11.060  16.660  35.203  1.00  0.00    -0.396 OA
ATOM     31  H1  UNL     1     -11.750  16.100  35.540  1.00  0.00     0.210 HD
ENDBRANCH  29  30
BRANCH  29  32
HETATM   32  C7  UNL     1     -10.420  14.509  34.411  1.00  0.00     0.032 C 
BRANCH  32  33
HETATM   33  C8  UNL     1     -11.843  14.199  34.713  1.00  0.00     0.002 C 
BRANCH  33  34
HETATM   34  C9  UNL     1     -12.710  13.870  33.547  1.00  0.00     0.000 C 
BRANCH  34  35
HETATM   35  C10 UNL     1     -13.067  15.222  32.901  1.00  0.00     0.002 C 
BRANCH  35  36
HETATM   36  C11 UNL     1     -14.508  15.247  32.576  1.00  0.00     0.020 C 
BRANCH  36  37
HETATM   37  C12 UNL     1     -14.842  14.289  31.468  1.00  0.00     0.124 C 
BRANCH  37  38
HETATM   38  N1  UNL     1     -14.537  14.910  30.165  1.00  0.00    -0.345 N 
HETATM   39  C13 UNL     1     -13.582  14.266  29.353  1.00  0.00     0.328 C 
HETATM   40  N2  UNL     1     -13.246  14.811  28.093  1.00  0.00    -0.040 NA
HETATM   41  O2  UNL     1     -13.003  13.204  29.710  1.00  0.00    -0.251 OA
ATOM     42  H1  UNL     1     -14.998  15.769  29.864  1.00  0.00     0.163 HD
ENDBRANCH  37  38
ENDBRANCH  36  37
ENDBRANCH  35  36
ENDBRANCH  34  35
ENDBRANCH  33  34
ENDBRANCH  32  33
ENDBRANCH  29  32
ENDBRANCH  28  29
ENDBRANCH  27  28
ENDBRANCH  26  27
ENDBRANCH  24  26
ENDBRANCH   1  24
TORSDOF 13
ENDMDL
MODEL 4
REMARK VINA RESULT: -9.791360063      1.263      1.976
REMARK  13 active torsions:
REMARK  status: ('A' for Active; 'I' for Inactive)
REMARK    1  A    between atoms: C2_2  and  C3_3 
REMARK    2  A    between atoms: C2_2  and  C14_20 
REMARK    3  A    between atoms: C3_3  and  C4_4 
REMARK    4  A    between atoms: C4_4  and  C5_5 
REMARK    5  A    between atoms: C5_5  and  C6_6 
REMARK    6  A    between atoms: C6_6  and  O1_7 
REMARK    7  A    between atoms: C6_6  and  C7_9 
REMARK    8  A    between atoms: C7_9  and  C8_10 
REMARK    9  A    between atoms: C8_10  and  C9_11 
REMARK   10  A    between atoms: C9_11  and  C10_12 
REMARK   11  A    between atoms: C10_12  and  C11_13 
REMARK   12  A    between atoms: C11_13  and  C12_14 
REMARK   13  A    between atoms: C12_14  and  N1_15 
REMARK       I    between atoms: N1_15  and  C13_17 
ROOT
HETATM    1  C14 UNL     1      -8.973  17.405  29.924  1.00  0.00    -0.002 C 
HETATM    2  C15 UNL     1     -10.427  17.817  29.650  1.00  0.00     0.006 C 
HETATM    3  C16 UNL     1     -10.769  17.358  28.270  1.00  0.00     0.006 C 
HETATM    4  C17 UNL     1      -9.677  16.398  27.850  1.00  0.00    -0.002 C 
HETATM    5  C18 UNL     1      -9.513  16.270  26.387  1.00  0.00    -0.005 C 
HETATM    6  C19 UNL     1     -10.930  16.261  25.788  1.00  0.00     0.006 C 
HETATM    7  C20 UNL     1     -10.769  15.993  24.335  1.00  0.00     0.015 C 
HETATM    8  C21 UNL     1      -9.829  16.896  23.603  1.00  0.00     0.087 C 
HETATM    9  C22 UNL     1      -9.809  16.440  22.202  1.00  0.00     0.229 C 
HETATM   10  O3  UNL     1     -10.590  15.506  21.833  1.00  0.00    -0.273 OA
HETATM   11  N3  UNL     1      -8.993  16.922  21.149  1.00  0.00    -0.297 N 
ATOM     12  H3  UNL     1      -9.312  16.712  20.203  1.00  0.00     0.171 HD
HETATM   13  C23 UNL     1      -7.784  17.667  21.252  1.00  0.00     0.224 C 
HETATM   14  O4  UNL     1      -7.448  18.340  20.220  1.00  0.00    -0.273 OA
HETATM   15  C24 UNL     1      -6.893  17.736  22.418  1.00  0.00     0.104 C 
HETATM   16  C25 UNL     1      -7.566  18.000  23.723  1.00  0.00     0.019 C 
HETATM   17  C26 UNL     1      -8.469  16.962  24.271  1.00  0.00    -0.028 C 
HETATM   18  C27 UNL     1      -7.818  15.604  24.330  1.00  0.00     0.016 C 
HETATM   19  C28 UNL     1      -8.786  17.369  25.702  1.00  0.00    -0.001 C 
HETATM   20  C29 UNL     1      -7.646  17.934  26.463  1.00  0.00     0.006 C 
HETATM   21  C30 UNL     1      -8.048  18.188  27.880  1.00  0.00     0.010 C 
HETATM   22  C31 UNL     1      -8.510  16.924  28.624  1.00  0.00    -0.036 C 
HETATM   23  C32 UNL     1      -7.323  16.007  28.595  1.00  0.00     0.016 C 
ENDROOT
BRANCH   1  24
HETATM   24  C2  UNL     1      -8.970  16.556  31.130  1.00  0.00    -0.014 C 
HETATM   25  C1  UNL     1      -8.463  15.176  31.008  1.00  0.00     0.010 C 
BRANCH  24  26
HETATM   26  C3  UNL     1      -8.444  17.192  32.385  1.00  0.00     0.005 C 
BRANCH  26  27
HETATM   27  C4  UNL     1      -8.615  16.383  33.641  1.00  0.00     0.003 C 
BRANCH  27  28
HETATM   28  C5  UNL     1      -9.863  16.761  34.345  1.00  0.00     0.032 C 
BRANCH  28  29
HETATM   29  C6  UNL     1     -10.612  15.531  34.900  1.00  0.00     0.118 C 
BRANCH  29  30
HETATM   30  O1  UNL     1     -11.741  16.034  35.590  1.00  0.00    -0.396 OA
ATOM     31  H1  UNL     1     -12.309  15.290  35.747  1.00  0.00     0.210 HD
ENDBRANCH  29  30
BRANCH  29  32
HETATM   32  C7  UNL     1     -11.026  14.618  33.816  1.00  0.00     0.032 C 
BRANCH  32  33
HETATM   33  C8  UNL     1     -12.315  14.983  33.170  1.00  0.00     0.002 C 
BRANCH  33  34
HETATM   34  C9  UNL     1     -12.248  15.374  31.734  1.00  0.00     0.000 C 
BRANCH  34  35
HETATM   35  C10 UNL     1     -11.724  14.130  30.990  1.00  0.00     0.002 C 
BRANCH  35  36
HETATM   36  C11 UNL     1     -12.160  14.180  29.580  1.00  0.00     0.020 C 
BRANCH  36  37
HETATM   37  C12 UNL     1     -13.657  14.139  29.460  1.00  0.00     0.124 C 
BRANCH  37  38
HETATM   38  N1  UNL     1     -14.179  12.950  30.161  1.00  0.00    -0.345 N 
HETATM   39  C13 UNL     1     -15.326  13.126  30.962  1.00  0.00     0.328 C 
HETATM   40  N2  UNL     1     -15.874  12.026  31.659  1.00  0.00    -0.040 NA
HETATM   41  O2  UNL     1     -15.892  14.246  31.085  1.00  0.00    -0.251 OA
ATOM     42  H1  UNL     1     -13.729  12.039  30.069  1.00  0.00     0.163 HD
ENDBRANCH  37  38
ENDBRANCH  36  37
ENDBRANCH  35  36
ENDBRANCH  34  35
ENDBRANCH  33  34
ENDBRANCH  32  33
ENDBRANCH  29  32
ENDBRANCH  28  29
ENDBRANCH  27  28
ENDBRANCH  26  27
ENDBRANCH  24  26
ENDBRANCH   1  24
TORSDOF 13
ENDMDL
MODEL 5
REMARK VINA RESULT: -9.542103200      1.069      1.407
REMARK  13 active torsions:
REMARK  status: ('A' for Active; 'I' for Inactive)
REMARK    1  A    between atoms: C2_2  and  C3_3 
REMARK    2  A    between atoms: C2_2  and  C14_20 
REMARK    3  A    between atoms: C3_3  and  C4_4 
REMARK    4  A    between atoms: C4_4  and  C5_5 
REMARK    5  A    between atoms: C5_5  and  C6_6 
REMARK    6  A    between atoms: C6_6  and  O1_7 
REMARK    7  A    between atoms: C6_6  and  C7_9 
REMARK    8  A    between atoms: C7_9  and  C8_10 
REMARK    9  A    between atoms: C8_10  and  C9_11 
REMARK   10  A    between atoms: C9_11  and  C10_12 
REMARK   11  A    between atoms: C10_12  and  C11_13 
REMARK   12  A    between atoms: C11_13  and  C12_14 
REMARK   13  A    between atoms: C12_14  and  N1_15 
REMARK       I    between atoms: N1_15  and  C13_17 
ROOT
HETATM    1  C14 UNL     1     -10.844  16.247  28.485  1.00  0.00    -0.002 C 
HETATM    2  C15 UNL     1     -12.090  16.790  27.771  1.00  0.00     0.006 C 
HETATM    3  C16 UNL     1     -11.893  16.580  26.305  1.00  0.00     0.006 C 
HETATM    4  C17 UNL     1     -10.723  15.631  26.158  1.00  0.00    -0.002 C 
HETATM    5  C18 UNL     1     -10.024  15.727  24.859  1.00  0.00    -0.005 C 
HETATM    6  C19 UNL     1     -11.115  15.905  23.789  1.00  0.00     0.006 C 
HETATM    7  C20 UNL     1     -10.423  15.862  22.474  1.00  0.00     0.015 C 
HETATM    8  C21 UNL     1      -9.277  16.808  22.306  1.00  0.00     0.087 C 
HETATM    9  C22 UNL     1      -8.736  16.580  20.956  1.00  0.00     0.229 C 
HETATM   10  O3  UNL     1      -9.323  15.769  20.170  1.00  0.00    -0.273 OA
HETATM   11  N3  UNL     1      -7.585  17.170  20.375  1.00  0.00    -0.297 N 
ATOM     12  H3  UNL     1      -7.527  17.134  19.358  1.00  0.00     0.171 HD
HETATM   13  C23 UNL     1      -6.501  17.809  21.043  1.00  0.00     0.224 C 
HETATM   14  O4  UNL     1      -5.804  18.614  20.339  1.00  0.00    -0.273 OA
HETATM   15  C24 UNL     1      -6.111  17.634  22.449  1.00  0.00     0.104 C 
HETATM   16  C25 UNL     1      -7.222  17.730  23.438  1.00  0.00     0.019 C 
HETATM   17  C26 UNL     1      -8.265  16.678  23.428  1.00  0.00    -0.028 C 
HETATM   18  C27 UNL     1      -7.684  15.289  23.488  1.00  0.00     0.016 C 
HETATM   19  C28 UNL     1      -9.094  16.872  24.690  1.00  0.00    -0.001 C 
HETATM   20  C29 UNL     1      -8.320  17.233  25.901  1.00  0.00     0.006 C 
HETATM   21  C30 UNL     1      -9.222  17.284  27.092  1.00  0.00     0.010 C 
HETATM   22  C31 UNL     1      -9.930  15.950  27.385  1.00  0.00    -0.036 C 
HETATM   23  C32 UNL     1      -8.818  14.975  27.638  1.00  0.00     0.016 C 
ENDROOT
BRANCH   1  24
HETATM   24  C2  UNL     1     -11.292  15.218  29.442  1.00  0.00    -0.014 C 
HETATM   25  C1  UNL     1     -11.639  13.883  28.918  1.00  0.00     0.010 C 
BRANCH  24  26
HETATM   26  C3  UNL     1     -10.479  15.086  30.699  1.00  0.00     0.005 C 
BRANCH  26  27
HETATM   27  C4  UNL     1      -9.890  16.365  31.226  1.00  0.00     0.003 C 
BRANCH  27  28
HETATM   28  C5  UNL     1      -8.409  16.305  31.218  1.00  0.00     0.032 C 
BRANCH  28  29
HETATM   29  C6  UNL     1      -7.814  16.441  32.635  1.00  0.00     0.118 C 
BRANCH  29  30
HETATM   30  O1  UNL     1      -8.512  17.502  33.257  1.00  0.00    -0.396 OA
ATOM     31  H1  UNL     1      -7.872  17.968  33.783  1.00  0.00     0.210 HD
ENDBRANCH  29  30
BRANCH  29  32
HETATM   32  C7  UNL     1      -7.968  15.191  33.405  1.00  0.00     0.032 C 
BRANCH  32  33
HETATM   33  C8  UNL     1      -8.797  15.330  34.633  1.00  0.00     0.002 C 
BRANCH  33  34
HETATM   34  C9  UNL     1     -10.040  14.511  34.688  1.00  0.00     0.000 C 
BRANCH  34  35
HETATM   35  C10 UNL     1     -11.190  15.516  34.891  1.00  0.00     0.002 C 
BRANCH  35  36
HETATM   36  C11 UNL     1     -12.483  14.836  34.678  1.00  0.00     0.020 C 
BRANCH  36  37
HETATM   37  C12 UNL     1     -12.710  14.519  33.227  1.00  0.00     0.124 C 
BRANCH  37  38
HETATM   38  N1  UNL     1     -13.732  15.428  32.675  1.00  0.00    -0.345 N 
HETATM   39  C13 UNL     1     -14.855  14.837  32.059  1.00  0.00     0.328 C 
HETATM   40  N2  UNL     1     -15.869  15.654  31.510  1.00  0.00    -0.040 NA
HETATM   41  O2  UNL     1     -14.993  13.586  31.976  1.00  0.00    -0.251 OA
ATOM     42  H1  UNL     1     -13.632  16.441  32.735  1.00  0.00     0.163 HD
ENDBRANCH  37  38
ENDBRANCH  36  37
ENDBRANCH  35  36
ENDBRANCH  34  35
ENDBRANCH  33  34
ENDBRANCH  32  33
ENDBRANCH  29  32
ENDBRANCH  28  29
ENDBRANCH  27  28
ENDBRANCH  26  27
ENDBRANCH  24  26
ENDBRANCH   1  24
TORSDOF 13
ENDMDL
