MODEL 1
REMARK VINA RESULT: -8.811520301      0.000      0.000
REMARK  14 active torsions:
REMARK  status: ('A' for Active; 'I' for Inactive)
REMARK    1  A    between atoms: C2_2  and  C4_4 
REMARK    2  A    between atoms: C4_4  and  C5_5 
REMARK    3  A    between atoms: C5_5  and  N2_10 
REMARK    4  A    between atoms: N1_6  and  O1_8 
REMARK       I    between atoms: N2_10  and  C6_11 
REMARK       I    between atoms: C6_11  and  N4_13 
REMARK    5  A    between atoms: N4_13  and  C7_15 
REMARK    6  A    between atoms: C7_15  and  C8_16 
REMARK    7  A    between atoms: C8_16  and  C9_17 
REMARK    8  A    between atoms: C9_17  and  C10_18 
REMARK    9  A    between atoms: C10_18  and  C11_19 
REMARK   10  A    between atoms: C11_19  and  C12_20 
REMARK   11  A    between atoms: C12_20  and  C13_21 
REMARK   12  A    between atoms: C13_21  and  C14_22 
REMARK   13  A    between atoms: C14_22  and  N5_23 
REMARK       I    between atoms: N5_23  and  C15_25 
REMARK   14  A    between atoms: C15_25  and  C16_27 
ROOT
HETATM    1  C13 UNL     1      -7.506  15.245  33.167  1.00  0.00     0.020 C 
ENDROOT
BRANCH   1   2
HETATM    2  C12 UNL     1      -8.653  14.444  33.649  1.00  0.00     0.002 C 
BRANCH   2   3
HETATM    3  C11 UNL     1      -9.411  14.960  34.801  1.00  0.00     0.000 C 
BRANCH   3   4
HETATM    4  C10 UNL     1     -10.849  14.691  34.893  1.00  0.00     0.000 C 
BRANCH   4   5
HETATM    5  C9  UNL     1     -11.311  13.416  35.462  1.00  0.00     0.002 C 
BRANCH   5   6
HETATM    6  C8  UNL     1     -12.787  13.576  35.909  1.00  0.00     0.020 C 
BRANCH   6   7
HETATM    7  C7  UNL     1     -13.524  12.302  35.717  1.00  0.00     0.123 C 
BRANCH   7   8
HETATM    8  N4  UNL     1     -13.160  11.787  34.388  1.00  0.00    -0.353 N 
HETATM    9  C6  UNL     1     -13.913  12.235  33.239  1.00  0.00     0.264 C 
HETATM   10  N2  UNL     1     -13.569  13.160  32.591  1.00  0.00    -0.358 NA
HETATM   11  N3  UNL     1     -15.098  11.444  32.983  1.00  0.00    -0.049 NA
ATOM     12  H4  UNL     1     -12.391  11.126  34.279  1.00  0.00     0.163 HD
BRANCH  10  13
HETATM   13  C5  UNL     1     -13.101  14.203  31.931  1.00  0.00     0.178 C 
HETATM   14  N1  UNL     1     -13.235  15.463  32.290  1.00  0.00    -0.245 N 
ATOM     15  H1  UNL     1     -12.844  16.218  31.725  1.00  0.00     0.196 HD
BRANCH  13  16
HETATM   16  C4  UNL     1     -12.336  14.014  30.644  1.00  0.00     0.098 C 
BRANCH  16  17
HETATM   17  C2  UNL     1     -13.204  13.528  29.530  1.00  0.00    -0.015 C 
HETATM   18  C1  UNL     1     -12.467  12.783  28.456  1.00  0.00     0.010 C 
HETATM   19  C3  UNL     1     -13.852  14.753  28.885  1.00  0.00     0.010 C 
ENDBRANCH  16  17
ENDBRANCH  13  16
BRANCH  14  20
HETATM   20  O1  UNL     1     -13.925  15.729  33.462  1.00  0.00    -0.288 OA
ATOM     21  H1  UNL     1     -14.439  16.527  33.501  1.00  0.00     0.244 HD
ENDBRANCH  14  20
ENDBRANCH  10  13
ENDBRANCH   7   8
ENDBRANCH   6   7
ENDBRANCH   5   6
ENDBRANCH   4   5
ENDBRANCH   3   4
ENDBRANCH   2   3
ENDBRANCH   1   2
BRANCH   1  22
HETATM   22  C14 UNL     1      -8.051  16.652  32.819  1.00  0.00     0.123 C 
BRANCH  22  23
HETATM   23  N5  UNL     1      -8.126  16.722  31.362  1.00  0.00    -0.357 N 
HETATM   24  C15 UNL     1      -9.379  16.703  30.745  1.00  0.00     0.251 C 
HETATM   25  O2  UNL     1     -10.410  16.623  31.519  1.00  0.00    -0.268 OA
ATOM     26  H5  UNL     1      -7.275  16.785  30.802  1.00  0.00     0.162 HD
BRANCH  24  27
HETATM   27  C16 UNL     1      -9.632  16.767  29.268  1.00  0.00     0.030 C 
HETATM   28  C17 UNL     1     -10.831  17.051  28.896  1.00  0.00     0.013 C 
HETATM   29  C18 UNL     1     -11.551  17.224  27.651  1.00  0.00    -0.021 C 
HETATM   30  C19 UNL     1     -11.460  16.358  26.516  1.00  0.00     0.018 C 
HETATM   31  C20 UNL     1     -10.597  15.181  26.483  1.00  0.00     0.047 C 
HETATM   32  C23 UNL     1     -10.598  17.020  25.440  1.00  0.00     0.031 A 
HETATM   33  C21 UNL     1      -9.600  16.059  25.793  1.00  0.00     0.068 A 
HETATM   34  C22 UNL     1     -10.028  16.299  24.306  1.00  0.00     0.047 A 
HETATM   35  O3  UNL     1      -8.437  16.249  26.229  1.00  0.00    -0.365 OA
HETATM   36  C24 UNL     1      -8.020  17.056  27.267  1.00  0.00     0.081 C 
HETATM   37  C25 UNL     1      -6.499  16.711  27.122  1.00  0.00     0.042 C 
HETATM   38  C29 UNL     1      -8.128  18.510  27.064  1.00  0.00     0.042 C 
HETATM   39  C30 UNL     1      -8.401  16.468  28.541  1.00  0.00     0.028 C 
HETATM   40  C26 UNL     1      -5.609  17.515  27.961  1.00  0.00     0.003 C 
HETATM   41  C27 UNL     1      -5.650  18.937  27.372  1.00  0.00     0.000 C 
HETATM   42  C28 UNL     1      -7.039  19.377  27.644  1.00  0.00     0.003 C 
ENDBRANCH  24  27
ENDBRANCH  22  23
ENDBRANCH   1  22
TORSDOF 14
ENDMDL
MODEL 2
REMARK VINA RESULT: -8.620731150      2.795      8.856
REMARK  14 active torsions:
REMARK  status: ('A' for Active; 'I' for Inactive)
REMARK    1  A    between atoms: C2_2  and  C4_4 
REMARK    2  A    between atoms: C4_4  and  C5_5 
REMARK    3  A    between atoms: C5_5  and  N2_10 
REMARK    4  A    between atoms: N1_6  and  O1_8 
REMARK       I    between atoms: N2_10  and  C6_11 
REMARK       I    between atoms: C6_11  and  N4_13 
REMARK    5  A    between atoms: N4_13  and  C7_15 
REMARK    6  A    between atoms: C7_15  and  C8_16 
REMARK    7  A    between atoms: C8_16  and  C9_17 
REMARK    8  A    between atoms: C9_17  and  C10_18 
REMARK    9  A    between atoms: C10_18  and  C11_19 
REMARK   10  A    between atoms: C11_19  and  C12_20 
REMARK   11  A    between atoms: C12_20  and  C13_21 
REMARK   12  A    between atoms: C13_21  and  C14_22 
REMARK   13  A    between atoms: C14_22  and  N5_23 
REMARK       I    between atoms: N5_23  and  C15_25 
REMARK   14  A    between atoms: C15_25  and  C16_27 
ROOT
HETATM    1  C13 UNL     1     -10.941  17.642  27.282  1.00  0.00     0.020 C 
ENDROOT
BRANCH   1   2
HETATM    2  C12 UNL     1     -10.600  17.759  25.847  1.00  0.00     0.002 C 
BRANCH   2   3
HETATM    3  C11 UNL     1     -10.927  16.621  24.972  1.00  0.00     0.000 C 
BRANCH   3   4
HETATM    4  C10 UNL     1     -10.212  16.463  23.702  1.00  0.00     0.000 C 
BRANCH   4   5
HETATM    5  C9  UNL     1      -9.626  15.159  23.359  1.00  0.00     0.002 C 
BRANCH   5   6
HETATM    6  C8  UNL     1      -8.123  15.359  23.036  1.00  0.00     0.020 C 
BRANCH   6   7
HETATM    7  C7  UNL     1      -7.773  16.800  23.085  1.00  0.00     0.123 C 
BRANCH   7   8
HETATM    8  N4  UNL     1      -6.516  16.916  23.841  1.00  0.00    -0.353 N 
HETATM    9  C6  UNL     1      -6.320  18.066  24.693  1.00  0.00     0.264 C 
HETATM   10  N2  UNL     1      -6.603  18.048  25.839  1.00  0.00    -0.358 NA
HETATM   11  N3  UNL     1      -5.756  19.205  24.001  1.00  0.00    -0.049 NA
ATOM     12  H4  UNL     1      -5.796  16.197  23.766  1.00  0.00     0.163 HD
BRANCH  10  13
HETATM   13  C5  UNL     1      -6.949  17.927  27.107  1.00  0.00     0.178 C 
HETATM   14  N1  UNL     1      -7.420  18.892  27.871  1.00  0.00    -0.245 N 
ATOM     15  H1  UNL     1      -7.666  18.721  28.846  1.00  0.00     0.196 HD
BRANCH  13  16
HETATM   16  C4  UNL     1      -6.822  16.599  27.812  1.00  0.00     0.098 C 
BRANCH  16  17
HETATM   17  C2  UNL     1      -8.144  15.945  28.041  1.00  0.00    -0.015 C 
HETATM   18  C1  UNL     1      -8.242  15.192  29.335  1.00  0.00     0.010 C 
HETATM   19  C3  UNL     1      -8.365  14.947  26.905  1.00  0.00     0.010 C 
ENDBRANCH  16  17
ENDBRANCH  13  16
BRANCH  14  20
HETATM   20  O1  UNL     1      -7.571  20.147  27.302  1.00  0.00    -0.288 OA
ATOM     21  H1  UNL     1      -7.258  20.895  27.797  1.00  0.00     0.244 HD
ENDBRANCH  14  20
ENDBRANCH  10  13
ENDBRANCH   7   8
ENDBRANCH   6   7
ENDBRANCH   5   6
ENDBRANCH   4   5
ENDBRANCH   3   4
ENDBRANCH   2   3
ENDBRANCH   1   2
BRANCH   1  22
HETATM   22  C14 UNL     1     -11.765  16.343  27.448  1.00  0.00     0.123 C 
BRANCH  22  23
HETATM   23  N5  UNL     1     -11.999  16.176  28.880  1.00  0.00    -0.357 N 
HETATM   24  C15 UNL     1     -11.797  14.920  29.458  1.00  0.00     0.251 C 
HETATM   25  O2  UNL     1     -11.410  13.971  28.674  1.00  0.00    -0.268 OA
ATOM     26  H5  UNL     1     -12.304  16.965  29.450  1.00  0.00     0.162 HD
BRANCH  24  27
HETATM   27  C16 UNL     1     -11.990  14.580  30.906  1.00  0.00     0.030 C 
HETATM   28  C17 UNL     1     -12.651  13.506  31.167  1.00  0.00     0.013 C 
HETATM   29  C18 UNL     1     -13.088  12.779  32.341  1.00  0.00    -0.021 C 
HETATM   30  C19 UNL     1     -13.683  13.365  33.503  1.00  0.00     0.018 C 
HETATM   31  C20 UNL     1     -13.907  14.800  33.642  1.00  0.00     0.047 C 
HETATM   32  C23 UNL     1     -12.651  13.417  34.630  1.00  0.00     0.031 A 
HETATM   33  C21 UNL     1     -12.611  14.826  34.390  1.00  0.00     0.068 A 
HETATM   34  C22 UNL     1     -12.804  14.238  35.828  1.00  0.00     0.047 A 
HETATM   35  O3  UNL     1     -11.638  15.545  34.049  1.00  0.00    -0.365 OA
HETATM   36  C24 UNL     1     -10.730  15.350  33.029  1.00  0.00     0.081 C 
HETATM   37  C25 UNL     1      -9.906  16.652  33.312  1.00  0.00     0.042 C 
HETATM   38  C29 UNL     1      -9.786  14.231  33.183  1.00  0.00     0.042 C 
HETATM   39  C30 UNL     1     -11.363  15.599  31.744  1.00  0.00     0.028 C 
HETATM   40  C26 UNL     1      -8.675  16.776  32.530  1.00  0.00     0.003 C 
HETATM   41  C27 UNL     1      -7.723  15.697  33.075  1.00  0.00     0.000 C 
HETATM   42  C28 UNL     1      -8.381  14.431  32.673  1.00  0.00     0.003 C 
ENDBRANCH  24  27
ENDBRANCH  22  23
ENDBRANCH   1  22
TORSDOF 14
ENDMDL
MODEL 3
REMARK VINA RESULT: -8.440158011      3.548      9.184
REMARK  14 active torsions:
REMARK  status: ('A' for Active; 'I' for Inactive)
REMARK    1  A    between atoms: C2_2  and  C4_4 
REMARK    2  A    between atoms: C4_4  and  C5_5 
REMARK    3  A    between atoms: C5_5  and  N2_10 
REMARK    4  A    between atoms: N1_6  and  O1_8 
REMARK       I    between atoms: N2_10  and  C6_11 
REMARK       I    between atoms: C6_11  and  N4_13 
REMARK    5  A    between atoms: N4_13  and  C7_15 
REMARK    6  A    between atoms: C7_15  and  C8_16 
REMARK    7  A    between atoms: C8_16  and  C9_17 
REMARK    8  A    between atoms: C9_17  and  C10_18 
REMARK    9  A    between atoms: C10_18  and  C11_19 
REMARK   10  A    between atoms: C11_19  and  C12_20 
REMARK   11  A    between atoms: C12_20  and  C13_21 
REMARK   12  A    between atoms: C13_21  and  C14_22 
REMARK   13  A    between atoms: C14_22  and  N5_23 
REMARK       I    between atoms: N5_23  and  C15_25 
REMARK   14  A    between atoms: C15_25  and  C16_27 
ROOT
HETATM    1  C13 UNL     1     -10.458  18.097  27.313  1.00  0.00     0.020 C 
ENDROOT
BRANCH   1   2
HETATM    2  C12 UNL     1      -9.220  17.845  26.541  1.00  0.00     0.002 C 
BRANCH   2   3
HETATM    3  C11 UNL     1      -8.315  16.789  27.026  1.00  0.00     0.000 C 
BRANCH   3   4
HETATM    4  C10 UNL     1      -7.062  17.166  27.687  1.00  0.00     0.000 C 
BRANCH   4   5
HETATM    5  C9  UNL     1      -6.613  18.565  27.641  1.00  0.00     0.002 C 
BRANCH   5   6
HETATM    6  C8  UNL     1      -5.177  18.608  27.060  1.00  0.00     0.020 C 
BRANCH   6   7
HETATM    7  C7  UNL     1      -5.175  18.134  25.654  1.00  0.00     0.123 C 
BRANCH   7   8
HETATM    8  N4  UNL     1      -6.123  18.978  24.911  1.00  0.00    -0.353 N 
HETATM    9  C6  UNL     1      -6.170  18.870  23.471  1.00  0.00     0.264 C 
HETATM   10  N2  UNL     1      -6.927  18.146  22.925  1.00  0.00    -0.358 NA
HETATM   11  N3  UNL     1      -5.216  19.724  22.797  1.00  0.00    -0.049 NA
ATOM     12  H4  UNL     1      -6.736  19.629  25.403  1.00  0.00     0.163 HD
BRANCH  10  13
HETATM   13  C5  UNL     1      -7.808  17.309  22.411  1.00  0.00     0.178 C 
HETATM   14  N1  UNL     1      -8.266  17.338  21.176  1.00  0.00    -0.245 N 
ATOM     15  H1  UNL     1      -8.950  16.654  20.850  1.00  0.00     0.196 HD
BRANCH  13  16
HETATM   16  C4  UNL     1      -8.387  16.196  23.249  1.00  0.00     0.098 C 
BRANCH  16  17
HETATM   17  C2  UNL     1      -9.737  15.768  22.777  1.00  0.00    -0.015 C 
HETATM   18  C1  UNL     1     -10.818  15.893  23.811  1.00  0.00     0.010 C 
HETATM   19  C3  UNL     1      -9.640  14.295  22.383  1.00  0.00     0.010 C 
ENDBRANCH  16  17
ENDBRANCH  13  16
BRANCH  14  20
HETATM   20  O1  UNL     1      -7.787  18.330  20.334  1.00  0.00    -0.288 OA
ATOM     21  H1  UNL     1      -7.831  18.173  19.399  1.00  0.00     0.244 HD
ENDBRANCH  14  20
ENDBRANCH  10  13
ENDBRANCH   7   8
ENDBRANCH   6   7
ENDBRANCH   5   6
ENDBRANCH   4   5
ENDBRANCH   3   4
ENDBRANCH   2   3
ENDBRANCH   1   2
BRANCH   1  22
HETATM   22  C14 UNL     1     -11.271  16.779  27.309  1.00  0.00     0.123 C 
BRANCH  22  23
HETATM   23  N5  UNL     1     -11.670  16.530  28.691  1.00  0.00    -0.357 N 
HETATM   24  C15 UNL     1     -11.262  15.347  29.313  1.00  0.00     0.251 C 
HETATM   25  O2  UNL     1     -10.544  14.536  28.611  1.00  0.00    -0.268 OA
ATOM     26  H5  UNL     1     -12.239  17.211  29.196  1.00  0.00     0.162 HD
BRANCH  24  27
HETATM   27  C16 UNL     1     -11.584  14.939  30.720  1.00  0.00     0.030 C 
HETATM   28  C17 UNL     1     -12.301  13.880  30.867  1.00  0.00     0.013 C 
HETATM   29  C18 UNL     1     -12.856  13.110  31.961  1.00  0.00    -0.021 C 
HETATM   30  C19 UNL     1     -13.523  13.657  33.103  1.00  0.00     0.018 C 
HETATM   31  C20 UNL     1     -13.707  15.091  33.303  1.00  0.00     0.047 C 
HETATM   32  C23 UNL     1     -12.584  13.610  34.310  1.00  0.00     0.031 A 
HETATM   33  C21 UNL     1     -12.476  15.027  34.152  1.00  0.00     0.068 A 
HETATM   34  C22 UNL     1     -12.805  14.371  35.535  1.00  0.00     0.047 A 
HETATM   35  O3  UNL     1     -11.454  15.724  33.929  1.00  0.00    -0.365 OA
HETATM   36  C24 UNL     1     -10.474  15.547  32.975  1.00  0.00     0.081 C 
HETATM   37  C25 UNL     1      -9.631  16.799  33.394  1.00  0.00     0.042 C 
HETATM   38  C29 UNL     1      -9.585  14.385  33.140  1.00  0.00     0.042 C 
HETATM   39  C30 UNL     1     -10.991  15.887  31.659  1.00  0.00     0.028 C 
HETATM   40  C26 UNL     1      -8.337  16.916  32.720  1.00  0.00     0.003 C 
HETATM   41  C27 UNL     1      -7.470  15.773  33.277  1.00  0.00     0.000 C 
HETATM   42  C28 UNL     1      -8.137  14.556  32.755  1.00  0.00     0.003 C 
ENDBRANCH  24  27
ENDBRANCH  22  23
ENDBRANCH   1  22
TORSDOF 14
ENDMDL
MODEL 4
REMARK VINA RESULT: -8.390400870      1.450      1.717
REMARK  14 active torsions:
REMARK  status: ('A' for Active; 'I' for Inactive)
REMARK    1  A    between atoms: C2_2  and  C4_4 
REMARK    2  A    between atoms: C4_4  and  C5_5 
REMARK    3  A    between atoms: C5_5  and  N2_10 
REMARK    4  A    between atoms: N1_6  and  O1_8 
REMARK       I    between atoms: N2_10  and  C6_11 
REMARK       I    between atoms: C6_11  and  N4_13 
REMARK    5  A    between atoms: N4_13  and  C7_15 
REMARK    6  A    between atoms: C7_15  and  C8_16 
REMARK    7  A    between atoms: C8_16  and  C9_17 
REMARK    8  A    between atoms: C9_17  and  C10_18 
REMARK    9  A    between atoms: C10_18  and  C11_19 
REMARK   10  A    between atoms: C11_19  and  C12_20 
REMARK   11  A    between atoms: C12_20  and  C13_21 
REMARK   12  A    between atoms: C13_21  and  C14_22 
REMARK   13  A    between atoms: C14_22  and  N5_23 
REMARK       I    between atoms: N5_23  and  C15_25 
REMARK   14  A    between atoms: C15_25  and  C16_27 
ROOT
HETATM    1  C13 UNL     1      -8.699  14.716  33.670  1.00  0.00     0.020 C 
ENDROOT
BRANCH   1   2
HETATM    2  C12 UNL     1      -9.224  15.442  34.848  1.00  0.00     0.002 C 
BRANCH   2   3
HETATM    3  C11 UNL     1     -10.571  16.028  34.746  1.00  0.00     0.000 C 
BRANCH   3   4
HETATM    4  C10 UNL     1     -11.486  15.547  33.706  1.00  0.00     0.000 C 
BRANCH   4   5
HETATM    5  C9  UNL     1     -12.669  14.763  34.091  1.00  0.00     0.002 C 
BRANCH   5   6
HETATM    6  C8  UNL     1     -12.214  13.581  34.984  1.00  0.00     0.020 C 
BRANCH   6   7
HETATM    7  C7  UNL     1     -13.394  12.861  35.525  1.00  0.00     0.123 C 
BRANCH   7   8
HETATM    8  N4  UNL     1     -13.480  11.575  34.816  1.00  0.00    -0.353 N 
HETATM    9  C6  UNL     1     -14.440  11.434  33.746  1.00  0.00     0.264 C 
HETATM   10  N2  UNL     1     -14.152  11.639  32.619  1.00  0.00    -0.358 NA
HETATM   11  N3  UNL     1     -15.752  11.025  34.200  1.00  0.00    -0.049 NA
ATOM     12  H4  UNL     1     -12.873  10.797  35.075  1.00  0.00     0.163 HD
BRANCH  10  13
HETATM   13  C5  UNL     1     -13.732  11.891  31.393  1.00  0.00     0.178 C 
HETATM   14  N1  UNL     1     -12.988  11.091  30.657  1.00  0.00    -0.245 N 
ATOM     15  H1  UNL     1     -12.701  11.356  29.714  1.00  0.00     0.196 HD
BRANCH  13  16
HETATM   16  C4  UNL     1     -14.096  13.186  30.710  1.00  0.00     0.098 C 
BRANCH  16  17
HETATM   17  C2  UNL     1     -13.052  13.632  29.741  1.00  0.00    -0.015 C 
HETATM   18  C1  UNL     1     -11.825  14.213  30.382  1.00  0.00     0.010 C 
HETATM   19  C3  UNL     1     -13.674  14.718  28.863  1.00  0.00     0.010 C 
ENDBRANCH  16  17
ENDBRANCH  13  16
BRANCH  14  20
HETATM   20  O1  UNL     1     -12.607   9.877  31.208  1.00  0.00    -0.288 OA
ATOM     21  H1  UNL     1     -13.278   9.355  31.630  1.00  0.00     0.244 HD
ENDBRANCH  14  20
ENDBRANCH  10  13
ENDBRANCH   7   8
ENDBRANCH   6   7
ENDBRANCH   5   6
ENDBRANCH   4   5
ENDBRANCH   3   4
ENDBRANCH   2   3
ENDBRANCH   1   2
BRANCH   1  22
HETATM   22  C14 UNL     1      -7.775  15.697  32.909  1.00  0.00     0.123 C 
BRANCH  22  23
HETATM   23  N5  UNL     1      -8.178  15.646  31.505  1.00  0.00    -0.357 N 
HETATM   24  C15 UNL     1      -8.696  16.797  30.907  1.00  0.00     0.251 C 
HETATM   25  O2  UNL     1      -8.785  17.851  31.646  1.00  0.00    -0.268 OA
ATOM     26  H5  UNL     1      -8.082  14.782  30.970  1.00  0.00     0.162 HD
BRANCH  24  27
HETATM   27  C16 UNL     1      -9.154  16.915  29.483  1.00  0.00     0.030 C 
HETATM   28  C17 UNL     1     -10.380  17.261  29.295  1.00  0.00     0.013 C 
HETATM   29  C18 UNL     1     -11.261  17.501  28.171  1.00  0.00    -0.021 C 
HETATM   30  C19 UNL     1     -11.375  16.665  27.016  1.00  0.00     0.018 C 
HETATM   31  C20 UNL     1     -10.582  15.454  26.832  1.00  0.00     0.047 C 
HETATM   32  C23 UNL     1     -10.647  17.320  25.841  1.00  0.00     0.031 A 
HETATM   33  C21 UNL     1      -9.655  16.307  26.025  1.00  0.00     0.068 A 
HETATM   34  C22 UNL     1     -10.279  16.609  24.621  1.00  0.00     0.047 A 
HETATM   35  O3  UNL     1      -8.433  16.433  26.292  1.00  0.00    -0.365 OA
HETATM   36  C24 UNL     1      -7.834  17.192  27.277  1.00  0.00     0.081 C 
HETATM   37  C25 UNL     1      -6.367  16.785  26.906  1.00  0.00     0.042 C 
HETATM   38  C29 UNL     1      -7.901  18.654  27.124  1.00  0.00     0.042 C 
HETATM   39  C30 UNL     1      -8.056  16.584  28.579  1.00  0.00     0.028 C 
HETATM   40  C26 UNL     1      -5.329  17.525  27.625  1.00  0.00     0.003 C 
HETATM   41  C27 UNL     1      -5.387  18.963  27.080  1.00  0.00     0.000 C 
HETATM   42  C28 UNL     1      -6.701  19.456  27.560  1.00  0.00     0.003 C 
ENDBRANCH  24  27
ENDBRANCH  22  23
ENDBRANCH   1  22
TORSDOF 14
ENDMDL
MODEL 5
REMARK VINA RESULT: -8.388942436      1.579      2.386
REMARK  14 active torsions:
REMARK  status: ('A' for Active; 'I' for Inactive)
REMARK    1  A    between atoms: C2_2  and  C4_4 
REMARK    2  A    between atoms: C4_4  and  C5_5 
REMARK    3  A    between atoms: C5_5  and  N2_10 
REMARK    4  A    between atoms: N1_6  and  O1_8 
REMARK       I    between atoms: N2_10  and  C6_11 
REMARK       I    between atoms: C6_11  and  N4_13 
REMARK    5  A    between atoms: N4_13  and  C7_15 
REMARK    6  A    between atoms: C7_15  and  C8_16 
REMARK    7  A    between atoms: C8_16  and  C9_17 
REMARK    8  A    between atoms: C9_17  and  C10_18 
REMARK    9  A    between atoms: C10_18  and  C11_19 
REMARK   10  A    between atoms: C11_19  and  C12_20 
REMARK   11  A    between atoms: C12_20  and  C13_21 
REMARK   12  A    between atoms: C13_21  and  C14_22 
REMARK   13  A    between atoms: C14_22  and  N5_23 
REMARK       I    between atoms: N5_23  and  C15_25 
REMARK   14  A    between atoms: C15_25  and  C16_27 
ROOT
HETATM    1  C13 UNL     1      -9.817  16.521  31.764  1.00  0.00     0.020 C 
ENDROOT
BRANCH   1   2
HETATM    2  C12 UNL     1      -8.359  16.388  31.980  1.00  0.00     0.002 C 
BRANCH   2   3
HETATM    3  C11 UNL     1      -7.908  15.519  33.080  1.00  0.00     0.000 C 
BRANCH   3   4
HETATM    4  C10 UNL     1      -8.754  15.367  34.268  1.00  0.00     0.000 C 
BRANCH   4   5
HETATM    5  C9  UNL     1      -9.501  14.118  34.468  1.00  0.00     0.002 C 
BRANCH   5   6
HETATM    6  C8  UNL     1     -10.772  14.425  35.301  1.00  0.00     0.020 C 
BRANCH   6   7
HETATM    7  C7  UNL     1     -11.872  14.880  34.414  1.00  0.00     0.123 C 
BRANCH   7   8
HETATM    8  N4  UNL     1     -12.285  13.720  33.608  1.00  0.00    -0.353 N 
HETATM    9  C6  UNL     1     -13.691  13.531  33.333  1.00  0.00     0.264 C 
HETATM   10  N2  UNL     1     -14.196  13.952  32.352  1.00  0.00    -0.358 NA
HETATM   11  N3  UNL     1     -14.385  12.789  34.364  1.00  0.00    -0.049 NA
ATOM     12  H4  UNL     1     -11.593  13.062  33.250  1.00  0.00     0.163 HD
BRANCH  10  13
HETATM   13  C5  UNL     1     -14.665  14.461  31.228  1.00  0.00     0.178 C 
HETATM   14  N1  UNL     1     -15.362  15.573  31.119  1.00  0.00    -0.245 N 
ATOM     15  H1  UNL     1     -15.693  15.903  30.212  1.00  0.00     0.196 HD
BRANCH  13  16
HETATM   16  C4  UNL     1     -14.423  13.762  29.912  1.00  0.00     0.098 C 
BRANCH  16  17
HETATM   17  C2  UNL     1     -13.200  14.263  29.217  1.00  0.00    -0.015 C 
HETATM   18  C1  UNL     1     -13.476  15.253  28.123  1.00  0.00     0.010 C 
HETATM   19  C3  UNL     1     -12.504  13.057  28.587  1.00  0.00     0.010 C 
ENDBRANCH  16  17
ENDBRANCH  13  16
BRANCH  14  20
HETATM   20  O1  UNL     1     -15.631  16.281  32.281  1.00  0.00    -0.288 OA
ATOM     21  H1  UNL     1     -15.251  17.146  32.368  1.00  0.00     0.244 HD
ENDBRANCH  14  20
ENDBRANCH  10  13
ENDBRANCH   7   8
ENDBRANCH   6   7
ENDBRANCH   5   6
ENDBRANCH   4   5
ENDBRANCH   3   4
ENDBRANCH   2   3
ENDBRANCH   1   2
BRANCH   1  22
HETATM   22  C14 UNL     1     -10.224  15.435  30.738  1.00  0.00     0.123 C 
BRANCH  22  23
HETATM   23  N5  UNL     1     -10.115  16.048  29.417  1.00  0.00    -0.357 N 
HETATM   24  C15 UNL     1      -9.251  15.482  28.476  1.00  0.00     0.251 C 
HETATM   25  O2  UNL     1      -8.593  14.434  28.844  1.00  0.00    -0.268 OA
ATOM     26  H5  UNL     1     -10.662  16.877  29.184  1.00  0.00     0.162 HD
BRANCH  24  27
HETATM   27  C16 UNL     1      -9.022  15.983  27.081  1.00  0.00     0.030 C 
HETATM   28  C17 UNL     1     -10.065  16.136  26.342  1.00  0.00     0.013 C 
HETATM   29  C18 UNL     1     -10.362  16.570  24.992  1.00  0.00    -0.021 C 
HETATM   30  C19 UNL     1      -9.653  16.165  23.818  1.00  0.00     0.018 C 
HETATM   31  C20 UNL     1      -8.510  15.257  23.854  1.00  0.00     0.047 C 
HETATM   32  C23 UNL     1      -8.736  17.301  23.361  1.00  0.00     0.031 A 
HETATM   33  C21 UNL     1      -7.662  16.490  23.845  1.00  0.00     0.068 A 
HETATM   34  C22 UNL     1      -7.641  17.123  22.413  1.00  0.00     0.047 A 
HETATM   35  O3  UNL     1      -6.816  16.746  24.739  1.00  0.00    -0.365 OA
HETATM   36  C24 UNL     1      -7.021  17.227  26.015  1.00  0.00     0.081 C 
HETATM   37  C25 UNL     1      -5.505  17.252  26.411  1.00  0.00     0.042 C 
HETATM   38  C29 UNL     1      -7.495  18.616  26.135  1.00  0.00     0.042 C 
HETATM   39  C30 UNL     1      -7.594  16.188  26.855  1.00  0.00     0.028 C 
HETATM   40  C26 UNL     1      -5.221  17.888  27.698  1.00  0.00     0.003 C 
HETATM   41  C27 UNL     1      -5.501  19.387  27.494  1.00  0.00     0.000 C 
HETATM   42  C28 UNL     1      -6.968  19.434  27.287  1.00  0.00     0.003 C 
ENDBRANCH  24  27
ENDBRANCH  22  23
ENDBRANCH   1  22
TORSDOF 14
ENDMDL
