MODEL 1
REMARK VINA RESULT: -7.126298711      0.000      0.000
REMARK  13 active torsions:
REMARK  status: ('A' for Active; 'I' for Inactive)
REMARK    1  A    between atoms: C3_3  and  C4_4 
REMARK    2  A    between atoms: C8_16  and  C9_17 
REMARK    3  A    between atoms: C9_17  and  C10_18 
REMARK    4  A    between atoms: C10_18  and  N4_19 
REMARK    5  A    between atoms: N4_19  and  C13_22 
REMARK    6  A    between atoms: C13_22  and  C14_23 
REMARK    7  A    between atoms: C14_23  and  C15_24 
REMARK    8  A    between atoms: C15_24  and  C16_25 
REMARK    9  A    between atoms: C19_31  and  C20_32 
REMARK   10  A    between atoms: C20_32  and  C21_33 
REMARK   11  A    between atoms: C25_40  and  C26_41 
REMARK   12  A    between atoms: C26_41  and  C27_42 
REMARK   13  A    between atoms: C30_45  and  O5_46 
ROOT
HETATM    1  C1  UNL     1      30.909  30.509   4.573  1.00  0.00     0.112 C 
HETATM    2  C2  UNL     1      29.704  29.707   4.811  1.00  0.00    -0.108 C 
HETATM    3  C3  UNL     1      28.723  29.032   5.002  1.00  0.00    -0.073 C 
ENDROOT
BRANCH   3   4
HETATM    4  C4  UNL     1      27.526  28.189   5.260  1.00  0.00     0.237 C 
HETATM    5  N1  UNL     1      26.994  28.477   6.569  1.00  0.00    -0.321 N 
HETATM    6  C5  UNL     1      26.274  27.594   7.399  1.00  0.00     0.317 C 
ATOM      7  H1  UNL     1      27.155  29.417   6.932  1.00  0.00     0.166 HD
HETATM    8  O1  UNL     1      25.273  28.119   8.010  1.00  0.00    -0.247 OA
HETATM    9  N2  UNL     1      26.565  26.218   7.600  1.00  0.00    -0.334 N 
HETATM   10  C6  UNL     1      27.861  25.641   7.791  1.00  0.00     0.227 C 
ATOM     11  H2  UNL     1      25.771  25.578   7.609  1.00  0.00     0.164 HD
HETATM   12  C7  UNL     1      28.217  24.554   6.856  1.00  0.00     0.236 C 
HETATM   13  O2  UNL     1      29.487  24.379   6.729  1.00  0.00    -0.272 OA
HETATM   14  N3  UNL     1      27.387  23.723   6.120  1.00  0.00    -0.346 N 
HETATM   15  C8  UNL     1      26.232  22.971   6.556  1.00  0.00     0.178 C 
ATOM     16  H3  UNL     1      27.624  23.629   5.132  1.00  0.00     0.163 HD
HETATM   17  C18 UNL     1      26.138  21.694   5.762  1.00  0.00     0.241 C 
HETATM   18  O3  UNL     1      27.220  21.001   5.817  1.00  0.00    -0.271 OA
HETATM   19  N5  UNL     1      25.088  21.216   5.029  1.00  0.00    -0.346 N 
HETATM   20  C19 UNL     1      24.364  21.812   3.900  1.00  0.00     0.177 C 
ATOM     21  H5  UNL     1      24.752  20.295   5.313  1.00  0.00     0.163 HD
HETATM   22  C24 UNL     1      25.124  22.950   3.321  1.00  0.00     0.241 C 
HETATM   23  O4  UNL     1      26.162  22.539   2.655  1.00  0.00    -0.271 OA
HETATM   24  N6  UNL     1      24.864  24.319   3.413  1.00  0.00    -0.347 N 
HETATM   25  C25 UNL     1      23.643  25.048   3.024  1.00  0.00     0.159 C 
ATOM     26  H6  UNL     1      25.617  24.888   3.798  1.00  0.00     0.163 HD
HETATM   27  C30 UNL     1      24.100  26.305   2.388  1.00  0.00     0.135 C 
HETATM   28  N7  UNL     1      24.711  27.416   2.944  1.00  0.00    -0.366 N 
HETATM   29  C31 UNL     1      25.208  27.690   4.247  1.00  0.00     0.203 C 
ATOM     30  H7  UNL     1      24.828  28.191   2.290  1.00  0.00     0.161 HD
HETATM   31  C32 UNL     1      26.476  28.467   4.245  1.00  0.00     0.178 C 
HETATM   32  O6  UNL     1      26.684  29.338   3.426  1.00  0.00    -0.293 OA
BRANCH  15  33
HETATM   33  C9  UNL     1      26.421  22.460   8.007  1.00  0.00     0.063 C 
BRANCH  33  34
HETATM   34  C10 UNL     1      25.309  21.535   8.379  1.00  0.00     0.239 C 
BRANCH  34  35
HETATM   35  N4  UNL     1      25.828  20.344   9.036  1.00  0.00    -0.075 N 
HETATM   36  C11 UNL     1      25.143  20.040  10.272  1.00  0.00     0.272 C 
HETATM   37  C12 UNL     1      27.213  20.650   9.366  1.00  0.00     0.272 C 
BRANCH  35  38
HETATM   38  C13 UNL     1      25.740  19.282   8.096  1.00  0.00     0.236 C 
BRANCH  38  39
HETATM   39  C14 UNL     1      25.161  17.993   8.503  1.00  0.00     0.028 C 
BRANCH  39  40
HETATM   40  C15 UNL     1      24.154  17.382   7.601  1.00  0.00     0.001 C 
BRANCH  40  41
HETATM   41  C16 UNL     1      23.146  18.473   7.207  1.00  0.00    -0.005 C 
HETATM   42  C17 UNL     1      21.855  17.750   6.875  1.00  0.00     0.005 C 
ENDBRANCH  40  41
ENDBRANCH  39  40
ENDBRANCH  38  39
ENDBRANCH  35  38
ENDBRANCH  34  35
ENDBRANCH  33  34
ENDBRANCH  15  33
BRANCH  20  43
HETATM   43  C20 UNL     1      24.271  20.741   2.788  1.00  0.00     0.038 C 
BRANCH  43  44
HETATM   44  C21 UNL     1      22.860  20.286   2.574  1.00  0.00    -0.020 C 
HETATM   45  C22 UNL     1      22.735  18.932   3.277  1.00  0.00     0.009 C 
HETATM   46  C23 UNL     1      21.862  21.210   3.253  1.00  0.00     0.009 C 
ENDBRANCH  43  44
ENDBRANCH  20  43
BRANCH  25  47
HETATM   47  C26 UNL     1      22.698  25.194   4.146  1.00  0.00     0.037 C 
BRANCH  47  48
HETATM   48  C27 UNL     1      21.315  25.677   3.914  1.00  0.00    -0.020 C 
HETATM   49  C28 UNL     1      20.308  25.298   4.941  1.00  0.00     0.009 C 
HETATM   50  C29 UNL     1      21.250  27.169   3.628  1.00  0.00     0.009 C 
ENDBRANCH  47  48
ENDBRANCH  25  47
BRANCH  27  51
HETATM   51  O5  UNL     1      23.884  26.349   1.106  1.00  0.00    -0.348 OA
ATOM     52  H5  UNL     1      22.993  26.585   0.878  1.00  0.00     0.219 HD
ENDBRANCH  27  51
ENDBRANCH   3   4
TORSDOF 13
ENDMDL
MODEL 2
REMARK VINA RESULT: -6.075130719      2.376      8.183
REMARK  13 active torsions:
REMARK  status: ('A' for Active; 'I' for Inactive)
REMARK    1  A    between atoms: C3_3  and  C4_4 
REMARK    2  A    between atoms: C8_16  and  C9_17 
REMARK    3  A    between atoms: C9_17  and  C10_18 
REMARK    4  A    between atoms: C10_18  and  N4_19 
REMARK    5  A    between atoms: N4_19  and  C13_22 
REMARK    6  A    between atoms: C13_22  and  C14_23 
REMARK    7  A    between atoms: C14_23  and  C15_24 
REMARK    8  A    between atoms: C15_24  and  C16_25 
REMARK    9  A    between atoms: C19_31  and  C20_32 
REMARK   10  A    between atoms: C20_32  and  C21_33 
REMARK   11  A    between atoms: C25_40  and  C26_41 
REMARK   12  A    between atoms: C26_41  and  C27_42 
REMARK   13  A    between atoms: C30_45  and  O5_46 
ROOT
HETATM    1  C1  UNL     1      25.547  18.551  10.200  1.00  0.00     0.112 C 
HETATM    2  C2  UNL     1      25.454  19.241   8.910  1.00  0.00    -0.108 C 
HETATM    3  C3  UNL     1      25.386  19.825   7.855  1.00  0.00    -0.073 C 
ENDROOT
BRANCH   3   4
HETATM    4  C4  UNL     1      25.332  20.539   6.553  1.00  0.00     0.237 C 
HETATM    5  N1  UNL     1      26.611  20.458   5.893  1.00  0.00    -0.321 N 
HETATM    6  C5  UNL     1      27.150  21.391   4.984  1.00  0.00     0.317 C 
ATOM      7  H1  UNL     1      27.185  19.641   6.106  1.00  0.00     0.166 HD
HETATM    8  O1  UNL     1      27.757  20.876   3.975  1.00  0.00    -0.247 OA
HETATM    9  N2  UNL     1      27.075  22.804   5.100  1.00  0.00    -0.334 N 
HETATM   10  C6  UNL     1      27.266  23.572   6.294  1.00  0.00     0.227 C 
ATOM     11  H2  UNL     1      26.863  23.324   4.248  1.00  0.00     0.164 HD
HETATM   12  C7  UNL     1      26.156  24.482   6.647  1.00  0.00     0.236 C 
HETATM   13  O2  UNL     1      26.124  24.792   7.898  1.00  0.00    -0.272 OA
HETATM   14  N3  UNL     1      25.176  25.029   5.834  1.00  0.00    -0.346 N 
HETATM   15  C8  UNL     1      25.319  25.697   4.560  1.00  0.00     0.178 C 
ATOM     16  H3  UNL     1      24.222  24.949   6.184  1.00  0.00     0.163 HD
HETATM   17  C18 UNL     1      24.259  26.762   4.434  1.00  0.00     0.241 C 
HETATM   18  O3  UNL     1      24.270  27.586   5.421  1.00  0.00    -0.271 OA
HETATM   19  N5  UNL     1      23.336  26.938   3.440  1.00  0.00    -0.346 N 
HETATM   20  C19 UNL     1      22.298  26.034   2.933  1.00  0.00     0.177 C 
ATOM     21  H5  UNL     1      23.377  27.846   2.976  1.00  0.00     0.163 HD
HETATM   22  C24 UNL     1      22.062  24.912   3.876  1.00  0.00     0.241 C 
HETATM   23  O4  UNL     1      21.431  25.309   4.940  1.00  0.00    -0.271 OA
HETATM   24  N6  UNL     1      22.423  23.568   3.753  1.00  0.00    -0.347 N 
HETATM   25  C25 UNL     1      22.082  22.622   2.675  1.00  0.00     0.159 C 
ATOM     26  H6  UNL     1      22.998  23.193   4.507  1.00  0.00     0.163 HD
HETATM   27  C30 UNL     1      21.785  21.332   3.339  1.00  0.00     0.135 C 
HETATM   28  N7  UNL     1      22.630  20.448   3.989  1.00  0.00    -0.366 N 
HETATM   29  C31 UNL     1      24.005  20.514   4.342  1.00  0.00     0.203 C 
ATOM     30  H7  UNL     1      22.176  19.578   4.269  1.00  0.00     0.161 HD
HETATM   31  C32 UNL     1      24.301  19.925   5.676  1.00  0.00     0.178 C 
HETATM   32  O6  UNL     1      23.717  18.939   6.077  1.00  0.00    -0.293 OA
BRANCH  15  33
HETATM   33  C9  UNL     1      26.634  26.515   4.509  1.00  0.00     0.063 C 
BRANCH  33  34
HETATM   34  C10 UNL     1      26.776  27.184   3.181  1.00  0.00     0.239 C 
BRANCH  34  35
HETATM   35  N4  UNL     1      27.377  28.502   3.331  1.00  0.00    -0.075 N 
HETATM   36  C11 UNL     1      28.692  28.590   2.738  1.00  0.00     0.272 C 
HETATM   37  C12 UNL     1      27.529  28.703   4.765  1.00  0.00     0.272 C 
BRANCH  35  38
HETATM   38  C13 UNL     1      26.468  29.436   2.767  1.00  0.00     0.236 C 
BRANCH  38  39
HETATM   39  C14 UNL     1      25.600  30.233   3.647  1.00  0.00     0.028 C 
BRANCH  39  40
HETATM   40  C15 UNL     1      24.216  30.497   3.183  1.00  0.00     0.001 C 
BRANCH  40  41
HETATM   41  C16 UNL     1      23.356  30.827   4.413  1.00  0.00    -0.005 C 
HETATM   42  C17 UNL     1      24.329  31.129   5.536  1.00  0.00     0.005 C 
ENDBRANCH  40  41
ENDBRANCH  39  40
ENDBRANCH  38  39
ENDBRANCH  35  38
ENDBRANCH  34  35
ENDBRANCH  33  34
ENDBRANCH  15  33
BRANCH  20  43
HETATM   43  C20 UNL     1      20.975  26.834   2.869  1.00  0.00     0.038 C 
BRANCH  43  44
HETATM   44  C21 UNL     1      21.223  28.298   2.672  1.00  0.00    -0.020 C 
HETATM   45  C22 UNL     1      21.019  28.571   1.180  1.00  0.00     0.009 C 
HETATM   46  C23 UNL     1      20.193  29.145   3.402  1.00  0.00     0.009 C 
ENDBRANCH  43  44
ENDBRANCH  20  43
BRANCH  25  47
HETATM   47  C26 UNL     1      23.106  22.587   1.616  1.00  0.00     0.037 C 
BRANCH  47  48
HETATM   48  C27 UNL     1      24.496  23.026   1.890  1.00  0.00    -0.020 C 
HETATM   49  C28 UNL     1      25.562  22.017   1.646  1.00  0.00     0.009 C 
HETATM   50  C29 UNL     1      24.843  24.344   1.218  1.00  0.00     0.009 C 
ENDBRANCH  47  48
ENDBRANCH  25  47
BRANCH  27  51
HETATM   51  O5  UNL     1      20.529  20.999   3.294  1.00  0.00    -0.348 OA
ATOM     52  H5  UNL     1      20.230  20.758   2.425  1.00  0.00     0.219 HD
ENDBRANCH  27  51
ENDBRANCH   3   4
TORSDOF 13
ENDMDL
MODEL 3
REMARK VINA RESULT: -5.972127931      2.406      8.098
REMARK  13 active torsions:
REMARK  status: ('A' for Active; 'I' for Inactive)
REMARK    1  A    between atoms: C3_3  and  C4_4 
REMARK    2  A    between atoms: C8_16  and  C9_17 
REMARK    3  A    between atoms: C9_17  and  C10_18 
REMARK    4  A    between atoms: C10_18  and  N4_19 
REMARK    5  A    between atoms: N4_19  and  C13_22 
REMARK    6  A    between atoms: C13_22  and  C14_23 
REMARK    7  A    between atoms: C14_23  and  C15_24 
REMARK    8  A    between atoms: C15_24  and  C16_25 
REMARK    9  A    between atoms: C19_31  and  C20_32 
REMARK   10  A    between atoms: C20_32  and  C21_33 
REMARK   11  A    between atoms: C25_40  and  C26_41 
REMARK   12  A    between atoms: C26_41  and  C27_42 
REMARK   13  A    between atoms: C30_45  and  O5_46 
ROOT
HETATM    1  C1  UNL     1      25.475  18.572  10.165  1.00  0.00     0.112 C 
HETATM    2  C2  UNL     1      25.448  19.291   8.887  1.00  0.00    -0.108 C 
HETATM    3  C3  UNL     1      25.416  19.868   7.828  1.00  0.00    -0.073 C 
ENDROOT
BRANCH   3   4
HETATM    4  C4  UNL     1      25.349  20.584   6.527  1.00  0.00     0.237 C 
HETATM    5  N1  UNL     1      26.625  20.511   5.859  1.00  0.00    -0.321 N 
HETATM    6  C5  UNL     1      27.153  21.449   4.947  1.00  0.00     0.317 C 
ATOM      7  H1  UNL     1      27.205  19.698   6.066  1.00  0.00     0.166 HD
HETATM    8  O1  UNL     1      27.756  20.939   3.934  1.00  0.00    -0.247 OA
HETATM    9  N2  UNL     1      27.070  22.861   5.065  1.00  0.00    -0.334 N 
HETATM   10  C6  UNL     1      27.265  23.629   6.259  1.00  0.00     0.227 C 
ATOM     11  H2  UNL     1      26.850  23.381   4.216  1.00  0.00     0.164 HD
HETATM   12  C7  UNL     1      26.152  24.532   6.621  1.00  0.00     0.236 C 
HETATM   13  O2  UNL     1      26.126  24.840   7.873  1.00  0.00    -0.272 OA
HETATM   14  N3  UNL     1      25.164  25.074   5.816  1.00  0.00    -0.346 N 
HETATM   15  C8  UNL     1      25.295  25.745   4.541  1.00  0.00     0.178 C 
ATOM     16  H3  UNL     1      24.212  24.989   6.171  1.00  0.00     0.163 HD
HETATM   17  C18 UNL     1      24.228  26.804   4.423  1.00  0.00     0.241 C 
HETATM   18  O3  UNL     1      24.241  27.627   5.411  1.00  0.00    -0.271 OA
HETATM   19  N5  UNL     1      23.298  26.977   3.436  1.00  0.00    -0.346 N 
HETATM   20  C19 UNL     1      22.262  26.067   2.934  1.00  0.00     0.177 C 
ATOM     21  H5  UNL     1      23.331  27.885   2.973  1.00  0.00     0.163 HD
HETATM   22  C24 UNL     1      22.038  24.942   3.877  1.00  0.00     0.241 C 
HETATM   23  O4  UNL     1      21.412  25.334   4.946  1.00  0.00    -0.271 OA
HETATM   24  N6  UNL     1      22.406  23.601   3.750  1.00  0.00    -0.347 N 
HETATM   25  C25 UNL     1      22.063  22.654   2.673  1.00  0.00     0.159 C 
ATOM     26  H6  UNL     1      22.988  23.228   4.499  1.00  0.00     0.163 HD
HETATM   27  C30 UNL     1      21.778  21.362   3.337  1.00  0.00     0.135 C 
HETATM   28  N7  UNL     1      22.632  20.481   3.980  1.00  0.00    -0.366 N 
HETATM   29  C31 UNL     1      24.008  20.555   4.325  1.00  0.00     0.203 C 
ATOM     30  H7  UNL     1      22.185  19.608   4.262  1.00  0.00     0.161 HD
HETATM   31  C32 UNL     1      24.317  19.965   5.655  1.00  0.00     0.178 C 
HETATM   32  O6  UNL     1      23.741  18.976   6.059  1.00  0.00    -0.293 OA
BRANCH  15  33
HETATM   33  C9  UNL     1      26.605  26.570   4.483  1.00  0.00     0.063 C 
BRANCH  33  34
HETATM   34  C10 UNL     1      26.922  26.938   3.070  1.00  0.00     0.239 C 
BRANCH  34  35
HETATM   35  N4  UNL     1      27.330  28.333   2.981  1.00  0.00    -0.075 N 
HETATM   36  C11 UNL     1      28.597  28.505   2.307  1.00  0.00     0.272 C 
HETATM   37  C12 UNL     1      27.501  28.780   4.356  1.00  0.00     0.272 C 
BRANCH  35  38
HETATM   38  C13 UNL     1      26.276  29.031   2.333  1.00  0.00     0.236 C 
BRANCH  38  39
HETATM   39  C14 UNL     1      25.817  28.593   1.006  1.00  0.00     0.028 C 
BRANCH  39  40
HETATM   40  C15 UNL     1      24.369  28.719   0.710  1.00  0.00     0.001 C 
BRANCH  40  41
HETATM   41  C16 UNL     1      24.134  28.230  -0.728  1.00  0.00    -0.005 C 
HETATM   42  C17 UNL     1      23.203  27.038  -0.620  1.00  0.00     0.005 C 
ENDBRANCH  40  41
ENDBRANCH  39  40
ENDBRANCH  38  39
ENDBRANCH  35  38
ENDBRANCH  34  35
ENDBRANCH  33  34
ENDBRANCH  15  33
BRANCH  20  43
HETATM   43  C20 UNL     1      20.934  26.860   2.880  1.00  0.00     0.038 C 
BRANCH  43  44
HETATM   44  C21 UNL     1      21.136  28.243   2.341  1.00  0.00    -0.020 C 
HETATM   45  C22 UNL     1      20.230  28.362   1.114  1.00  0.00     0.009 C 
HETATM   46  C23 UNL     1      20.664  29.303   3.323  1.00  0.00     0.009 C 
ENDBRANCH  43  44
ENDBRANCH  20  43
BRANCH  25  47
HETATM   47  C26 UNL     1      23.081  22.627   1.607  1.00  0.00     0.037 C 
BRANCH  47  48
HETATM   48  C27 UNL     1      24.475  23.050   1.879  1.00  0.00    -0.020 C 
HETATM   49  C28 UNL     1      25.531  22.036   1.615  1.00  0.00     0.009 C 
HETATM   50  C29 UNL     1      24.830  24.375   1.222  1.00  0.00     0.009 C 
ENDBRANCH  47  48
ENDBRANCH  25  47
BRANCH  27  51
HETATM   51  O5  UNL     1      20.523  21.022   3.299  1.00  0.00    -0.348 OA
ATOM     52  H5  UNL     1      20.302  20.313   3.892  1.00  0.00     0.219 HD
ENDBRANCH  27  51
ENDBRANCH   3   4
TORSDOF 13
ENDMDL
MODEL 4
REMARK VINA RESULT: -5.955842249      1.119      1.251
REMARK  13 active torsions:
REMARK  status: ('A' for Active; 'I' for Inactive)
REMARK    1  A    between atoms: C3_3  and  C4_4 
REMARK    2  A    between atoms: C8_16  and  C9_17 
REMARK    3  A    between atoms: C9_17  and  C10_18 
REMARK    4  A    between atoms: C10_18  and  N4_19 
REMARK    5  A    between atoms: N4_19  and  C13_22 
REMARK    6  A    between atoms: C13_22  and  C14_23 
REMARK    7  A    between atoms: C14_23  and  C15_24 
REMARK    8  A    between atoms: C15_24  and  C16_25 
REMARK    9  A    between atoms: C19_31  and  C20_32 
REMARK   10  A    between atoms: C20_32  and  C21_33 
REMARK   11  A    between atoms: C25_40  and  C26_41 
REMARK   12  A    between atoms: C26_41  and  C27_42 
REMARK   13  A    between atoms: C30_45  and  O5_46 
ROOT
HETATM    1  C1  UNL     1      30.176  31.627   3.588  1.00  0.00     0.112 C 
HETATM    2  C2  UNL     1      29.084  30.719   3.953  1.00  0.00    -0.108 C 
HETATM    3  C3  UNL     1      28.191  29.972   4.271  1.00  0.00    -0.073 C 
ENDROOT
BRANCH   3   4
HETATM    4  C4  UNL     1      27.079  29.074   4.677  1.00  0.00     0.237 C 
HETATM    5  N1  UNL     1      26.747  29.296   6.062  1.00  0.00    -0.321 N 
HETATM    6  C5  UNL     1      26.195  28.357   6.957  1.00  0.00     0.317 C 
ATOM      7  H1  UNL     1      26.931  30.229   6.433  1.00  0.00     0.166 HD
HETATM    8  O1  UNL     1      25.284  28.820   7.736  1.00  0.00    -0.247 OA
HETATM    9  N2  UNL     1      26.560  26.988   7.056  1.00  0.00    -0.334 N 
HETATM   10  C6  UNL     1      27.890  26.457   7.022  1.00  0.00     0.227 C 
ATOM     11  H2  UNL     1      25.800  26.316   7.162  1.00  0.00     0.164 HD
HETATM   12  C7  UNL     1      28.132  25.417   6.000  1.00  0.00     0.236 C 
HETATM   13  O2  UNL     1      29.373  25.297   5.672  1.00  0.00    -0.272 OA
HETATM   14  N3  UNL     1      27.227  24.580   5.368  1.00  0.00    -0.346 N 
HETATM   15  C8  UNL     1      26.180  23.768   5.947  1.00  0.00     0.178 C 
ATOM     16  H3  UNL     1      27.311  24.529   4.353  1.00  0.00     0.163 HD
HETATM   17  C18 UNL     1      26.008  22.516   5.126  1.00  0.00     0.241 C 
HETATM   18  O3  UNL     1      27.108  21.865   4.985  1.00  0.00    -0.271 OA
HETATM   19  N5  UNL     1      24.873  22.022   4.545  1.00  0.00    -0.346 N 
HETATM   20  C19 UNL     1      23.963  22.627   3.566  1.00  0.00     0.177 C 
ATOM     21  H5  UNL     1      24.617  21.079   4.840  1.00  0.00     0.163 HD
HETATM   22  C24 UNL     1      24.585  23.813   2.923  1.00  0.00     0.241 C 
HETATM   23  O4  UNL     1      25.519  23.467   2.089  1.00  0.00    -0.271 OA
HETATM   24  N6  UNL     1      24.295  25.167   3.108  1.00  0.00    -0.347 N 
HETATM   25  C25 UNL     1      23.005  25.860   2.941  1.00  0.00     0.159 C 
ATOM     26  H6  UNL     1      25.079  25.752   3.395  1.00  0.00     0.163 HD
HETATM   27  C30 UNL     1      23.314  27.155   2.293  1.00  0.00     0.135 C 
HETATM   28  N7  UNL     1      23.966  28.270   2.793  1.00  0.00    -0.366 N 
HETATM   29  C31 UNL     1      24.650  28.518   4.014  1.00  0.00     0.203 C 
ATOM     30  H7  UNL     1      23.954  29.071   2.161  1.00  0.00     0.161 HD
HETATM   31  C32 UNL     1      25.875  29.345   3.848  1.00  0.00     0.178 C 
HETATM   32  O6  UNL     1      25.924  30.251   3.042  1.00  0.00    -0.293 OA
BRANCH  15  33
HETATM   33  C9  UNL     1      26.609  23.215   7.330  1.00  0.00     0.063 C 
BRANCH  33  34
HETATM   34  C10 UNL     1      25.602  22.233   7.830  1.00  0.00     0.239 C 
BRANCH  34  35
HETATM   35  N4  UNL     1      26.258  21.040   8.345  1.00  0.00    -0.075 N 
HETATM   36  C11 UNL     1      25.983  20.808   9.745  1.00  0.00     0.272 C 
HETATM   37  C12 UNL     1      27.686  21.291   8.216  1.00  0.00     0.272 C 
BRANCH  35  38
HETATM   38  C13 UNL     1      25.844  19.955   7.527  1.00  0.00     0.236 C 
BRANCH  38  39
HETATM   39  C14 UNL     1      24.593  19.244   7.835  1.00  0.00     0.028 C 
BRANCH  39  40
HETATM   40  C15 UNL     1      23.526  19.265   6.805  1.00  0.00     0.001 C 
BRANCH  40  41
HETATM   41  C16 UNL     1      22.796  17.914   6.848  1.00  0.00    -0.005 C 
HETATM   42  C17 UNL     1      22.625  17.483   5.405  1.00  0.00     0.005 C 
ENDBRANCH  40  41
ENDBRANCH  39  40
ENDBRANCH  38  39
ENDBRANCH  35  38
ENDBRANCH  34  35
ENDBRANCH  33  34
ENDBRANCH  15  33
BRANCH  20  43
HETATM   43  C20 UNL     1      23.735  21.592   2.439  1.00  0.00     0.038 C 
BRANCH  43  44
HETATM   44  C21 UNL     1      23.142  20.321   2.967  1.00  0.00    -0.020 C 
HETATM   45  C22 UNL     1      21.694  20.286   2.472  1.00  0.00     0.009 C 
HETATM   46  C23 UNL     1      23.822  19.096   2.377  1.00  0.00     0.009 C 
ENDBRANCH  43  44
ENDBRANCH  20  43
BRANCH  25  47
HETATM   47  C26 UNL     1      22.241  25.929   4.200  1.00  0.00     0.037 C 
BRANCH  47  48
HETATM   48  C27 UNL     1      20.760  25.854   4.193  1.00  0.00    -0.020 C 
HETATM   49  C28 UNL     1      20.118  25.462   5.477  1.00  0.00     0.009 C 
HETATM   50  C29 UNL     1      20.106  27.105   3.629  1.00  0.00     0.009 C 
ENDBRANCH  47  48
ENDBRANCH  25  47
BRANCH  27  51
HETATM   51  O5  UNL     1      22.901  27.234   1.063  1.00  0.00    -0.348 OA
ATOM     52  H5  UNL     1      22.500  28.068   0.848  1.00  0.00     0.219 HD
ENDBRANCH  27  51
ENDBRANCH   3   4
TORSDOF 13
ENDMDL
MODEL 5
REMARK VINA RESULT: -5.880243254      2.227      7.980
REMARK  13 active torsions:
REMARK  status: ('A' for Active; 'I' for Inactive)
REMARK    1  A    between atoms: C3_3  and  C4_4 
REMARK    2  A    between atoms: C8_16  and  C9_17 
REMARK    3  A    between atoms: C9_17  and  C10_18 
REMARK    4  A    between atoms: C10_18  and  N4_19 
REMARK    5  A    between atoms: N4_19  and  C13_22 
REMARK    6  A    between atoms: C13_22  and  C14_23 
REMARK    7  A    between atoms: C14_23  and  C15_24 
REMARK    8  A    between atoms: C15_24  and  C16_25 
REMARK    9  A    between atoms: C19_31  and  C20_32 
REMARK   10  A    between atoms: C20_32  and  C21_33 
REMARK   11  A    between atoms: C25_40  and  C26_41 
REMARK   12  A    between atoms: C26_41  and  C27_42 
REMARK   13  A    between atoms: C30_45  and  O5_46 
ROOT
HETATM    1  C1  UNL     1      25.324  18.681  10.365  1.00  0.00     0.112 C 
HETATM    2  C2  UNL     1      25.335  19.351   9.060  1.00  0.00    -0.108 C 
HETATM    3  C3  UNL     1      25.327  19.894   7.982  1.00  0.00    -0.073 C 
ENDROOT
BRANCH   3   4
HETATM    4  C4  UNL     1      25.295  20.579   6.664  1.00  0.00     0.237 C 
HETATM    5  N1  UNL     1      26.580  20.464   6.018  1.00  0.00    -0.321 N 
HETATM    6  C5  UNL     1      27.142  21.367   5.093  1.00  0.00     0.317 C 
ATOM      7  H1  UNL     1      27.139  19.644   6.256  1.00  0.00     0.166 HD
HETATM    8  O1  UNL     1      27.750  20.820   4.103  1.00  0.00    -0.247 OA
HETATM    9  N2  UNL     1      27.086  22.784   5.176  1.00  0.00    -0.334 N 
HETATM   10  C6  UNL     1      27.277  23.577   6.353  1.00  0.00     0.227 C 
ATOM     11  H2  UNL     1      26.891  23.287   4.310  1.00  0.00     0.164 HD
HETATM   12  C7  UNL     1      26.178  24.511   6.675  1.00  0.00     0.236 C 
HETATM   13  O2  UNL     1      26.138  24.850   7.918  1.00  0.00    -0.272 OA
HETATM   14  N3  UNL     1      25.214  25.053   5.840  1.00  0.00    -0.346 N 
HETATM   15  C8  UNL     1      25.379  25.689   4.552  1.00  0.00     0.178 C 
ATOM     16  H3  UNL     1      24.255  24.995   6.182  1.00  0.00     0.163 HD
HETATM   17  C18 UNL     1      24.336  26.766   4.390  1.00  0.00     0.241 C 
HETATM   18  O3  UNL     1      24.351  27.613   5.358  1.00  0.00    -0.271 OA
HETATM   19  N5  UNL     1      23.426  26.933   3.383  1.00  0.00    -0.346 N 
HETATM   20  C19 UNL     1      22.379  26.032   2.887  1.00  0.00     0.177 C 
ATOM     21  H5  UNL     1      23.485  27.829   2.899  1.00  0.00     0.163 HD
HETATM   22  C24 UNL     1      22.117  24.936   3.854  1.00  0.00     0.241 C 
HETATM   23  O4  UNL     1      21.482  25.367   4.902  1.00  0.00    -0.271 OA
HETATM   24  N6  UNL     1      22.459  23.585   3.765  1.00  0.00    -0.347 N 
HETATM   25  C25 UNL     1      22.114  22.619   2.706  1.00  0.00     0.159 C 
ATOM     26  H6  UNL     1      23.022  23.218   4.533  1.00  0.00     0.163 HD
HETATM   27  C30 UNL     1      21.792  21.349   3.397  1.00  0.00     0.135 C 
HETATM   28  N7  UNL     1      22.617  20.467   4.076  1.00  0.00    -0.366 N 
HETATM   29  C31 UNL     1      23.989  20.522   4.441  1.00  0.00     0.203 C 
ATOM     30  H7  UNL     1      22.148  19.611   4.372  1.00  0.00     0.161 HD
HETATM   31  C32 UNL     1      24.264  19.960   5.791  1.00  0.00     0.178 C 
HETATM   32  O6  UNL     1      23.662  18.992   6.209  1.00  0.00    -0.293 OA
BRANCH  15  33
HETATM   33  C9  UNL     1      26.707  26.485   4.495  1.00  0.00     0.063 C 
BRANCH  33  34
HETATM   34  C10 UNL     1      26.821  27.207   3.192  1.00  0.00     0.239 C 
BRANCH  34  35
HETATM   35  N4  UNL     1      27.364  28.544   3.390  1.00  0.00    -0.075 N 
HETATM   36  C11 UNL     1      26.449  29.587   2.986  1.00  0.00     0.272 C 
HETATM   37  C12 UNL     1      28.532  28.625   2.524  1.00  0.00     0.272 C 
BRANCH  35  38
HETATM   38  C13 UNL     1      27.725  28.644   4.761  1.00  0.00     0.236 C 
BRANCH  38  39
HETATM   39  C14 UNL     1      29.046  29.173   5.131  1.00  0.00     0.028 C 
BRANCH  39  40
HETATM   40  C15 UNL     1      29.748  28.520   6.264  1.00  0.00     0.001 C 
BRANCH  40  41
HETATM   41  C16 UNL     1      28.688  28.040   7.267  1.00  0.00    -0.005 C 
HETATM   42  C17 UNL     1      29.187  26.712   7.802  1.00  0.00     0.005 C 
ENDBRANCH  40  41
ENDBRANCH  39  40
ENDBRANCH  38  39
ENDBRANCH  35  38
ENDBRANCH  34  35
ENDBRANCH  33  34
ENDBRANCH  15  33
BRANCH  20  43
HETATM   43  C20 UNL     1      21.069  26.850   2.792  1.00  0.00     0.038 C 
BRANCH  43  44
HETATM   44  C21 UNL     1      21.341  28.310   2.597  1.00  0.00    -0.020 C 
HETATM   45  C22 UNL     1      21.015  28.616   1.134  1.00  0.00     0.009 C 
HETATM   46  C23 UNL     1      20.404  29.172   3.429  1.00  0.00     0.009 C 
ENDBRANCH  43  44
ENDBRANCH  20  43
BRANCH  25  47
HETATM   47  C26 UNL     1      23.148  22.544   1.658  1.00  0.00     0.037 C 
BRANCH  47  48
HETATM   48  C27 UNL     1      24.536  22.992   1.929  1.00  0.00    -0.020 C 
HETATM   49  C28 UNL     1      25.604  21.977   1.720  1.00  0.00     0.009 C 
HETATM   50  C29 UNL     1      24.887  24.291   1.222  1.00  0.00     0.009 C 
ENDBRANCH  47  48
ENDBRANCH  25  47
BRANCH  27  51
HETATM   51  O5  UNL     1      20.531  21.034   3.347  1.00  0.00    -0.348 OA
ATOM     52  H5  UNL     1      20.183  20.725   4.175  1.00  0.00     0.219 HD
ENDBRANCH  27  51
ENDBRANCH   3   4
TORSDOF 13
ENDMDL
