MODEL 1
REMARK VINA RESULT: -6.954847886      0.000      0.000
REMARK  13 active torsions:
REMARK  status: ('A' for Active; 'I' for Inactive)
REMARK    1  A    between atoms: C4_4  and  C5_5 
REMARK    2  A    between atoms: C5_5  and  C6_6 
REMARK    3  A    between atoms: C9_12  and  C10_13 
REMARK    4  A    between atoms: C10_13  and  C11_14 
REMARK    5  A    between atoms: C11_14  and  C12_15 
REMARK    6  A    between atoms: C12_15  and  N2_16 
REMARK    7  A    between atoms: C14_21  and  O2_22 
REMARK    8  A    between atoms: C15_26  and  C16_27 
REMARK    9  A    between atoms: C16_27  and  C17_28 
REMARK   10  A    between atoms: C20_31  and  O3_32 
REMARK   11  A    between atoms: C21_36  and  C22_37 
REMARK   12  A    between atoms: C24_41  and  C25_42 
REMARK   13  A    between atoms: C25_42  and  C26_43 
ROOT
HETATM    1  C1  UNL     1      24.344  20.946   9.219  1.00  0.00     0.017 C 
HETATM    2  C2  UNL     1      25.541  21.054   9.075  1.00  0.00    -0.090 C 
HETATM    3  C3  UNL     1      26.946  21.190   8.929  1.00  0.00     0.060 C 
HETATM    4  C4  UNL     1      27.600  22.131   8.352  1.00  0.00    -0.014 C 
ENDROOT
BRANCH   4   5
HETATM    5  C5  UNL     1      27.012  23.315   7.691  1.00  0.00     0.057 C 
BRANCH   5   6
HETATM    6  C6  UNL     1      26.692  23.085   6.284  1.00  0.00     0.012 C 
HETATM    7  C7  UNL     1      26.317  23.810   5.294  1.00  0.00     0.099 C 
HETATM    8  C8  UNL     1      26.100  23.108   3.982  1.00  0.00     0.268 C 
HETATM    9  N9  UNL     1      26.113  25.229   5.360  1.00  0.00    -0.354 N 
HETATM   10  O1  UNL     1      27.022  22.259   3.653  1.00  0.00    -0.266 OA
HETATM   11  N1  UNL     1      25.005  23.300   3.116  1.00  0.00    -0.344 N 
HETATM   12  C9  UNL     1      23.621  23.311   3.400  1.00  0.00     0.159 C 
ATOM     13  H1  UNL     1      25.248  23.454   2.137  1.00  0.00     0.163 HD
HETATM   14  C14 UNL     1      22.849  24.528   3.113  1.00  0.00     0.139 C 
HETATM   15  N5  UNL     1      22.621  25.261   1.967  1.00  0.00    -0.339 N 
HETATM   16  C15 UNL     1      23.299  26.021   0.977  1.00  0.00     0.062 C 
ATOM     17  H5  UNL     1      21.623  25.257   1.759  1.00  0.00     0.167 HD
HETATM   18  C20 UNL     1      24.659  26.471   1.129  1.00  0.00     0.159 C 
HETATM   19  N6  UNL     1      25.297  27.560   1.741  1.00  0.00    -0.356 N 
HETATM   20  C21 UNL     1      25.432  28.094   3.037  1.00  0.00     0.178 C 
ATOM     21  H6  UNL     1      25.804  28.122   1.056  1.00  0.00     0.162 HD
HETATM   22  C23 UNL     1      25.348  27.231   4.231  1.00  0.00     0.087 C 
HETATM   23  C24 UNL     1      26.426  26.153   4.324  1.00  0.00    -0.003 C 
HETATM   24  C32 UNL     1      25.481  25.784   6.551  1.00  0.00     0.156 C 
BRANCH  12  25
HETATM   25  C10 UNL     1      23.030  22.084   2.722  1.00  0.00     0.035 C 
BRANCH  25  26
HETATM   26  C11 UNL     1      24.003  21.293   1.937  1.00  0.00     0.022 C 
BRANCH  26  27
HETATM   27  C12 UNL     1      24.045  19.894   2.560  1.00  0.00     0.122 C 
BRANCH  27  28
HETATM   28  N2  UNL     1      25.058  19.806   3.580  1.00  0.00    -0.367 N 
HETATM   29  C13 UNL     1      24.833  19.676   4.821  1.00  0.00     0.196 C 
HETATM   30  N3  UNL     1      25.873  19.594   5.775  1.00  0.00    -0.067 NA
HETATM   31  N4  UNL     1      23.491  19.607   5.282  1.00  0.00    -0.067 NA
ATOM     32  H2  UNL     1      26.032  19.853   3.281  1.00  0.00     0.161 HD
ENDBRANCH  27  28
ENDBRANCH  26  27
ENDBRANCH  25  26
ENDBRANCH  12  25
BRANCH  14  33
HETATM   33  O2  UNL     1      22.278  24.953   4.221  1.00  0.00    -0.348 OA
ATOM     34  H2  UNL     1      22.827  25.615   4.624  1.00  0.00     0.219 HD
ENDBRANCH  14  33
BRANCH  16  35
HETATM   35  C16 UNL     1      22.351  27.124   0.430  1.00  0.00     0.065 C 
BRANCH  35  36
HETATM   36  C17 UNL     1      21.097  27.230   1.196  1.00  0.00    -0.017 C 
HETATM   37  C18 UNL     1      21.047  28.384   2.169  1.00  0.00     0.010 C 
HETATM   38  C19 UNL     1      19.877  27.410   0.297  1.00  0.00     0.010 C 
ENDBRANCH  35  36
ENDBRANCH  16  35
BRANCH  18  39
HETATM   39  O3  UNL     1      25.544  25.688   0.556  1.00  0.00    -0.345 OA
ATOM     40  H3  UNL     1      26.424  26.046   0.545  1.00  0.00     0.219 HD
ENDBRANCH  18  39
BRANCH  20  41
HETATM   41  C22 UNL     1      24.562  29.299   3.316  1.00  0.00     0.254 C 
HETATM   42  N7  UNL     1      24.294  29.646   4.666  1.00  0.00    -0.060 NA
HETATM   43  O4  UNL     1      24.099  29.960   2.370  1.00  0.00    -0.275 OA
ENDBRANCH  20  41
BRANCH  23  44
HETATM   44  C25 UNL     1      27.761  26.688   4.093  1.00  0.00     0.110 C 
BRANCH  44  45
HETATM   45  C26 UNL     1      28.624  26.764   5.266  1.00  0.00     0.020 A 
HETATM   46  N8  UNL     1      29.663  25.944   5.527  1.00  0.00    -0.362 N 
HETATM   47  C27 UNL     1      30.242  26.221   6.696  1.00  0.00     0.006 A 
ATOM     48  H8  UNL     1      29.970  25.199   4.903  1.00  0.00     0.165 HD
HETATM   49  C28 UNL     1      31.397  25.505   7.262  1.00  0.00     0.068 C 
HETATM   50  C29 UNL     1      29.563  27.276   7.246  1.00  0.00     0.033 A 
HETATM   51  C30 UNL     1      28.564  27.609   6.356  1.00  0.00    -0.037 A 
HETATM   52  C31 UNL     1      27.623  28.740   6.554  1.00  0.00     0.050 C 
ENDBRANCH  44  45
ENDBRANCH  23  44
ENDBRANCH   5   6
ENDBRANCH   4   5
TORSDOF 13
ENDMDL
MODEL 2
REMARK VINA RESULT: -6.917510914      0.846      1.323
REMARK  13 active torsions:
REMARK  status: ('A' for Active; 'I' for Inactive)
REMARK    1  A    between atoms: C4_4  and  C5_5 
REMARK    2  A    between atoms: C5_5  and  C6_6 
REMARK    3  A    between atoms: C9_12  and  C10_13 
REMARK    4  A    between atoms: C10_13  and  C11_14 
REMARK    5  A    between atoms: C11_14  and  C12_15 
REMARK    6  A    between atoms: C12_15  and  N2_16 
REMARK    7  A    between atoms: C14_21  and  O2_22 
REMARK    8  A    between atoms: C15_26  and  C16_27 
REMARK    9  A    between atoms: C16_27  and  C17_28 
REMARK   10  A    between atoms: C20_31  and  O3_32 
REMARK   11  A    between atoms: C21_36  and  C22_37 
REMARK   12  A    between atoms: C24_41  and  C25_42 
REMARK   13  A    between atoms: C25_42  and  C26_43 
ROOT
HETATM    1  C1  UNL     1      24.132  20.898   9.277  1.00  0.00     0.017 C 
HETATM    2  C2  UNL     1      25.331  20.870   9.115  1.00  0.00    -0.090 C 
HETATM    3  C3  UNL     1      26.740  20.845   8.949  1.00  0.00     0.060 C 
HETATM    4  C4  UNL     1      27.491  21.716   8.379  1.00  0.00    -0.014 C 
ENDROOT
BRANCH   4   5
HETATM    5  C5  UNL     1      27.035  22.972   7.748  1.00  0.00     0.057 C 
BRANCH   5   6
HETATM    6  C6  UNL     1      26.738  22.823   6.325  1.00  0.00     0.012 C 
HETATM    7  C7  UNL     1      26.390  23.606   5.370  1.00  0.00     0.099 C 
HETATM    8  C8  UNL     1      26.190  22.980   4.017  1.00  0.00     0.268 C 
HETATM    9  N9  UNL     1      26.202  25.023   5.509  1.00  0.00    -0.354 N 
HETATM   10  O1  UNL     1      27.107  22.138   3.658  1.00  0.00    -0.266 OA
HETATM   11  N1  UNL     1      25.113  23.233   3.144  1.00  0.00    -0.344 N 
HETATM   12  C9  UNL     1      23.724  23.247   3.403  1.00  0.00     0.159 C 
ATOM     13  H1  UNL     1      25.375  23.437   2.179  1.00  0.00     0.163 HD
HETATM   14  C14 UNL     1      22.972  24.488   3.170  1.00  0.00     0.139 C 
HETATM   15  N5  UNL     1      22.774  25.286   2.062  1.00  0.00    -0.339 N 
HETATM   16  C15 UNL     1      23.479  26.089   1.127  1.00  0.00     0.062 C 
ATOM     17  H5  UNL     1      21.780  25.306   1.837  1.00  0.00     0.167 HD
HETATM   18  C20 UNL     1      24.842  26.513   1.328  1.00  0.00     0.159 C 
HETATM   19  N6  UNL     1      25.482  27.558   2.010  1.00  0.00    -0.356 N 
HETATM   20  C21 UNL     1      25.599  28.018   3.335  1.00  0.00     0.178 C 
ATOM     21  H6  UNL     1      26.009  28.150   1.367  1.00  0.00     0.162 HD
HETATM   22  C23 UNL     1      25.482  27.093   4.479  1.00  0.00     0.087 C 
HETATM   23  C24 UNL     1      26.545  25.997   4.532  1.00  0.00    -0.003 C 
HETATM   24  C32 UNL     1      25.555  25.520   6.718  1.00  0.00     0.156 C 
BRANCH  12  25
HETATM   25  C10 UNL     1      23.131  22.066   2.649  1.00  0.00     0.035 C 
BRANCH  25  26
HETATM   26  C11 UNL     1      24.109  21.302   1.845  1.00  0.00     0.022 C 
BRANCH  26  27
HETATM   27  C12 UNL     1      24.120  19.873   2.398  1.00  0.00     0.122 C 
BRANCH  27  28
HETATM   28  N2  UNL     1      25.037  19.747   3.502  1.00  0.00    -0.367 N 
HETATM   29  C13 UNL     1      24.702  19.532   4.707  1.00  0.00     0.196 C 
HETATM   30  N3  UNL     1      25.651  19.417   5.748  1.00  0.00    -0.067 NA
HETATM   31  N4  UNL     1      23.326  19.401   5.033  1.00  0.00    -0.067 NA
ATOM     32  H2  UNL     1      26.032  19.837   3.300  1.00  0.00     0.161 HD
ENDBRANCH  27  28
ENDBRANCH  26  27
ENDBRANCH  25  26
ENDBRANCH  12  25
BRANCH  14  33
HETATM   33  O2  UNL     1      22.386  24.859   4.289  1.00  0.00    -0.348 OA
ATOM     34  H2  UNL     1      21.479  25.081   4.111  1.00  0.00     0.219 HD
ENDBRANCH  14  33
BRANCH  16  35
HETATM   35  C16 UNL     1      22.556  27.233   0.625  1.00  0.00     0.065 C 
BRANCH  35  36
HETATM   36  C17 UNL     1      21.257  27.264   1.320  1.00  0.00    -0.017 C 
HETATM   37  C18 UNL     1      21.141  28.318   2.395  1.00  0.00     0.010 C 
HETATM   38  C19 UNL     1      20.093  27.530   0.370  1.00  0.00     0.010 C 
ENDBRANCH  35  36
ENDBRANCH  16  35
BRANCH  18  39
HETATM   39  O3  UNL     1      25.728  25.750   0.729  1.00  0.00    -0.345 OA
ATOM     40  H3  UNL     1      26.502  25.578   1.252  1.00  0.00     0.219 HD
ENDBRANCH  18  39
BRANCH  20  41
HETATM   41  C22 UNL     1      24.739  29.217   3.665  1.00  0.00     0.254 C 
HETATM   42  N7  UNL     1      24.304  30.055   2.605  1.00  0.00    -0.060 NA
HETATM   43  O4  UNL     1      24.429  29.451   4.847  1.00  0.00    -0.275 OA
ENDBRANCH  20  41
BRANCH  23  44
HETATM   44  C25 UNL     1      27.891  26.526   4.354  1.00  0.00     0.110 C 
BRANCH  44  45
HETATM   45  C26 UNL     1      28.425  27.287   5.477  1.00  0.00     0.020 A 
HETATM   46  N8  UNL     1      28.304  28.620   5.648  1.00  0.00    -0.362 N 
HETATM   47  C27 UNL     1      28.932  29.048   6.743  1.00  0.00     0.006 A 
ATOM     48  H8  UNL     1      27.792  29.230   5.011  1.00  0.00     0.165 HD
HETATM   49  C28 UNL     1      28.986  30.446   7.200  1.00  0.00     0.068 C 
HETATM   50  C29 UNL     1      29.501  27.953   7.339  1.00  0.00     0.033 A 
HETATM   51  C30 UNL     1      29.182  26.866   6.552  1.00  0.00    -0.037 A 
HETATM   52  C31 UNL     1      29.571  25.470   6.874  1.00  0.00     0.050 C 
ENDBRANCH  44  45
ENDBRANCH  23  44
ENDBRANCH   5   6
ENDBRANCH   4   5
TORSDOF 13
ENDMDL
MODEL 3
REMARK VINA RESULT: -6.597713687      4.972      9.696
REMARK  13 active torsions:
REMARK  status: ('A' for Active; 'I' for Inactive)
REMARK    1  A    between atoms: C4_4  and  C5_5 
REMARK    2  A    between atoms: C5_5  and  C6_6 
REMARK    3  A    between atoms: C9_12  and  C10_13 
REMARK    4  A    between atoms: C10_13  and  C11_14 
REMARK    5  A    between atoms: C11_14  and  C12_15 
REMARK    6  A    between atoms: C12_15  and  N2_16 
REMARK    7  A    between atoms: C14_21  and  O2_22 
REMARK    8  A    between atoms: C15_26  and  C16_27 
REMARK    9  A    between atoms: C16_27  and  C17_28 
REMARK   10  A    between atoms: C20_31  and  O3_32 
REMARK   11  A    between atoms: C21_36  and  C22_37 
REMARK   12  A    between atoms: C24_41  and  C25_42 
REMARK   13  A    between atoms: C25_42  and  C26_43 
ROOT
HETATM    1  C1  UNL     1      19.899  13.205   4.806  1.00  0.00     0.017 C 
HETATM    2  C2  UNL     1      19.553  13.710   3.762  1.00  0.00    -0.090 C 
HETATM    3  C3  UNL     1      19.158  14.283   2.525  1.00  0.00     0.060 C 
HETATM    4  C4  UNL     1      19.746  15.201   1.848  1.00  0.00    -0.014 C 
ENDROOT
BRANCH   4   5
HETATM    5  C5  UNL     1      21.001  15.884   2.223  1.00  0.00     0.057 C 
BRANCH   5   6
HETATM    6  C6  UNL     1      21.074  16.204   3.648  1.00  0.00     0.012 C 
HETATM    7  C7  UNL     1      21.789  16.976   4.383  1.00  0.00     0.099 C 
HETATM    8  C8  UNL     1      21.493  16.974   5.858  1.00  0.00     0.268 C 
HETATM    9  N9  UNL     1      22.824  17.838   3.887  1.00  0.00    -0.354 N 
HETATM   10  O1  UNL     1      20.236  17.020   6.167  1.00  0.00    -0.266 OA
HETATM   11  N1  UNL     1      22.452  16.926   6.890  1.00  0.00    -0.344 N 
HETATM   12  C9  UNL     1      23.557  16.062   7.056  1.00  0.00     0.159 C 
ATOM     13  H1  UNL     1      22.329  17.619   7.628  1.00  0.00     0.163 HD
HETATM   14  C14 UNL     1      24.907  16.642   7.116  1.00  0.00     0.139 C 
HETATM   15  N5  UNL     1      25.506  17.570   7.942  1.00  0.00    -0.339 N 
HETATM   16  C15 UNL     1      25.412  18.928   8.345  1.00  0.00     0.062 C 
ATOM     17  H5  UNL     1      26.285  17.129   8.431  1.00  0.00     0.167 HD
HETATM   18  C20 UNL     1      24.620  19.903   7.638  1.00  0.00     0.159 C 
HETATM   19  N6  UNL     1      24.803  20.729   6.519  1.00  0.00    -0.356 N 
HETATM   20  C21 UNL     1      25.059  20.575   5.143  1.00  0.00     0.178 C 
ATOM     21  H6  UNL     1      24.730  21.714   6.773  1.00  0.00     0.162 HD
HETATM   22  C23 UNL     1      24.628  19.367   4.415  1.00  0.00     0.087 C 
HETATM   23  C24 UNL     1      23.117  19.138   4.384  1.00  0.00    -0.003 C 
HETATM   24  C32 UNL     1      23.695  17.339   2.830  1.00  0.00     0.156 C 
BRANCH  12  25
HETATM   25  C10 UNL     1      23.251  15.194   8.267  1.00  0.00     0.035 C 
BRANCH  25  26
HETATM   26  C11 UNL     1      23.314  13.739   8.006  1.00  0.00     0.022 C 
BRANCH  26  27
HETATM   27  C12 UNL     1      22.071  13.117   8.650  1.00  0.00     0.122 C 
BRANCH  27  28
HETATM   28  N2  UNL     1      21.477  12.126   7.790  1.00  0.00    -0.367 N 
HETATM   29  C13 UNL     1      21.027  11.004   8.172  1.00  0.00     0.196 C 
HETATM   30  N3  UNL     1      20.453  10.073   7.278  1.00  0.00    -0.067 NA
HETATM   31  N4  UNL     1      21.096  10.660   9.549  1.00  0.00    -0.067 NA
ATOM     32  H2  UNL     1      21.413  12.344   6.796  1.00  0.00     0.161 HD
ENDBRANCH  27  28
ENDBRANCH  26  27
ENDBRANCH  25  26
ENDBRANCH  12  25
BRANCH  14  33
HETATM   33  O2  UNL     1      25.647  16.122   6.160  1.00  0.00    -0.348 OA
ATOM     34  H2  UNL     1      26.559  16.133   6.427  1.00  0.00     0.219 HD
ENDBRANCH  14  33
BRANCH  16  35
HETATM   35  C16 UNL     1      26.823  19.454   8.729  1.00  0.00     0.065 C 
BRANCH  35  36
HETATM   36  C17 UNL     1      26.772  20.587   9.670  1.00  0.00    -0.017 C 
HETATM   37  C18 UNL     1      27.697  20.463  10.857  1.00  0.00     0.010 C 
HETATM   38  C19 UNL     1      27.142  21.912   9.008  1.00  0.00     0.010 C 
ENDBRANCH  35  36
ENDBRANCH  16  35
BRANCH  18  39
HETATM   39  O3  UNL     1      23.426  20.088   8.151  1.00  0.00    -0.345 OA
ATOM     40  H3  UNL     1      22.803  20.471   7.544  1.00  0.00     0.219 HD
ENDBRANCH  18  39
BRANCH  20  41
HETATM   41  C22 UNL     1      26.493  20.831   4.736  1.00  0.00     0.254 C 
HETATM   42  N7  UNL     1      26.771  21.137   3.379  1.00  0.00    -0.060 NA
HETATM   43  O4  UNL     1      27.398  20.771   5.588  1.00  0.00    -0.275 OA
ENDBRANCH  20  41
BRANCH  23  44
HETATM   44  C25 UNL     1      22.387  20.337   3.995  1.00  0.00     0.110 C 
BRANCH  44  45
HETATM   45  C26 UNL     1      23.035  21.174   2.991  1.00  0.00     0.020 A 
HETATM   46  N8  UNL     1      23.859  20.732   2.018  1.00  0.00    -0.362 N 
HETATM   47  C27 UNL     1      24.341  21.728   1.274  1.00  0.00     0.006 A 
ATOM     48  H8  UNL     1      24.088  19.749   1.870  1.00  0.00     0.165 HD
HETATM   49  C28 UNL     1      25.264  21.570   0.138  1.00  0.00     0.068 C 
HETATM   50  C29 UNL     1      23.816  22.893   1.766  1.00  0.00     0.033 A 
HETATM   51  C30 UNL     1      23.007  22.544   2.827  1.00  0.00    -0.037 A 
HETATM   52  C31 UNL     1      22.208  23.517   3.614  1.00  0.00     0.050 C 
ENDBRANCH  44  45
ENDBRANCH  23  44
ENDBRANCH   5   6
ENDBRANCH   4   5
TORSDOF 13
ENDMDL
MODEL 4
REMARK VINA RESULT: -6.446176975      1.285      1.617
REMARK  13 active torsions:
REMARK  status: ('A' for Active; 'I' for Inactive)
REMARK    1  A    between atoms: C4_4  and  C5_5 
REMARK    2  A    between atoms: C5_5  and  C6_6 
REMARK    3  A    between atoms: C9_12  and  C10_13 
REMARK    4  A    between atoms: C10_13  and  C11_14 
REMARK    5  A    between atoms: C11_14  and  C12_15 
REMARK    6  A    between atoms: C12_15  and  N2_16 
REMARK    7  A    between atoms: C14_21  and  O2_22 
REMARK    8  A    between atoms: C15_26  and  C16_27 
REMARK    9  A    between atoms: C16_27  and  C17_28 
REMARK   10  A    between atoms: C20_31  and  O3_32 
REMARK   11  A    between atoms: C21_36  and  C22_37 
REMARK   12  A    between atoms: C24_41  and  C25_42 
REMARK   13  A    between atoms: C25_42  and  C26_43 
ROOT
HETATM    1  C1  UNL     1      24.466  20.949   9.094  1.00  0.00     0.017 C 
HETATM    2  C2  UNL     1      25.644  21.193   8.953  1.00  0.00    -0.090 C 
HETATM    3  C3  UNL     1      27.024  21.488   8.811  1.00  0.00     0.060 C 
HETATM    4  C4  UNL     1      27.569  22.537   8.313  1.00  0.00    -0.014 C 
ENDROOT
BRANCH   4   5
HETATM    5  C5  UNL     1      26.852  23.704   7.759  1.00  0.00     0.057 C 
BRANCH   5   6
HETATM    6  C6  UNL     1      26.385  23.492   6.391  1.00  0.00     0.012 C 
HETATM    7  C7  UNL     1      25.973  24.239   5.432  1.00  0.00     0.099 C 
HETATM    8  C8  UNL     1      25.583  23.549   4.153  1.00  0.00     0.268 C 
HETATM    9  N9  UNL     1      25.881  25.670   5.499  1.00  0.00    -0.354 N 
HETATM   10  O1  UNL     1      26.405  22.632   3.750  1.00  0.00    -0.266 OA
HETATM   11  N1  UNL     1      24.428  23.818   3.392  1.00  0.00    -0.344 N 
HETATM   12  C9  UNL     1      23.082  23.933   3.803  1.00  0.00     0.159 C 
ATOM     13  H1  UNL     1      24.588  23.949   2.393  1.00  0.00     0.163 HD
HETATM   14  C14 UNL     1      22.377  25.204   3.576  1.00  0.00     0.139 C 
HETATM   15  N5  UNL     1      22.098  25.946   2.448  1.00  0.00    -0.339 N 
HETATM   16  C15 UNL     1      22.733  26.649   1.390  1.00  0.00     0.062 C 
ATOM     17  H5  UNL     1      21.086  26.015   2.334  1.00  0.00     0.167 HD
HETATM   18  C20 UNL     1      24.132  26.997   1.409  1.00  0.00     0.159 C 
HETATM   19  N6  UNL     1      24.903  28.039   1.946  1.00  0.00    -0.356 N 
HETATM   20  C21 UNL     1      25.197  28.566   3.218  1.00  0.00     0.178 C 
ATOM     21  H6  UNL     1      25.384  28.558   1.211  1.00  0.00     0.162 HD
HETATM   22  C23 UNL     1      25.163  27.718   4.424  1.00  0.00     0.087 C 
HETATM   23  C24 UNL     1      26.162  26.563   4.429  1.00  0.00    -0.003 C 
HETATM   24  C32 UNL     1      25.407  26.276   6.738  1.00  0.00     0.156 C 
BRANCH  12  25
HETATM   25  C10 UNL     1      22.340  22.751   3.198  1.00  0.00     0.035 C 
BRANCH  25  26
HETATM   26  C11 UNL     1      23.088  21.475   3.244  1.00  0.00     0.022 C 
BRANCH  26  27
HETATM   27  C12 UNL     1      23.262  21.009   1.795  1.00  0.00     0.122 C 
BRANCH  27  28
HETATM   28  N2  UNL     1      24.655  20.875   1.453  1.00  0.00    -0.367 N 
HETATM   29  C13 UNL     1      25.347  21.752   0.852  1.00  0.00     0.196 C 
HETATM   30  N3  UNL     1      26.713  21.561   0.545  1.00  0.00    -0.067 NA
HETATM   31  N4  UNL     1      24.736  22.977   0.469  1.00  0.00    -0.067 NA
ATOM     32  H2  UNL     1      25.122  20.007   1.714  1.00  0.00     0.161 HD
ENDBRANCH  27  28
ENDBRANCH  26  27
ENDBRANCH  25  26
ENDBRANCH  12  25
BRANCH  14  33
HETATM   33  O2  UNL     1      21.946  25.674   4.727  1.00  0.00    -0.348 OA
ATOM     34  H2  UNL     1      20.996  25.686   4.726  1.00  0.00     0.219 HD
ENDBRANCH  14  33
BRANCH  16  35
HETATM   35  C16 UNL     1      21.822  27.817   0.921  1.00  0.00     0.065 C 
BRANCH  35  36
HETATM   36  C17 UNL     1      20.628  27.983   1.767  1.00  0.00    -0.017 C 
HETATM   37  C18 UNL     1      20.667  29.179   2.689  1.00  0.00     0.010 C 
HETATM   38  C19 UNL     1      19.351  28.150   0.947  1.00  0.00     0.010 C 
ENDBRANCH  35  36
ENDBRANCH  16  35
BRANCH  18  39
HETATM   39  O3  UNL     1      24.899  26.147   0.765  1.00  0.00    -0.345 OA
ATOM     40  H3  UNL     1      25.757  26.493   0.549  1.00  0.00     0.219 HD
ENDBRANCH  18  39
BRANCH  20  41
HETATM   41  C22 UNL     1      24.449  29.834   3.563  1.00  0.00     0.254 C 
HETATM   42  N7  UNL     1      24.338  30.209   4.927  1.00  0.00    -0.060 NA
HETATM   43  O4  UNL     1      23.947  30.522   2.657  1.00  0.00    -0.275 OA
ENDBRANCH  20  41
BRANCH  23  44
HETATM   44  C25 UNL     1      27.505  26.996   4.067  1.00  0.00     0.110 C 
BRANCH  44  45
HETATM   45  C26 UNL     1      28.472  27.035   5.158  1.00  0.00     0.020 A 
HETATM   46  N8  UNL     1      29.393  26.084   5.423  1.00  0.00    -0.362 N 
HETATM   47  C27 UNL     1      30.111  26.365   6.510  1.00  0.00     0.006 A 
ATOM     48  H8  UNL     1      29.524  25.246   4.855  1.00  0.00     0.165 HD
HETATM   49  C28 UNL     1      31.189  25.524   7.057  1.00  0.00     0.068 C 
HETATM   50  C29 UNL     1      29.655  27.560   7.001  1.00  0.00     0.033 A 
HETATM   51  C30 UNL     1      28.642  27.970   6.159  1.00  0.00    -0.037 A 
HETATM   52  C31 UNL     1      27.907  29.252   6.312  1.00  0.00     0.050 C 
ENDBRANCH  44  45
ENDBRANCH  23  44
ENDBRANCH   5   6
ENDBRANCH   4   5
TORSDOF 13
ENDMDL
MODEL 5
REMARK VINA RESULT: -6.322306888      3.895      8.863
REMARK  13 active torsions:
REMARK  status: ('A' for Active; 'I' for Inactive)
REMARK    1  A    between atoms: C4_4  and  C5_5 
REMARK    2  A    between atoms: C5_5  and  C6_6 
REMARK    3  A    between atoms: C9_12  and  C10_13 
REMARK    4  A    between atoms: C10_13  and  C11_14 
REMARK    5  A    between atoms: C11_14  and  C12_15 
REMARK    6  A    between atoms: C12_15  and  N2_16 
REMARK    7  A    between atoms: C14_21  and  O2_22 
REMARK    8  A    between atoms: C15_26  and  C16_27 
REMARK    9  A    between atoms: C16_27  and  C17_28 
REMARK   10  A    between atoms: C20_31  and  O3_32 
REMARK   11  A    between atoms: C21_36  and  C22_37 
REMARK   12  A    between atoms: C24_41  and  C25_42 
REMARK   13  A    between atoms: C25_42  and  C26_43 
ROOT
HETATM    1  C1  UNL     1      19.807  13.155   5.970  1.00  0.00     0.017 C 
HETATM    2  C2  UNL     1      19.871  13.514   4.816  1.00  0.00    -0.090 C 
HETATM    3  C3  UNL     1      19.969  13.925   3.461  1.00  0.00     0.060 C 
HETATM    4  C4  UNL     1      20.312  15.072   2.999  1.00  0.00    -0.014 C 
ENDROOT
BRANCH   4   5
HETATM    5  C5  UNL     1      20.689  16.252   3.804  1.00  0.00     0.057 C 
BRANCH   5   6
HETATM    6  C6  UNL     1      21.857  16.955   3.278  1.00  0.00     0.012 C 
HETATM    7  C7  UNL     1      22.759  17.730   3.759  1.00  0.00     0.099 C 
HETATM    8  C8  UNL     1      23.805  18.232   2.800  1.00  0.00     0.268 C 
HETATM    9  N9  UNL     1      22.839  18.127   5.136  1.00  0.00    -0.354 N 
HETATM   10  O1  UNL     1      24.295  17.336   2.002  1.00  0.00    -0.266 OA
HETATM   11  N1  UNL     1      24.271  19.559   2.711  1.00  0.00    -0.344 N 
HETATM   12  C9  UNL     1      23.545  20.768   2.635  1.00  0.00     0.159 C 
ATOM     13  H1  UNL     1      25.286  19.661   2.699  1.00  0.00     0.163 HD
HETATM   14  C14 UNL     1      23.732  21.774   3.690  1.00  0.00     0.139 C 
HETATM   15  N5  UNL     1      24.830  22.462   4.164  1.00  0.00    -0.339 N 
HETATM   16  C15 UNL     1      26.091  22.256   4.785  1.00  0.00     0.062 C 
ATOM     17  H5  UNL     1      24.688  23.461   4.018  1.00  0.00     0.167 HD
HETATM   18  C20 UNL     1      26.472  21.006   5.392  1.00  0.00     0.159 C 
HETATM   19  N6  UNL     1      26.277  20.391   6.637  1.00  0.00    -0.356 N 
HETATM   20  C21 UNL     1      25.194  19.944   7.419  1.00  0.00     0.178 C 
ATOM     21  H6  UNL     1      27.166  20.218   7.106  1.00  0.00     0.162 HD
HETATM   22  C23 UNL     1      23.928  19.513   6.797  1.00  0.00     0.087 C 
HETATM   23  C24 UNL     1      24.044  18.303   5.871  1.00  0.00    -0.003 C 
HETATM   24  C32 UNL     1      21.601  18.434   5.841  1.00  0.00     0.156 C 
BRANCH  12  25
HETATM   25  C10 UNL     1      23.796  21.338   1.248  1.00  0.00     0.035 C 
BRANCH  25  26
HETATM   26  C11 UNL     1      25.215  21.650   0.964  1.00  0.00     0.022 C 
BRANCH  26  27
HETATM   27  C12 UNL     1      25.234  22.970   0.187  1.00  0.00     0.122 C 
BRANCH  27  28
HETATM   28  N2  UNL     1      24.131  23.816   0.566  1.00  0.00    -0.367 N 
HETATM   29  C13 UNL     1      24.238  24.932   1.158  1.00  0.00     0.196 C 
HETATM   30  N3  UNL     1      23.116  25.718   1.503  1.00  0.00    -0.067 NA
HETATM   31  N4  UNL     1      25.530  25.422   1.490  1.00  0.00    -0.067 NA
ATOM     32  H2  UNL     1      23.191  23.491   0.342  1.00  0.00     0.161 HD
ENDBRANCH  27  28
ENDBRANCH  26  27
ENDBRANCH  25  26
ENDBRANCH  12  25
BRANCH  14  33
HETATM   33  O2  UNL     1      22.573  22.030   4.258  1.00  0.00    -0.348 OA
ATOM     34  H2  UNL     1      22.548  22.942   4.526  1.00  0.00     0.219 HD
ENDBRANCH  14  33
BRANCH  16  35
HETATM   35  C16 UNL     1      26.444  23.490   5.661  1.00  0.00     0.065 C 
BRANCH  35  36
HETATM   36  C17 UNL     1      26.191  24.768   4.975  1.00  0.00    -0.017 C 
HETATM   37  C18 UNL     1      25.026  25.559   5.522  1.00  0.00     0.010 C 
HETATM   38  C19 UNL     1      27.387  25.715   5.044  1.00  0.00     0.010 C 
ENDBRANCH  35  36
ENDBRANCH  16  35
BRANCH  18  39
HETATM   39  O3  UNL     1      27.186  20.232   4.607  1.00  0.00    -0.345 OA
ATOM     40  H3  UNL     1      27.718  19.598   5.075  1.00  0.00     0.219 HD
ENDBRANCH  18  39
BRANCH  20  41
HETATM   41  C22 UNL     1      24.820  20.863   8.561  1.00  0.00     0.254 C 
HETATM   42  N7  UNL     1      25.709  21.914   8.907  1.00  0.00    -0.060 NA
HETATM   43  O4  UNL     1      23.752  20.686   9.173  1.00  0.00    -0.275 OA
ENDBRANCH  20  41
BRANCH  23  44
HETATM   44  C25 UNL     1      24.786  17.210   6.485  1.00  0.00     0.110 C 
BRANCH  44  45
HETATM   45  C26 UNL     1      23.999  16.036   6.846  1.00  0.00     0.020 A 
HETATM   46  N8  UNL     1      23.484  15.786   8.068  1.00  0.00    -0.362 N 
HETATM   47  C27 UNL     1      22.849  14.614   8.118  1.00  0.00     0.006 A 
ATOM     48  H8  UNL     1      23.569  16.420   8.862  1.00  0.00     0.165 HD
HETATM   49  C28 UNL     1      22.184  14.058   9.307  1.00  0.00     0.068 C 
HETATM   50  C29 UNL     1      22.940  14.050   6.872  1.00  0.00     0.033 A 
HETATM   51  C30 UNL     1      23.651  14.935   6.090  1.00  0.00    -0.037 A 
HETATM   52  C31 UNL     1      23.934  14.722   4.648  1.00  0.00     0.050 C 
ENDBRANCH  44  45
ENDBRANCH  23  44
ENDBRANCH   5   6
ENDBRANCH   4   5
TORSDOF 13
ENDMDL
