MODEL 1
REMARK VINA RESULT: -6.910651880      0.000      0.000
REMARK  13 active torsions:
REMARK  status: ('A' for Active; 'I' for Inactive)
REMARK    1  A    between atoms: C2_2  and  C3_3 
REMARK    2  A    between atoms: C2_2  and  C31_46 
REMARK    3  A    between atoms: C4_4  and  C5_5 
REMARK    4  A    between atoms: N1_8  and  C8_9 
REMARK    5  A    between atoms: C8_9  and  C9_10 
REMARK    6  A    between atoms: C9_10  and  C10_12 
REMARK    7  A    between atoms: C10_12  and  C11_13 
REMARK    8  A    between atoms: C14_17  and  C15_18 
REMARK    9  A    between atoms: C19_25  and  C20_26 
REMARK   10  A    between atoms: C20_26  and  C21_27 
REMARK   11  A    between atoms: C25_34  and  C26_35 
REMARK   12  A    between atoms: C26_35  and  C28_37 
REMARK   13  A    between atoms: C30_41  and  O5_42 
REMARK       I    between atoms: C31_46  and  N6_48 
ROOT
HETATM    1  C5  UNL     1      17.420  -3.461   3.331  1.00  0.00     0.091 C 
HETATM    2  C6  UNL     1      17.579  -4.688   3.919  1.00  0.00     0.038 C 
HETATM    3  C7  UNL     1      17.392  -5.811   3.001  1.00  0.00     0.183 C 
HETATM    4  N1  UNL     1      16.063  -6.013   2.425  1.00  0.00    -0.338 N 
HETATM    5  C13 UNL     1      14.892  -6.184   3.195  1.00  0.00     0.243 C 
HETATM    6  O2  UNL     1      13.820  -5.563   2.871  1.00  0.00    -0.271 OA
HETATM    7  C14 UNL     1      14.792  -7.074   4.411  1.00  0.00     0.180 C 
HETATM    8  N2  UNL     1      15.062  -8.443   4.044  1.00  0.00    -0.346 N 
ATOM      9  H2  UNL     1      14.536  -8.781   3.237  1.00  0.00     0.163 HD
HETATM   10  C18 UNL     1      15.925  -9.380   4.614  1.00  0.00     0.241 C 
HETATM   11  O3  UNL     1      16.755  -9.943   3.812  1.00  0.00    -0.271 OA
HETATM   12  C19 UNL     1      15.958  -9.783   6.060  1.00  0.00     0.177 C 
HETATM   13  N3  UNL     1      16.066  -8.706   6.986  1.00  0.00    -0.346 N 
ATOM     14  H3  UNL     1      15.246  -8.501   7.556  1.00  0.00     0.163 HD
HETATM   15  C24 UNL     1      17.223  -7.885   7.188  1.00  0.00     0.241 C 
HETATM   16  O4  UNL     1      17.099  -6.944   8.036  1.00  0.00    -0.271 OA
HETATM   17  C25 UNL     1      18.505  -8.023   6.523  1.00  0.00     0.181 C 
HETATM   18  N4  UNL     1      19.155  -6.839   6.046  1.00  0.00    -0.343 N 
ATOM     19  H4  UNL     1      20.058  -7.022   5.609  1.00  0.00     0.164 HD
HETATM   20  C30 UNL     1      18.811  -5.489   6.056  1.00  0.00     0.217 C 
HETATM   21  N5  UNL     1      17.864  -4.761   5.310  1.00  0.00    -0.324 N 
ATOM     22  H5  UNL     1      17.263  -4.167   5.881  1.00  0.00     0.169 HD
ENDROOT
BRANCH   1  23
HETATM   23  C4  UNL     1      17.554  -2.264   4.022  1.00  0.00    -0.071 C 
HETATM   24  C3  UNL     1      17.749  -1.289   4.638  1.00  0.00    -0.057 C 
BRANCH  24  25
HETATM   25  C2  UNL     1      17.983  -0.074   5.401  1.00  0.00     0.076 C 
HETATM   26  C1  UNL     1      18.115   1.028   4.587  1.00  0.00     0.039 C 
BRANCH  25  27
HETATM   27  C31 UNL     1      18.388   0.085   6.784  1.00  0.00     0.265 C 
HETATM   28  O6  UNL     1      18.298   1.083   7.491  1.00  0.00    -0.267 OA
HETATM   29  N6  UNL     1      18.964  -1.125   7.367  1.00  0.00    -0.299 N 
HETATM   30  C32 UNL     1      18.523  -1.505   8.543  1.00  0.00     0.203 C 
ATOM     31  H6  UNL     1      19.683  -1.656   6.876  1.00  0.00     0.171 HD
HETATM   32  N7  UNL     1      19.044  -2.663   9.147  1.00  0.00    -0.066 NA
HETATM   33  N8  UNL     1      17.541  -0.740   9.211  1.00  0.00    -0.066 NA
ENDBRANCH  25  27
ENDBRANCH  24  25
ENDBRANCH   1  23
BRANCH   4  34
HETATM   34  C8  UNL     1      15.941  -6.136   0.966  1.00  0.00     0.204 C 
BRANCH  34  35
HETATM   35  C9  UNL     1      16.299  -4.956   0.184  1.00  0.00     0.144 C 
HETATM   36  O1  UNL     1      15.838  -3.841   0.251  1.00  0.00    -0.296 OA
BRANCH  35  37
HETATM   37  C10 UNL     1      17.393  -5.106  -0.862  1.00  0.00     0.079 C 
BRANCH  37  38
HETATM   38  C11 UNL     1      18.750  -5.208  -0.250  1.00  0.00     0.003 C 
HETATM   39  C12 UNL     1      19.399  -6.555  -0.346  1.00  0.00     0.005 C 
ENDBRANCH  37  38
ENDBRANCH  35  37
ENDBRANCH  34  35
ENDBRANCH   4  34
BRANCH  20  40
HETATM   40  O5  UNL     1      19.542  -4.812   6.949  1.00  0.00    -0.333 OA
ATOM     41  H5  UNL     1      19.098  -4.017   7.223  1.00  0.00     0.220 HD
ENDBRANCH  20  40
BRANCH   7  42
HETATM   42  C15 UNL     1      13.416  -6.954   5.045  1.00  0.00     0.009 C 
HETATM   43  C16 UNL     1      13.435  -6.544   6.481  1.00  0.00     0.012 C 
HETATM   44  C17 UNL     1      12.565  -8.156   4.779  1.00  0.00     0.012 C 
ENDBRANCH   7  42
BRANCH  17  45
HETATM   45  C26 UNL     1      19.426  -8.851   7.403  1.00  0.00     0.013 C 
HETATM   46  C27 UNL     1      20.801  -8.219   7.467  1.00  0.00     0.012 C 
BRANCH  45  47
HETATM   47  C28 UNL     1      19.538 -10.275   6.997  1.00  0.00     0.002 C 
HETATM   48  C29 UNL     1      18.802 -11.243   7.896  1.00  0.00     0.005 C 
ENDBRANCH  45  47
ENDBRANCH  17  45
BRANCH  12  49
HETATM   49  C20 UNL     1      14.781 -10.694   6.245  1.00  0.00     0.038 C 
BRANCH  49  50
HETATM   50  C21 UNL     1      14.921 -11.817   7.192  1.00  0.00    -0.020 C 
HETATM   51  C22 UNL     1      13.571 -11.899   7.953  1.00  0.00     0.009 C 
HETATM   52  C23 UNL     1      15.130 -13.157   6.559  1.00  0.00     0.009 C 
ENDBRANCH  49  50
ENDBRANCH  12  49
TORSDOF 13
ENDMDL
MODEL 2
REMARK VINA RESULT: -6.813370353      1.101      1.720
REMARK  13 active torsions:
REMARK  status: ('A' for Active; 'I' for Inactive)
REMARK    1  A    between atoms: C2_2  and  C3_3 
REMARK    2  A    between atoms: C2_2  and  C31_46 
REMARK    3  A    between atoms: C4_4  and  C5_5 
REMARK    4  A    between atoms: N1_8  and  C8_9 
REMARK    5  A    between atoms: C8_9  and  C9_10 
REMARK    6  A    between atoms: C9_10  and  C10_12 
REMARK    7  A    between atoms: C10_12  and  C11_13 
REMARK    8  A    between atoms: C14_17  and  C15_18 
REMARK    9  A    between atoms: C19_25  and  C20_26 
REMARK   10  A    between atoms: C20_26  and  C21_27 
REMARK   11  A    between atoms: C25_34  and  C26_35 
REMARK   12  A    between atoms: C26_35  and  C28_37 
REMARK   13  A    between atoms: C30_41  and  O5_42 
REMARK       I    between atoms: C31_46  and  N6_48 
ROOT
HETATM    1  C5  UNL     1      17.301  -3.422   3.406  1.00  0.00     0.091 C 
HETATM    2  C6  UNL     1      17.467  -4.679   3.926  1.00  0.00     0.038 C 
HETATM    3  C7  UNL     1      17.279  -5.750   2.948  1.00  0.00     0.183 C 
HETATM    4  N1  UNL     1      15.949  -5.925   2.368  1.00  0.00    -0.338 N 
HETATM    5  C13 UNL     1      14.782  -6.143   3.131  1.00  0.00     0.243 C 
HETATM    6  O2  UNL     1      13.707  -5.509   2.846  1.00  0.00    -0.271 OA
HETATM    7  C14 UNL     1      14.690  -7.098   4.297  1.00  0.00     0.180 C 
HETATM    8  N2  UNL     1      14.963  -8.444   3.855  1.00  0.00    -0.346 N 
ATOM      9  H2  UNL     1      14.436  -8.740   3.033  1.00  0.00     0.163 HD
HETATM   10  C18 UNL     1      15.832  -9.408   4.369  1.00  0.00     0.241 C 
HETATM   11  O3  UNL     1      16.661  -9.923   3.534  1.00  0.00    -0.271 OA
HETATM   12  C19 UNL     1      15.873  -9.889   5.791  1.00  0.00     0.177 C 
HETATM   13  N3  UNL     1      15.981  -8.864   6.774  1.00  0.00    -0.346 N 
ATOM     14  H3  UNL     1      15.163  -8.694   7.358  1.00  0.00     0.163 HD
HETATM   15  C24 UNL     1      17.136  -8.051   7.016  1.00  0.00     0.241 C 
HETATM   16  O4  UNL     1      17.012  -7.159   7.915  1.00  0.00    -0.271 OA
HETATM   17  C25 UNL     1      18.416  -8.148   6.339  1.00  0.00     0.181 C 
HETATM   18  N4  UNL     1      19.059  -6.937   5.926  1.00  0.00    -0.343 N 
ATOM     19  H4  UNL     1      19.961  -7.093   5.476  1.00  0.00     0.164 HD
HETATM   20  C30 UNL     1      18.710  -5.591   6.010  1.00  0.00     0.217 C 
HETATM   21  N5  UNL     1      17.758  -4.826   5.309  1.00  0.00    -0.324 N 
ATOM     22  H5  UNL     1      17.157  -4.267   5.914  1.00  0.00     0.169 HD
ENDROOT
BRANCH   1  23
HETATM   23  C4  UNL     1      17.434  -2.264   4.162  1.00  0.00    -0.071 C 
HETATM   24  C3  UNL     1      17.634  -1.318   4.819  1.00  0.00    -0.057 C 
BRANCH  24  25
HETATM   25  C2  UNL     1      17.873  -0.138   5.634  1.00  0.00     0.076 C 
HETATM   26  C1  UNL     1      18.108   0.980   4.866  1.00  0.00     0.039 C 
BRANCH  25  27
HETATM   27  C31 UNL     1      18.194  -0.040   7.044  1.00  0.00     0.265 C 
HETATM   28  O6  UNL     1      17.938   0.876   7.819  1.00  0.00    -0.267 OA
HETATM   29  N6  UNL     1      18.908  -1.204   7.563  1.00  0.00    -0.299 N 
HETATM   30  C32 UNL     1      18.477  -1.735   8.683  1.00  0.00     0.203 C 
ATOM     31  H6  UNL     1      19.714  -1.592   7.072  1.00  0.00     0.171 HD
HETATM   32  N7  UNL     1      19.127  -2.858   9.224  1.00  0.00    -0.066 NA
HETATM   33  N8  UNL     1      17.371  -1.167   9.355  1.00  0.00    -0.066 NA
ENDBRANCH  25  27
ENDBRANCH  24  25
ENDBRANCH   1  23
BRANCH   4  34
HETATM   34  C8  UNL     1      15.822  -5.969   0.905  1.00  0.00     0.204 C 
BRANCH  34  35
HETATM   35  C9  UNL     1      15.397  -7.242   0.329  1.00  0.00     0.144 C 
HETATM   36  O1  UNL     1      15.733  -8.359   0.643  1.00  0.00    -0.296 OA
BRANCH  35  37
HETATM   37  C10 UNL     1      14.400  -7.201  -0.821  1.00  0.00     0.079 C 
BRANCH  37  38
HETATM   38  C11 UNL     1      13.083  -6.638  -0.405  1.00  0.00     0.003 C 
HETATM   39  C12 UNL     1      12.233  -7.542   0.434  1.00  0.00     0.005 C 
ENDBRANCH  37  38
ENDBRANCH  35  37
ENDBRANCH  34  35
ENDBRANCH   4  34
BRANCH  20  40
HETATM   40  O5  UNL     1      19.442  -4.961   6.937  1.00  0.00    -0.333 OA
ATOM     41  H5  UNL     1      19.699  -4.096   6.640  1.00  0.00     0.220 HD
ENDBRANCH  20  40
BRANCH   7  42
HETATM   42  C15 UNL     1      13.316  -7.018   4.943  1.00  0.00     0.009 C 
HETATM   43  C16 UNL     1      13.341  -6.703   6.402  1.00  0.00     0.012 C 
HETATM   44  C17 UNL     1      12.463  -8.200   4.602  1.00  0.00     0.012 C 
ENDBRANCH   7  42
BRANCH  17  45
HETATM   45  C26 UNL     1      19.343  -9.020   7.169  1.00  0.00     0.013 C 
HETATM   46  C27 UNL     1      20.717  -8.388   7.261  1.00  0.00     0.012 C 
BRANCH  45  47
HETATM   47  C28 UNL     1      19.457 -10.419   6.686  1.00  0.00     0.002 C 
HETATM   48  C29 UNL     1      18.745 -11.439   7.546  1.00  0.00     0.005 C 
ENDBRANCH  45  47
ENDBRANCH  17  45
BRANCH  12  49
HETATM   49  C20 UNL     1      14.700 -10.813   5.931  1.00  0.00     0.038 C 
BRANCH  49  50
HETATM   50  C21 UNL     1      14.168 -11.053   7.287  1.00  0.00    -0.020 C 
HETATM   51  C22 UNL     1      12.631 -10.867   7.176  1.00  0.00     0.009 C 
HETATM   52  C23 UNL     1      14.389 -12.434   7.819  1.00  0.00     0.009 C 
ENDBRANCH  49  50
ENDBRANCH  12  49
TORSDOF 13
ENDMDL
MODEL 3
REMARK VINA RESULT: -6.555316938      0.981      1.332
REMARK  13 active torsions:
REMARK  status: ('A' for Active; 'I' for Inactive)
REMARK    1  A    between atoms: C2_2  and  C3_3 
REMARK    2  A    between atoms: C2_2  and  C31_46 
REMARK    3  A    between atoms: C4_4  and  C5_5 
REMARK    4  A    between atoms: N1_8  and  C8_9 
REMARK    5  A    between atoms: C8_9  and  C9_10 
REMARK    6  A    between atoms: C9_10  and  C10_12 
REMARK    7  A    between atoms: C10_12  and  C11_13 
REMARK    8  A    between atoms: C14_17  and  C15_18 
REMARK    9  A    between atoms: C19_25  and  C20_26 
REMARK   10  A    between atoms: C20_26  and  C21_27 
REMARK   11  A    between atoms: C25_34  and  C26_35 
REMARK   12  A    between atoms: C26_35  and  C28_37 
REMARK   13  A    between atoms: C30_41  and  O5_42 
REMARK       I    between atoms: C31_46  and  N6_48 
ROOT
HETATM    1  C5  UNL     1      17.324  -4.087   3.216  1.00  0.00     0.091 C 
HETATM    2  C6  UNL     1      17.444  -5.272   3.891  1.00  0.00     0.038 C 
HETATM    3  C7  UNL     1      17.162  -6.450   3.071  1.00  0.00     0.183 C 
HETATM    4  N1  UNL     1      15.803  -6.622   2.561  1.00  0.00    -0.338 N 
HETATM    5  C13 UNL     1      14.656  -6.670   3.382  1.00  0.00     0.243 C 
HETATM    6  O2  UNL     1      13.606  -6.018   3.049  1.00  0.00    -0.271 OA
HETATM    7  C14 UNL     1      14.559  -7.458   4.667  1.00  0.00     0.180 C 
HETATM    8  N2  UNL     1      14.743  -8.864   4.399  1.00  0.00    -0.346 N 
ATOM      9  H2  UNL     1      14.169  -9.233   3.640  1.00  0.00     0.163 HD
HETATM   10  C18 UNL     1      15.578  -9.801   5.009  1.00  0.00     0.241 C 
HETATM   11  O3  UNL     1      16.346 -10.468   4.224  1.00  0.00    -0.271 OA
HETATM   12  C19 UNL     1      15.647 -10.093   6.480  1.00  0.00     0.177 C 
HETATM   13  N3  UNL     1      15.848  -8.957   7.314  1.00  0.00    -0.346 N 
ATOM     14  H3  UNL     1      15.063  -8.665   7.896  1.00  0.00     0.163 HD
HETATM   15  C24 UNL     1      17.053  -8.187   7.410  1.00  0.00     0.241 C 
HETATM   16  O4  UNL     1      17.011  -7.179   8.186  1.00  0.00    -0.271 OA
HETATM   17  C25 UNL     1      18.299  -8.445   6.713  1.00  0.00     0.181 C 
HETATM   18  N4  UNL     1      18.989  -7.338   6.123  1.00  0.00    -0.343 N 
ATOM     19  H4  UNL     1      19.864  -7.603   5.670  1.00  0.00     0.164 HD
HETATM   20  C30 UNL     1      18.716  -5.974   6.039  1.00  0.00     0.217 C 
HETATM   21  N5  UNL     1      17.779  -5.254   5.273  1.00  0.00    -0.324 N 
ATOM     22  H5  UNL     1      17.233  -4.587   5.817  1.00  0.00     0.169 HD
ENDROOT
BRANCH   1  23
HETATM   23  C4  UNL     1      17.548  -2.850   3.806  1.00  0.00    -0.071 C 
HETATM   24  C3  UNL     1      17.796  -1.851   4.362  1.00  0.00    -0.057 C 
BRANCH  24  25
HETATM   25  C2  UNL     1      18.097  -0.606   5.048  1.00  0.00     0.076 C 
HETATM   26  C1  UNL     1      18.419   0.403   4.168  1.00  0.00     0.039 C 
BRANCH  25  27
HETATM   27  C31 UNL     1      18.399  -0.371   6.446  1.00  0.00     0.265 C 
HETATM   28  O6  UNL     1      18.254   0.663   7.090  1.00  0.00    -0.267 OA
HETATM   29  N6  UNL     1      18.934  -1.543   7.134  1.00  0.00    -0.299 N 
HETATM   30  C32 UNL     1      18.410  -1.864   8.293  1.00  0.00     0.203 C 
ATOM     31  H6  UNL     1      19.690  -2.095   6.726  1.00  0.00     0.171 HD
HETATM   32  N7  UNL     1      18.888  -2.984   8.995  1.00  0.00    -0.066 NA
HETATM   33  N8  UNL     1      17.378  -1.071   8.845  1.00  0.00    -0.066 NA
ENDBRANCH  25  27
ENDBRANCH  24  25
ENDBRANCH   1  23
BRANCH   4  34
HETATM   34  C8  UNL     1      15.617  -6.849   1.121  1.00  0.00     0.204 C 
BRANCH  34  35
HETATM   35  C9  UNL     1      16.752  -6.524   0.262  1.00  0.00     0.144 C 
HETATM   36  O1  UNL     1      17.714  -7.205  -0.004  1.00  0.00    -0.296 OA
BRANCH  35  37
HETATM   37  C10 UNL     1      16.763  -5.158  -0.409  1.00  0.00     0.079 C 
BRANCH  37  38
HETATM   38  C11 UNL     1      15.419  -4.512  -0.396  1.00  0.00     0.003 C 
HETATM   39  C12 UNL     1      15.344  -3.199   0.323  1.00  0.00     0.005 C 
ENDBRANCH  37  38
ENDBRANCH  35  37
ENDBRANCH  34  35
ENDBRANCH   4  34
BRANCH  20  40
HETATM   40  O5  UNL     1      19.516  -5.272   6.851  1.00  0.00    -0.333 OA
ATOM     41  H5  UNL     1      19.661  -4.396   6.513  1.00  0.00     0.220 HD
ENDBRANCH  20  40
BRANCH   7  42
HETATM   42  C15 UNL     1      13.216  -7.215   5.338  1.00  0.00     0.009 C 
HETATM   43  C16 UNL     1      13.308  -6.547   6.670  1.00  0.00     0.012 C 
HETATM   44  C17 UNL     1      12.359  -8.442   5.344  1.00  0.00     0.012 C 
ENDBRANCH   7  42
BRANCH  17  45
HETATM   45  C26 UNL     1      19.210  -9.253   7.623  1.00  0.00     0.013 C 
HETATM   46  C27 UNL     1      20.622  -8.707   7.571  1.00  0.00     0.012 C 
BRANCH  45  47
HETATM   47  C28 UNL     1      19.217 -10.710   7.338  1.00  0.00     0.002 C 
HETATM   48  C29 UNL     1      19.103 -11.589   8.564  1.00  0.00     0.005 C 
ENDBRANCH  45  47
ENDBRANCH  17  45
BRANCH  12  49
HETATM   49  C20 UNL     1      14.434 -10.922   6.778  1.00  0.00     0.038 C 
BRANCH  49  50
HETATM   50  C21 UNL     1      14.530 -12.382   6.582  1.00  0.00    -0.020 C 
HETATM   51  C22 UNL     1      15.862 -12.811   7.253  1.00  0.00     0.009 C 
HETATM   52  C23 UNL     1      13.449 -13.182   7.240  1.00  0.00     0.009 C 
ENDBRANCH  49  50
ENDBRANCH  12  49
TORSDOF 13
ENDMDL
MODEL 4
REMARK VINA RESULT: -6.540693823      0.972      1.180
REMARK  13 active torsions:
REMARK  status: ('A' for Active; 'I' for Inactive)
REMARK    1  A    between atoms: C2_2  and  C3_3 
REMARK    2  A    between atoms: C2_2  and  C31_46 
REMARK    3  A    between atoms: C4_4  and  C5_5 
REMARK    4  A    between atoms: N1_8  and  C8_9 
REMARK    5  A    between atoms: C8_9  and  C9_10 
REMARK    6  A    between atoms: C9_10  and  C10_12 
REMARK    7  A    between atoms: C10_12  and  C11_13 
REMARK    8  A    between atoms: C14_17  and  C15_18 
REMARK    9  A    between atoms: C19_25  and  C20_26 
REMARK   10  A    between atoms: C20_26  and  C21_27 
REMARK   11  A    between atoms: C25_34  and  C26_35 
REMARK   12  A    between atoms: C26_35  and  C28_37 
REMARK   13  A    between atoms: C30_41  and  O5_42 
REMARK       I    between atoms: C31_46  and  N6_48 
ROOT
HETATM    1  C5  UNL     1      17.226  -3.633   3.387  1.00  0.00     0.091 C 
HETATM    2  C6  UNL     1      17.387  -4.878   3.936  1.00  0.00     0.038 C 
HETATM    3  C7  UNL     1      17.207  -5.971   2.981  1.00  0.00     0.183 C 
HETATM    4  N1  UNL     1      15.882  -6.158   2.393  1.00  0.00    -0.338 N 
HETATM    5  C13 UNL     1      14.708  -6.358   3.151  1.00  0.00     0.243 C 
HETATM    6  O2  UNL     1      13.635  -5.730   2.842  1.00  0.00    -0.271 OA
HETATM    7  C14 UNL     1      14.605  -7.286   4.337  1.00  0.00     0.180 C 
HETATM    8  N2  UNL     1      14.880  -8.642   3.928  1.00  0.00    -0.346 N 
ATOM      9  H2  UNL     1      14.360  -8.956   3.108  1.00  0.00     0.163 HD
HETATM   10  C18 UNL     1      15.744  -9.595   4.472  1.00  0.00     0.241 C 
HETATM   11  O3  UNL     1      16.579 -10.130   3.656  1.00  0.00    -0.271 OA
HETATM   12  C19 UNL     1      15.771 -10.043   5.904  1.00  0.00     0.177 C 
HETATM   13  N3  UNL     1      15.872  -8.997   6.864  1.00  0.00    -0.346 N 
ATOM     14  H3  UNL     1      15.049  -8.813   7.437  1.00  0.00     0.163 HD
HETATM   15  C24 UNL     1      17.025  -8.179   7.098  1.00  0.00     0.241 C 
HETATM   16  O4  UNL     1      16.894  -7.267   7.976  1.00  0.00    -0.271 OA
HETATM   17  C25 UNL     1      18.311  -8.292   6.435  1.00  0.00     0.181 C 
HETATM   18  N4  UNL     1      18.959  -7.091   6.000  1.00  0.00    -0.343 N 
ATOM     19  H4  UNL     1      19.865  -7.258   5.562  1.00  0.00     0.164 HD
HETATM   20  C30 UNL     1      18.611  -5.744   6.051  1.00  0.00     0.217 C 
HETATM   21  N5  UNL     1      17.665  -4.994   5.325  1.00  0.00    -0.324 N 
ATOM     22  H5  UNL     1      17.060  -4.421   5.912  1.00  0.00     0.169 HD
ENDROOT
BRANCH   1  23
HETATM   23  C4  UNL     1      17.354  -2.458   4.116  1.00  0.00    -0.071 C 
HETATM   24  C3  UNL     1      17.485  -1.523   4.806  1.00  0.00    -0.057 C 
BRANCH  24  25
HETATM   25  C2  UNL     1      17.644  -0.354   5.654  1.00  0.00     0.076 C 
HETATM   26  C1  UNL     1      18.275   0.679   4.997  1.00  0.00     0.039 C 
BRANCH  25  27
HETATM   27  C31 UNL     1      17.531  -0.235   7.094  1.00  0.00     0.265 C 
HETATM   28  O6  UNL     1      17.238  -1.107   7.906  1.00  0.00    -0.267 OA
HETATM   29  N6  UNL     1      17.817   1.107   7.595  1.00  0.00    -0.299 N 
HETATM   30  C32 UNL     1      18.636   1.217   8.614  1.00  0.00     0.203 C 
ATOM     31  H6  UNL     1      17.395   1.931   7.167  1.00  0.00     0.171 HD
HETATM   32  N7  UNL     1      18.946   2.486   9.133  1.00  0.00    -0.066 NA
HETATM   33  N8  UNL     1      19.192   0.059   9.202  1.00  0.00    -0.066 NA
ENDBRANCH  25  27
ENDBRANCH  24  25
ENDBRANCH   1  23
BRANCH   4  34
HETATM   34  C8  UNL     1      15.767  -6.235   0.930  1.00  0.00     0.204 C 
BRANCH  34  35
HETATM   35  C9  UNL     1      15.887  -4.974   0.204  1.00  0.00     0.144 C 
HETATM   36  O1  UNL     1      15.340  -3.920   0.430  1.00  0.00    -0.296 OA
BRANCH  35  37
HETATM   37  C10 UNL     1      16.814  -4.938  -1.003  1.00  0.00     0.079 C 
BRANCH  37  38
HETATM   38  C11 UNL     1      17.961  -5.881  -0.862  1.00  0.00     0.003 C 
HETATM   39  C12 UNL     1      19.223  -5.281  -0.320  1.00  0.00     0.005 C 
ENDBRANCH  37  38
ENDBRANCH  35  37
ENDBRANCH  34  35
ENDBRANCH   4  34
BRANCH  20  40
HETATM   40  O5  UNL     1      19.336  -5.093   6.970  1.00  0.00    -0.333 OA
ATOM     41  H5  UNL     1      20.246  -5.363   6.941  1.00  0.00     0.220 HD
ENDBRANCH  20  40
BRANCH   7  42
HETATM   42  C15 UNL     1      13.225  -7.191   4.969  1.00  0.00     0.009 C 
HETATM   43  C16 UNL     1      13.231  -6.735   6.391  1.00  0.00     0.012 C 
HETATM   44  C17 UNL     1      12.414  -8.428   4.742  1.00  0.00     0.012 C 
ENDBRANCH   7  42
BRANCH  17  45
HETATM   45  C26 UNL     1      19.230  -9.146   7.293  1.00  0.00     0.013 C 
HETATM   46  C27 UNL     1      20.605  -8.516   7.377  1.00  0.00     0.012 C 
BRANCH  45  47
HETATM   47  C28 UNL     1      19.343 -10.557   6.846  1.00  0.00     0.002 C 
HETATM   48  C29 UNL     1      18.615 -11.552   7.723  1.00  0.00     0.005 C 
ENDBRANCH  45  47
ENDBRANCH  17  45
BRANCH  12  49
HETATM   49  C20 UNL     1      14.597 -10.963   6.055  1.00  0.00     0.038 C 
BRANCH  49  50
HETATM   50  C21 UNL     1      14.113 -11.248   7.420  1.00  0.00    -0.020 C 
HETATM   51  C22 UNL     1      12.571 -11.083   7.365  1.00  0.00     0.009 C 
HETATM   52  C23 UNL     1      14.372 -12.640   7.906  1.00  0.00     0.009 C 
ENDBRANCH  49  50
ENDBRANCH  12  49
TORSDOF 13
ENDMDL
MODEL 5
REMARK VINA RESULT: -6.465116134      1.699      2.284
REMARK  13 active torsions:
REMARK  status: ('A' for Active; 'I' for Inactive)
REMARK    1  A    between atoms: C2_2  and  C3_3 
REMARK    2  A    between atoms: C2_2  and  C31_46 
REMARK    3  A    between atoms: C4_4  and  C5_5 
REMARK    4  A    between atoms: N1_8  and  C8_9 
REMARK    5  A    between atoms: C8_9  and  C9_10 
REMARK    6  A    between atoms: C9_10  and  C10_12 
REMARK    7  A    between atoms: C10_12  and  C11_13 
REMARK    8  A    between atoms: C14_17  and  C15_18 
REMARK    9  A    between atoms: C19_25  and  C20_26 
REMARK   10  A    between atoms: C20_26  and  C21_27 
REMARK   11  A    between atoms: C25_34  and  C26_35 
REMARK   12  A    between atoms: C26_35  and  C28_37 
REMARK   13  A    between atoms: C30_41  and  O5_42 
REMARK       I    between atoms: C31_46  and  N6_48 
ROOT
HETATM    1  C5  UNL     1      18.008  -2.443   4.936  1.00  0.00     0.091 C 
HETATM    2  C6  UNL     1      18.154  -3.789   5.144  1.00  0.00     0.038 C 
HETATM    3  C7  UNL     1      18.321  -4.562   3.914  1.00  0.00     0.183 C 
HETATM    4  N1  UNL     1      17.204  -4.604   2.972  1.00  0.00    -0.338 N 
HETATM    5  C13 UNL     1      15.907  -5.046   3.312  1.00  0.00     0.243 C 
HETATM    6  O2  UNL     1      14.884  -4.383   2.919  1.00  0.00    -0.271 OA
HETATM    7  C14 UNL     1      15.612  -6.281   4.128  1.00  0.00     0.180 C 
HETATM    8  N2  UNL     1      16.113  -7.452   3.450  1.00  0.00    -0.346 N 
ATOM      9  H2  UNL     1      15.841  -7.527   2.469  1.00  0.00     0.163 HD
HETATM   10  C18 UNL     1      16.910  -8.499   3.917  1.00  0.00     0.241 C 
HETATM   11  O3  UNL     1      17.967  -8.752   3.234  1.00  0.00    -0.271 OA
HETATM   12  C19 UNL     1      16.633  -9.344   5.127  1.00  0.00     0.177 C 
HETATM   13  N3  UNL     1      16.393  -8.619   6.329  1.00  0.00    -0.346 N 
ATOM     14  H3  UNL     1      15.441  -8.631   6.695  1.00  0.00     0.163 HD
HETATM   15  C24 UNL     1      17.367  -7.876   7.071  1.00  0.00     0.241 C 
HETATM   16  O4  UNL     1      16.936  -7.262   8.099  1.00  0.00    -0.271 OA
HETATM   17  C25 UNL     1      18.780  -7.758   6.762  1.00  0.00     0.181 C 
HETATM   18  N4  UNL     1      19.391  -6.466   6.859  1.00  0.00    -0.343 N 
ATOM     19  H4  UNL     1      20.388  -6.475   6.643  1.00  0.00     0.164 HD
HETATM   20  C30 UNL     1      18.908  -5.201   7.185  1.00  0.00     0.217 C 
HETATM   21  N5  UNL     1      18.097  -4.297   6.471  1.00  0.00    -0.324 N 
ATOM     22  H5  UNL     1      17.313  -3.935   7.013  1.00  0.00     0.169 HD
ENDROOT
BRANCH   1  23
HETATM   23  C4  UNL     1      17.837  -1.529   5.967  1.00  0.00    -0.071 C 
HETATM   24  C3  UNL     1      17.787  -0.748   6.836  1.00  0.00    -0.057 C 
BRANCH  24  25
HETATM   25  C2  UNL     1      17.714   0.222   7.916  1.00  0.00     0.076 C 
HETATM   26  C1  UNL     1      18.574   1.279   7.719  1.00  0.00     0.039 C 
BRANCH  25  27
HETATM   27  C31 UNL     1      17.140   0.088   9.240  1.00  0.00     0.265 C 
HETATM   28  O6  UNL     1      16.626  -0.904   9.748  1.00  0.00    -0.267 OA
HETATM   29  N6  UNL     1      17.211   1.312  10.035  1.00  0.00    -0.299 N 
HETATM   30  C32 UNL     1      17.655   1.215  11.266  1.00  0.00     0.203 C 
ATOM     31  H6  UNL     1      16.926   2.211   9.647  1.00  0.00     0.171 HD
HETATM   32  N7  UNL     1      17.745   2.363  12.073  1.00  0.00    -0.066 NA
HETATM   33  N8  UNL     1      18.025  -0.045  11.787  1.00  0.00    -0.066 NA
ENDBRANCH  25  27
ENDBRANCH  24  25
ENDBRANCH   1  23
BRANCH   4  34
HETATM   34  C8  UNL     1      17.456  -4.255   1.567  1.00  0.00     0.204 C 
BRANCH  34  35
HETATM   35  C9  UNL     1      17.385  -5.350   0.605  1.00  0.00     0.144 C 
HETATM   36  O1  UNL     1      17.818  -6.473   0.709  1.00  0.00    -0.296 OA
BRANCH  35  37
HETATM   37  C10 UNL     1      16.678  -5.085  -0.717  1.00  0.00     0.079 C 
BRANCH  37  38
HETATM   38  C11 UNL     1      15.210  -4.884  -0.542  1.00  0.00     0.003 C 
HETATM   39  C12 UNL     1      14.437  -6.106  -0.147  1.00  0.00     0.005 C 
ENDBRANCH  37  38
ENDBRANCH  35  37
ENDBRANCH  34  35
ENDBRANCH   4  34
BRANCH  20  40
HETATM   40  O5  UNL     1      19.319  -4.827   8.402  1.00  0.00    -0.333 OA
ATOM     41  H5  UNL     1      18.787  -5.225   9.081  1.00  0.00     0.220 HD
ENDBRANCH  20  40
BRANCH   7  42
HETATM   42  C15 UNL     1      14.118  -6.409   4.379  1.00  0.00     0.009 C 
HETATM   43  C16 UNL     1      13.757  -6.714   5.795  1.00  0.00     0.012 C 
HETATM   44  C17 UNL     1      13.456  -7.313   3.386  1.00  0.00     0.012 C 
ENDBRANCH   7  42
BRANCH  17  45
HETATM   45  C26 UNL     1      19.544  -8.800   7.562  1.00  0.00     0.013 C 
HETATM   46  C27 UNL     1      20.956  -8.323   7.833  1.00  0.00     0.012 C 
BRANCH  45  47
HETATM   47  C28 UNL     1      19.572 -10.146   6.937  1.00  0.00     0.002 C 
HETATM   48  C29 UNL     1      18.792 -11.202   7.690  1.00  0.00     0.005 C 
ENDBRANCH  45  47
ENDBRANCH  17  45
BRANCH  12  49
HETATM   49  C20 UNL     1      15.555 -10.298   4.707  1.00  0.00     0.038 C 
BRANCH  49  50
HETATM   50  C21 UNL     1      14.435 -10.527   5.640  1.00  0.00    -0.020 C 
HETATM   51  C22 UNL     1      13.188 -10.777   4.750  1.00  0.00     0.009 C 
HETATM   52  C23 UNL     1      14.576 -11.733   6.516  1.00  0.00     0.009 C 
ENDBRANCH  49  50
ENDBRANCH  12  49
TORSDOF 13
ENDMDL
