MODEL 1
REMARK VINA RESULT: -8.460907851      0.000      0.000
REMARK  18 active torsions:
REMARK  status: ('A' for Active; 'I' for Inactive)
REMARK    1  A    between atoms: C1_4  and  C2_5 
REMARK    2  A    between atoms: C1_4  and  N8_38 
REMARK    3  A    between atoms: C2_5  and  C3_6 
REMARK    4  A    between atoms: C6_12  and  N3_13 
REMARK       I    between atoms: N3_13  and  C7_15 
REMARK    5  A    between atoms: C7_15  and  C8_17 
REMARK    6  A    between atoms: C8_17  and  C9_18 
REMARK    7  A    between atoms: C9_18  and  C10_19 
REMARK    8  A    between atoms: C10_19  and  C11_20 
REMARK    9  A    between atoms: C11_20  and  C12_21 
REMARK   10  A    between atoms: C12_21  and  N4_22 
REMARK   11  A    between atoms: C14_27  and  C15_28 
REMARK   12  A    between atoms: C15_28  and  C16_29 
REMARK   13  A    between atoms: C16_29  and  C17_30 
REMARK   14  A    between atoms: C17_30  and  C18_31 
REMARK   15  A    between atoms: C18_31  and  C19_32 
REMARK   16  A    between atoms: C19_32  and  C20_33 
REMARK   17  A    between atoms: C20_33  and  N7_34 
REMARK       I    between atoms: N9_41  and  C23_42 
REMARK   18  A    between atoms: C23_42  and  C24_44 
ROOT
HETATM    1  C3  UNL     1       3.937  12.303  40.786  1.00  0.00     0.012 C 
HETATM    2  C4  UNL     1       4.921  11.212  40.925  1.00  0.00     0.109 C 
HETATM    3  C5  UNL     1       4.516  10.455  42.169  1.00  0.00     0.223 C 
HETATM    4  O1  UNL     1       5.397   9.761  42.736  1.00  0.00    -0.273 OA
HETATM    5  N2  UNL     1       3.188  10.555  42.637  1.00  0.00    -0.316 N 
ATOM      6  H2  UNL     1       2.973  10.164  43.553  1.00  0.00     0.170 HD
HETATM    7  C6  UNL     1       2.207  11.124  41.959  1.00  0.00     0.090 C 
HETATM    8  C14 UNL     1       2.552  11.713  40.619  1.00  0.00     0.058 C 
ENDROOT
BRANCH   1   9
HETATM    9  C2  UNL     1       4.248  13.471  39.950  1.00  0.00     0.081 C 
BRANCH   9  10
HETATM   10  C1  UNL     1       5.667  13.567  39.577  1.00  0.00     0.073 C 
HETATM   11  N1  UNL     1       6.544  14.049  40.457  1.00  0.00    -0.389 N 
ATOM     12  H12 UNL     1       6.107  14.314  41.340  1.00  0.00     0.157 HD
ATOM     13  H11 UNL     1       7.528  14.116  40.198  1.00  0.00     0.157 HD
BRANCH  10  14
HETATM   14  N8  UNL     1       6.271  13.201  38.356  1.00  0.00    -0.368 N 
HETATM   15  C21 UNL     1       7.542  12.440  38.387  1.00  0.00     0.144 C 
HETATM   16  C22 UNL     1       7.690  11.714  37.055  1.00  0.00     0.145 C 
HETATM   17  N9  UNL     1       7.827  12.749  36.063  1.00  0.00    -0.347 N 
HETATM   18  C23 UNL     1       8.846  12.709  35.081  1.00  0.00     0.250 C 
HETATM   19  C28 UNL     1       6.886  13.858  36.100  1.00  0.00     0.145 C 
HETATM   20  O3  UNL     1       8.900  13.626  34.194  1.00  0.00    -0.271 OA
HETATM   21  C29 UNL     1       5.748  13.532  37.052  1.00  0.00     0.144 C 
BRANCH  18  22
HETATM   22  C24 UNL     1       9.843  11.619  35.069  1.00  0.00     0.277 C 
HETATM   23  C25 UNL     1      10.984  11.990  34.138  1.00  0.00     0.044 C 
HETATM   24  C26 UNL     1      10.457  11.583  32.782  1.00  0.00     0.030 C 
HETATM   25  C27 UNL     1       9.476  10.491  33.050  1.00  0.00     0.233 C 
HETATM   26  N10 UNL     1       9.241  10.452  34.457  1.00  0.00    -0.062 N 
ATOM     27 2H10 UNL     1       9.563   9.582  34.880  1.00  0.00     0.278 HD
ATOM     28 1H10 UNL     1       8.250  10.362  34.682  1.00  0.00     0.278 HD
ENDBRANCH  18  22
ENDBRANCH  10  14
ENDBRANCH   9  10
ENDBRANCH   1   9
BRANCH   8  29
HETATM   29  C15 UNL     1       2.421  10.617  39.637  1.00  0.00     0.013 C 
BRANCH  29  30
HETATM   30  C16 UNL     1       1.755  10.928  38.342  1.00  0.00     0.001 C 
BRANCH  30  31
HETATM   31  C17 UNL     1       2.801  11.537  37.355  1.00  0.00     0.000 C 
BRANCH  31  32
HETATM   32  C18 UNL     1       2.222  12.826  36.862  1.00  0.00     0.002 C 
BRANCH  32  33
HETATM   33  C19 UNL     1       2.389  13.178  35.446  1.00  0.00     0.027 C 
BRANCH  33  34
HETATM   34  C20 UNL     1       2.814  14.562  35.106  1.00  0.00     0.229 C 
BRANCH  34  35
HETATM   35  N7  UNL     1       3.886  14.655  34.174  1.00  0.00    -0.079 N 
ATOM     36  H73 UNL     1       3.860  13.865  33.529  1.00  0.00     0.274 HD
ATOM     37  H72 UNL     1       3.718  15.422  33.523  1.00  0.00     0.274 HD
ATOM     38  H71 UNL     1       4.814  14.741  34.586  1.00  0.00     0.274 HD
ENDBRANCH  34  35
ENDBRANCH  33  34
ENDBRANCH  32  33
ENDBRANCH  31  32
ENDBRANCH  30  31
ENDBRANCH  29  30
ENDBRANCH   8  29
BRANCH   7  39
HETATM   39  N3  UNL     1       0.950  11.137  42.566  1.00  0.00    -0.316 N 
HETATM   40  C7  UNL     1      -0.093  10.207  42.493  1.00  0.00     0.223 C 
HETATM   41  O2  UNL     1      -0.032   9.168  41.834  1.00  0.00    -0.273 OA
ATOM     42  H3  UNL     1       0.763  11.950  43.153  1.00  0.00     0.170 HD
BRANCH  40  43
HETATM   43  C8  UNL     1      -1.374  10.453  43.247  1.00  0.00     0.103 C 
BRANCH  43  44
HETATM   44  C9  UNL     1      -1.711   9.282  44.105  1.00  0.00     0.009 C 
BRANCH  44  45
HETATM   45  C10 UNL     1      -0.632   8.932  45.079  1.00  0.00     0.002 C 
BRANCH  45  46
HETATM   46  C11 UNL     1      -0.636   7.473  45.497  1.00  0.00     0.020 C 
BRANCH  46  47
HETATM   47  C12 UNL     1       0.793   6.968  45.536  1.00  0.00     0.122 C 
BRANCH  47  48
HETATM   48  N4  UNL     1       1.698   7.947  46.060  1.00  0.00    -0.367 N 
HETATM   49  C13 UNL     1       2.791   8.346  45.544  1.00  0.00     0.196 C 
HETATM   50  N5  UNL     1       3.553   9.330  46.221  1.00  0.00    -0.067 NA
HETATM   51  N6  UNL     1       3.218   7.801  44.308  1.00  0.00    -0.067 NA
ATOM     52  H4  UNL     1       1.437   8.374  46.949  1.00  0.00     0.161 HD
ENDBRANCH  47  48
ENDBRANCH  46  47
ENDBRANCH  45  46
ENDBRANCH  44  45
ENDBRANCH  43  44
ENDBRANCH  40  43
ENDBRANCH   7  39
TORSDOF 18
ENDMDL
MODEL 2
REMARK VINA RESULT: -8.441597508      2.911     11.217
REMARK  18 active torsions:
REMARK  status: ('A' for Active; 'I' for Inactive)
REMARK    1  A    between atoms: C1_4  and  C2_5 
REMARK    2  A    between atoms: C1_4  and  N8_38 
REMARK    3  A    between atoms: C2_5  and  C3_6 
REMARK    4  A    between atoms: C6_12  and  N3_13 
REMARK       I    between atoms: N3_13  and  C7_15 
REMARK    5  A    between atoms: C7_15  and  C8_17 
REMARK    6  A    between atoms: C8_17  and  C9_18 
REMARK    7  A    between atoms: C9_18  and  C10_19 
REMARK    8  A    between atoms: C10_19  and  C11_20 
REMARK    9  A    between atoms: C11_20  and  C12_21 
REMARK   10  A    between atoms: C12_21  and  N4_22 
REMARK   11  A    between atoms: C14_27  and  C15_28 
REMARK   12  A    between atoms: C15_28  and  C16_29 
REMARK   13  A    between atoms: C16_29  and  C17_30 
REMARK   14  A    between atoms: C17_30  and  C18_31 
REMARK   15  A    between atoms: C18_31  and  C19_32 
REMARK   16  A    between atoms: C19_32  and  C20_33 
REMARK   17  A    between atoms: C20_33  and  N7_34 
REMARK       I    between atoms: N9_41  and  C23_42 
REMARK   18  A    between atoms: C23_42  and  C24_44 
ROOT
HETATM    1  C3  UNL     1       2.533  10.889  41.621  1.00  0.00     0.012 C 
HETATM    2  C4  UNL     1       2.416   9.730  40.714  1.00  0.00     0.109 C 
HETATM    3  C5  UNL     1       3.033  10.173  39.407  1.00  0.00     0.223 C 
HETATM    4  O1  UNL     1       2.698   9.549  38.369  1.00  0.00    -0.273 OA
HETATM    5  N2  UNL     1       3.946  11.249  39.404  1.00  0.00    -0.316 N 
ATOM      6  H2  UNL     1       4.234  11.630  38.502  1.00  0.00     0.170 HD
HETATM    7  C6  UNL     1       4.450  11.794  40.496  1.00  0.00     0.090 C 
HETATM    8  C14 UNL     1       3.997  11.231  41.814  1.00  0.00     0.058 C 
ENDROOT
BRANCH   1   9
HETATM    9  C2  UNL     1       1.684  10.975  42.817  1.00  0.00     0.081 C 
BRANCH   9  10
HETATM   10  C1  UNL     1       0.244  10.962  42.519  1.00  0.00     0.073 C 
HETATM   11  N1  UNL     1      -0.239  11.793  41.595  1.00  0.00    -0.389 N 
ATOM     12  H12 UNL     1       0.485  12.376  41.176  1.00  0.00     0.157 HD
ATOM     13  H11 UNL     1      -1.238  11.784  41.389  1.00  0.00     0.157 HD
BRANCH  10  14
HETATM   14  N8  UNL     1      -0.756  10.155  43.099  1.00  0.00    -0.368 N 
HETATM   15  C21 UNL     1      -1.019   8.817  42.521  1.00  0.00     0.144 C 
HETATM   16  C22 UNL     1      -1.691   7.964  43.590  1.00  0.00     0.145 C 
HETATM   17  N9  UNL     1      -2.964   8.587  43.839  1.00  0.00    -0.347 N 
HETATM   18  C23 UNL     1      -4.165   7.839  43.879  1.00  0.00     0.250 C 
HETATM   19  C28 UNL     1      -2.991  10.028  44.041  1.00  0.00     0.145 C 
HETATM   20  O3  UNL     1      -5.265   8.429  44.148  1.00  0.00    -0.271 OA
HETATM   21  C29 UNL     1      -1.574  10.545  44.222  1.00  0.00     0.144 C 
BRANCH  18  22
HETATM   22  C24 UNL     1      -4.160   6.385  43.617  1.00  0.00     0.277 C 
HETATM   23  C25 UNL     1      -3.963   6.141  42.131  1.00  0.00     0.044 C 
HETATM   24  C26 UNL     1      -5.362   6.280  41.579  1.00  0.00     0.030 C 
HETATM   25  C27 UNL     1      -6.271   5.931  42.711  1.00  0.00     0.233 C 
HETATM   26  N10 UNL     1      -5.482   5.863  43.898  1.00  0.00    -0.062 N 
ATOM     27 2H10 UNL     1      -5.453   4.923  44.292  1.00  0.00     0.278 HD
ATOM     28 1H10 UNL     1      -5.926   6.334  44.686  1.00  0.00     0.278 HD
ENDBRANCH  18  22
ENDBRANCH  10  14
ENDBRANCH   9  10
ENDBRANCH   1   9
BRANCH   8  29
HETATM   29  C15 UNL     1       4.897  10.100  42.117  1.00  0.00     0.013 C 
BRANCH  29  30
HETATM   30  C16 UNL     1       4.924   9.595  43.517  1.00  0.00     0.001 C 
BRANCH  30  31
HETATM   31  C17 UNL     1       4.663   8.055  43.518  1.00  0.00     0.000 C 
BRANCH  31  32
HETATM   32  C18 UNL     1       3.258   7.861  43.995  1.00  0.00     0.002 C 
BRANCH  32  33
HETATM   33  C19 UNL     1       2.885   8.382  45.317  1.00  0.00     0.027 C 
BRANCH  33  34
HETATM   34  C20 UNL     1       1.441   8.472  45.660  1.00  0.00     0.229 C 
BRANCH  34  35
HETATM   35  N7  UNL     1       0.959   7.450  46.527  1.00  0.00    -0.079 N 
ATOM     36  H73 UNL     1       1.719   6.820  46.784  1.00  0.00     0.274 HD
ATOM     37  H72 UNL     1       0.736   7.843  47.441  1.00  0.00     0.274 HD
ATOM     38  H71 UNL     1       0.167   6.916  46.171  1.00  0.00     0.274 HD
ENDBRANCH  34  35
ENDBRANCH  33  34
ENDBRANCH  32  33
ENDBRANCH  31  32
ENDBRANCH  30  31
ENDBRANCH  29  30
ENDBRANCH   8  29
BRANCH   7  39
HETATM   39  N3  UNL     1       5.344  12.851  40.316  1.00  0.00    -0.316 N 
HETATM   40  C7  UNL     1       6.563  12.892  39.631  1.00  0.00     0.223 C 
HETATM   41  O2  UNL     1       7.045  11.921  39.045  1.00  0.00    -0.273 OA
ATOM     42  H3  UNL     1       5.065  13.730  40.751  1.00  0.00     0.170 HD
BRANCH  40  43
HETATM   43  C8  UNL     1       7.358  14.171  39.584  1.00  0.00     0.103 C 
BRANCH  43  44
HETATM   44  C9  UNL     1       8.257  14.186  38.395  1.00  0.00     0.009 C 
BRANCH  44  45
HETATM   45  C10 UNL     1       7.664  14.886  37.214  1.00  0.00     0.002 C 
BRANCH  45  46
HETATM   46  C11 UNL     1       7.089  13.945  36.173  1.00  0.00     0.020 C 
BRANCH  46  47
HETATM   47  C12 UNL     1       5.724  14.453  35.749  1.00  0.00     0.122 C 
BRANCH  47  48
HETATM   48  N4  UNL     1       4.847  14.640  36.867  1.00  0.00    -0.367 N 
HETATM   49  C13 UNL     1       3.875  13.899  37.220  1.00  0.00     0.196 C 
HETATM   50  N5  UNL     1       3.118  14.255  38.364  1.00  0.00    -0.067 NA
HETATM   51  N6  UNL     1       3.572  12.738  36.466  1.00  0.00    -0.067 NA
ATOM     52  H4  UNL     1       5.022  15.462  37.446  1.00  0.00     0.161 HD
ENDBRANCH  47  48
ENDBRANCH  46  47
ENDBRANCH  45  46
ENDBRANCH  44  45
ENDBRANCH  43  44
ENDBRANCH  40  43
ENDBRANCH   7  39
TORSDOF 18
ENDMDL
MODEL 3
REMARK VINA RESULT: -8.246189619      4.066      8.665
REMARK  18 active torsions:
REMARK  status: ('A' for Active; 'I' for Inactive)
REMARK    1  A    between atoms: C1_4  and  C2_5 
REMARK    2  A    between atoms: C1_4  and  N8_38 
REMARK    3  A    between atoms: C2_5  and  C3_6 
REMARK    4  A    between atoms: C6_12  and  N3_13 
REMARK       I    between atoms: N3_13  and  C7_15 
REMARK    5  A    between atoms: C7_15  and  C8_17 
REMARK    6  A    between atoms: C8_17  and  C9_18 
REMARK    7  A    between atoms: C9_18  and  C10_19 
REMARK    8  A    between atoms: C10_19  and  C11_20 
REMARK    9  A    between atoms: C11_20  and  C12_21 
REMARK   10  A    between atoms: C12_21  and  N4_22 
REMARK   11  A    between atoms: C14_27  and  C15_28 
REMARK   12  A    between atoms: C15_28  and  C16_29 
REMARK   13  A    between atoms: C16_29  and  C17_30 
REMARK   14  A    between atoms: C17_30  and  C18_31 
REMARK   15  A    between atoms: C18_31  and  C19_32 
REMARK   16  A    between atoms: C19_32  and  C20_33 
REMARK   17  A    between atoms: C20_33  and  N7_34 
REMARK       I    between atoms: N9_41  and  C23_42 
REMARK   18  A    between atoms: C23_42  and  C24_44 
ROOT
HETATM    1  C3  UNL     1       8.792  13.155  36.479  1.00  0.00     0.012 C 
HETATM    2  C4  UNL     1       9.145  14.445  37.105  1.00  0.00     0.109 C 
HETATM    3  C5  UNL     1       7.951  15.344  36.885  1.00  0.00     0.223 C 
HETATM    4  O1  UNL     1       8.143  16.584  36.941  1.00  0.00    -0.273 OA
HETATM    5  N2  UNL     1       6.689  14.766  36.628  1.00  0.00    -0.316 N 
ATOM      6  H2  UNL     1       5.931  15.382  36.334  1.00  0.00     0.170 HD
HETATM    7  C6  UNL     1       6.430  13.477  36.747  1.00  0.00     0.090 C 
HETATM    8  C14 UNL     1       7.566  12.584  37.162  1.00  0.00     0.058 C 
ENDROOT
BRANCH   1   9
HETATM    9  C2  UNL     1       9.848  12.193  36.133  1.00  0.00     0.081 C 
BRANCH   9  10
HETATM   10  C1  UNL     1       9.692  11.605  34.794  1.00  0.00     0.073 C 
HETATM   11  N1  UNL     1       8.936  10.517  34.643  1.00  0.00    -0.389 N 
ATOM     12  H12 UNL     1       8.529  10.198  35.522  1.00  0.00     0.157 HD
ATOM     13  H11 UNL     1       8.828  10.109  33.715  1.00  0.00     0.157 HD
BRANCH  10  14
HETATM   14  N8  UNL     1      10.255  12.046  33.579  1.00  0.00    -0.368 N 
HETATM   15  C21 UNL     1       9.376  12.694  32.578  1.00  0.00     0.144 C 
HETATM   16  C22 UNL     1      10.249  13.542  31.661  1.00  0.00     0.145 C 
HETATM   17  N9  UNL     1      11.093  12.610  30.960  1.00  0.00    -0.347 N 
HETATM   18  C23 UNL     1      11.264  12.671  29.556  1.00  0.00     0.250 C 
HETATM   19  C28 UNL     1      11.769  11.583  31.738  1.00  0.00     0.145 C 
HETATM   20  O3  UNL     1      12.059  11.851  28.983  1.00  0.00    -0.271 OA
HETATM   21  C29 UNL     1      11.645  11.898  33.218  1.00  0.00     0.144 C 
BRANCH  18  22
HETATM   22  C24 UNL     1      10.538  13.671  28.747  1.00  0.00     0.277 C 
HETATM   23  C25 UNL     1       9.192  13.103  28.333  1.00  0.00     0.044 C 
HETATM   24  C26 UNL     1       9.533  12.292  27.105  1.00  0.00     0.030 C 
HETATM   25  C27 UNL     1      10.758  12.929  26.537  1.00  0.00     0.233 C 
HETATM   26  N10 UNL     1      11.252  13.858  27.500  1.00  0.00    -0.062 N 
ATOM     27 2H10 UNL     1      11.208  14.822  27.168  1.00  0.00     0.278 HD
ATOM     28 1H10 UNL     1      12.263  13.794  27.618  1.00  0.00     0.278 HD
ENDBRANCH  18  22
ENDBRANCH  10  14
ENDBRANCH   9  10
ENDBRANCH   1   9
BRANCH   8  29
HETATM   29  C15 UNL     1       7.580  12.586  38.639  1.00  0.00     0.013 C 
BRANCH  29  30
HETATM   30  C16 UNL     1       6.270  12.679  39.340  1.00  0.00     0.001 C 
BRANCH  30  31
HETATM   31  C17 UNL     1       5.708  11.242  39.581  1.00  0.00     0.000 C 
BRANCH  31  32
HETATM   32  C18 UNL     1       4.236  11.392  39.808  1.00  0.00     0.002 C 
BRANCH  32  33
HETATM   33  C19 UNL     1       3.771  11.897  41.106  1.00  0.00     0.027 C 
BRANCH  33  34
HETATM   34  C20 UNL     1       2.799  13.022  41.121  1.00  0.00     0.229 C 
BRANCH  34  35
HETATM   35  N7  UNL     1       3.302  14.264  40.639  1.00  0.00    -0.079 N 
ATOM     36  H73 UNL     1       4.311  14.205  40.502  1.00  0.00     0.274 HD
ATOM     37  H72 UNL     1       3.000  14.415  39.677  1.00  0.00     0.274 HD
ATOM     38  H71 UNL     1       3.073  15.076  41.211  1.00  0.00     0.274 HD
ENDBRANCH  34  35
ENDBRANCH  33  34
ENDBRANCH  32  33
ENDBRANCH  31  32
ENDBRANCH  30  31
ENDBRANCH  29  30
ENDBRANCH   8  29
BRANCH   7  39
HETATM   39  N3  UNL     1       5.126  13.070  36.457  1.00  0.00    -0.316 N 
HETATM   40  C7  UNL     1       3.904  13.559  36.932  1.00  0.00     0.223 C 
HETATM   41  O2  UNL     1       3.811  14.494  37.729  1.00  0.00    -0.273 OA
ATOM     42  H3  UNL     1       5.053  12.295  35.798  1.00  0.00     0.170 HD
BRANCH  40  43
HETATM   43  C8  UNL     1       2.613  12.938  36.467  1.00  0.00     0.103 C 
BRANCH  43  44
HETATM   44  C9  UNL     1       1.918  13.836  35.500  1.00  0.00     0.009 C 
BRANCH  44  45
HETATM   45  C10 UNL     1       2.766  14.214  34.329  1.00  0.00     0.002 C 
BRANCH  45  46
HETATM   46  C11 UNL     1       2.973  15.710  34.183  1.00  0.00     0.020 C 
BRANCH  46  47
HETATM   47  C12 UNL     1       4.453  15.988  34.011  1.00  0.00     0.122 C 
BRANCH  47  48
HETATM   48  N4  UNL     1       4.958  15.479  32.770  1.00  0.00    -0.367 N 
HETATM   49  C13 UNL     1       6.135  15.064  32.525  1.00  0.00     0.196 C 
HETATM   50  N5  UNL     1       6.443  14.595  31.223  1.00  0.00    -0.067 NA
HETATM   51  N6  UNL     1       7.108  15.076  33.556  1.00  0.00    -0.067 NA
ATOM     52  H4  UNL     1       4.298  15.446  31.993  1.00  0.00     0.161 HD
ENDBRANCH  47  48
ENDBRANCH  46  47
ENDBRANCH  45  46
ENDBRANCH  44  45
ENDBRANCH  43  44
ENDBRANCH  40  43
ENDBRANCH   7  39
TORSDOF 18
ENDMDL
MODEL 4
REMARK VINA RESULT: -8.042734328      1.338      1.768
REMARK  18 active torsions:
REMARK  status: ('A' for Active; 'I' for Inactive)
REMARK    1  A    between atoms: C1_4  and  C2_5 
REMARK    2  A    between atoms: C1_4  and  N8_38 
REMARK    3  A    between atoms: C2_5  and  C3_6 
REMARK    4  A    between atoms: C6_12  and  N3_13 
REMARK       I    between atoms: N3_13  and  C7_15 
REMARK    5  A    between atoms: C7_15  and  C8_17 
REMARK    6  A    between atoms: C8_17  and  C9_18 
REMARK    7  A    between atoms: C9_18  and  C10_19 
REMARK    8  A    between atoms: C10_19  and  C11_20 
REMARK    9  A    between atoms: C11_20  and  C12_21 
REMARK   10  A    between atoms: C12_21  and  N4_22 
REMARK   11  A    between atoms: C14_27  and  C15_28 
REMARK   12  A    between atoms: C15_28  and  C16_29 
REMARK   13  A    between atoms: C16_29  and  C17_30 
REMARK   14  A    between atoms: C17_30  and  C18_31 
REMARK   15  A    between atoms: C18_31  and  C19_32 
REMARK   16  A    between atoms: C19_32  and  C20_33 
REMARK   17  A    between atoms: C20_33  and  N7_34 
REMARK       I    between atoms: N9_41  and  C23_42 
REMARK   18  A    between atoms: C23_42  and  C24_44 
ROOT
HETATM    1  C3  UNL     1       3.830  12.341  40.628  1.00  0.00     0.012 C 
HETATM    2  C4  UNL     1       4.814  11.275  40.900  1.00  0.00     0.109 C 
HETATM    3  C5  UNL     1       4.268  10.509  42.082  1.00  0.00     0.223 C 
HETATM    4  O1  UNL     1       5.083   9.838  42.763  1.00  0.00    -0.273 OA
HETATM    5  N2  UNL     1       2.887  10.575  42.370  1.00  0.00    -0.316 N 
ATOM      6  H2  UNL     1       2.563  10.179  43.252  1.00  0.00     0.170 HD
HETATM    7  C6  UNL     1       1.991  11.119  41.568  1.00  0.00     0.090 C 
HETATM    8  C14 UNL     1       2.494  11.716  40.283  1.00  0.00     0.058 C 
ENDROOT
BRANCH   1   9
HETATM    9  C2  UNL     1       4.219  13.516  39.837  1.00  0.00     0.081 C 
BRANCH   9  10
HETATM   10  C1  UNL     1       5.651  13.553  39.502  1.00  0.00     0.073 C 
HETATM   11  N1  UNL     1       6.526  13.963  40.419  1.00  0.00    -0.389 N 
ATOM     12  H12 UNL     1       6.079  14.221  41.299  1.00  0.00     0.157 HD
ATOM     13  H11 UNL     1       7.519  13.989  40.187  1.00  0.00     0.157 HD
BRANCH  10  14
HETATM   14  N8  UNL     1       6.268  13.197  38.285  1.00  0.00    -0.368 N 
HETATM   15  C21 UNL     1       7.568  12.488  38.324  1.00  0.00     0.144 C 
HETATM   16  C22 UNL     1       7.745  11.753  37.001  1.00  0.00     0.145 C 
HETATM   17  N9  UNL     1       7.840  12.780  35.997  1.00  0.00    -0.347 N 
HETATM   18  C23 UNL     1       8.859  12.768  35.015  1.00  0.00     0.250 C 
HETATM   19  C28 UNL     1       6.856  13.851  36.021  1.00  0.00     0.145 C 
HETATM   20  O3  UNL     1       8.876  13.676  34.116  1.00  0.00    -0.271 OA
HETATM   21  C29 UNL     1       5.732  13.492  36.978  1.00  0.00     0.144 C 
BRANCH  18  22
HETATM   22  C24 UNL     1       9.899  11.719  35.014  1.00  0.00     0.277 C 
HETATM   23  C25 UNL     1      10.940  12.041  33.956  1.00  0.00     0.044 C 
HETATM   24  C26 UNL     1      10.319  11.488  32.695  1.00  0.00     0.030 C 
HETATM   25  C27 UNL     1       9.413  10.391  33.148  1.00  0.00     0.233 C 
HETATM   26  N10 UNL     1       9.300  10.478  34.567  1.00  0.00    -0.062 N 
ATOM     27 2H10 UNL     1       9.694   9.664  35.038  1.00  0.00     0.278 HD
ATOM     28 1H10 UNL     1       8.336  10.375  34.887  1.00  0.00     0.278 HD
ENDBRANCH  18  22
ENDBRANCH  10  14
ENDBRANCH   9  10
ENDBRANCH   1   9
BRANCH   8  29
HETATM   29  C15 UNL     1       2.522  10.617  39.296  1.00  0.00     0.013 C 
BRANCH  29  30
HETATM   30  C16 UNL     1       2.840  10.966  37.884  1.00  0.00     0.001 C 
BRANCH  30  31
HETATM   31  C17 UNL     1       1.999  12.212  37.457  1.00  0.00     0.000 C 
BRANCH  31  32
HETATM   32  C18 UNL     1       2.609  12.724  36.190  1.00  0.00     0.002 C 
BRANCH  32  33
HETATM   33  C19 UNL     1       2.266  14.080  35.741  1.00  0.00     0.027 C 
BRANCH  33  34
HETATM   34  C20 UNL     1       3.046  14.674  34.623  1.00  0.00     0.229 C 
BRANCH  34  35
HETATM   35  N7  UNL     1       2.648  15.985  34.235  1.00  0.00    -0.079 N 
ATOM     36  H73 UNL     1       2.440  16.548  35.060  1.00  0.00     0.274 HD
ATOM     37  H72 UNL     1       3.447  16.499  33.864  1.00  0.00     0.274 HD
ATOM     38  H71 UNL     1       1.869  16.026  33.578  1.00  0.00     0.274 HD
ENDBRANCH  34  35
ENDBRANCH  33  34
ENDBRANCH  32  33
ENDBRANCH  31  32
ENDBRANCH  30  31
ENDBRANCH  29  30
ENDBRANCH   8  29
BRANCH   7  39
HETATM   39  N3  UNL     1       0.664  11.100  42.003  1.00  0.00    -0.316 N 
HETATM   40  C7  UNL     1       0.014  10.211  42.867  1.00  0.00     0.223 C 
HETATM   41  O2  UNL     1       0.575   9.254  43.404  1.00  0.00    -0.273 OA
ATOM     42  H3  UNL     1       0.079  11.849  41.634  1.00  0.00     0.170 HD
BRANCH  40  43
HETATM   43  C8  UNL     1      -1.447  10.402  43.182  1.00  0.00     0.103 C 
BRANCH  43  44
HETATM   44  C9  UNL     1      -1.811   9.682  44.436  1.00  0.00     0.009 C 
BRANCH  44  45
HETATM   45  C10 UNL     1      -2.857   8.633  44.234  1.00  0.00     0.002 C 
BRANCH  45  46
HETATM   46  C11 UNL     1      -2.763   7.929  42.893  1.00  0.00     0.020 C 
BRANCH  46  47
HETATM   47  C12 UNL     1      -2.175   6.547  43.103  1.00  0.00     0.122 C 
BRANCH  47  48
HETATM   48  N4  UNL     1      -1.025   6.573  43.958  1.00  0.00    -0.367 N 
HETATM   49  C13 UNL     1      -0.599   5.641  44.711  1.00  0.00     0.196 C 
HETATM   50  N5  UNL     1       0.567   5.861  45.487  1.00  0.00    -0.067 NA
HETATM   51  N6  UNL     1      -1.294   4.407  44.754  1.00  0.00    -0.067 NA
ATOM     52  H4  UNL     1      -0.486   7.440  43.963  1.00  0.00     0.161 HD
ENDBRANCH  47  48
ENDBRANCH  46  47
ENDBRANCH  45  46
ENDBRANCH  44  45
ENDBRANCH  43  44
ENDBRANCH  40  43
ENDBRANCH   7  39
TORSDOF 18
ENDMDL
MODEL 5
REMARK VINA RESULT: -8.003834521      4.190     11.514
REMARK  18 active torsions:
REMARK  status: ('A' for Active; 'I' for Inactive)
REMARK    1  A    between atoms: C1_4  and  C2_5 
REMARK    2  A    between atoms: C1_4  and  N8_38 
REMARK    3  A    between atoms: C2_5  and  C3_6 
REMARK    4  A    between atoms: C6_12  and  N3_13 
REMARK       I    between atoms: N3_13  and  C7_15 
REMARK    5  A    between atoms: C7_15  and  C8_17 
REMARK    6  A    between atoms: C8_17  and  C9_18 
REMARK    7  A    between atoms: C9_18  and  C10_19 
REMARK    8  A    between atoms: C10_19  and  C11_20 
REMARK    9  A    between atoms: C11_20  and  C12_21 
REMARK   10  A    between atoms: C12_21  and  N4_22 
REMARK   11  A    between atoms: C14_27  and  C15_28 
REMARK   12  A    between atoms: C15_28  and  C16_29 
REMARK   13  A    between atoms: C16_29  and  C17_30 
REMARK   14  A    between atoms: C17_30  and  C18_31 
REMARK   15  A    between atoms: C18_31  and  C19_32 
REMARK   16  A    between atoms: C19_32  and  C20_33 
REMARK   17  A    between atoms: C20_33  and  N7_34 
REMARK       I    between atoms: N9_41  and  C23_42 
REMARK   18  A    between atoms: C23_42  and  C24_44 
ROOT
HETATM    1  C3  UNL     1      -1.981   8.780  44.071  1.00  0.00     0.012 C 
HETATM    2  C4  UNL     1      -2.676  10.082  44.114  1.00  0.00     0.109 C 
HETATM    3  C5  UNL     1      -1.764  11.003  44.890  1.00  0.00     0.223 C 
HETATM    4  O1  UNL     1      -2.283  12.017  45.422  1.00  0.00    -0.273 OA
HETATM    5  N2  UNL     1      -0.390  10.696  44.987  1.00  0.00    -0.316 N 
ATOM      6  H2  UNL     1       0.178  11.241  45.635  1.00  0.00     0.170 HD
HETATM    7  C6  UNL     1       0.205   9.746  44.289  1.00  0.00     0.090 C 
HETATM    8  C14 UNL     1      -0.655   8.941  43.355  1.00  0.00     0.058 C 
ENDROOT
BRANCH   1   9
HETATM    9  C2  UNL     1      -2.734   7.554  43.772  1.00  0.00     0.081 C 
BRANCH   9  10
HETATM   10  C1  UNL     1      -2.038   6.322  44.171  1.00  0.00     0.073 C 
HETATM   11  N1  UNL     1      -1.636   5.465  43.233  1.00  0.00    -0.389 N 
ATOM     12  H12 UNL     1      -1.871   5.777  42.291  1.00  0.00     0.157 HD
ATOM     13  H11 UNL     1      -1.153   4.611  43.511  1.00  0.00     0.157 HD
BRANCH  10  14
HETATM   14  N8  UNL     1      -1.714   5.891  45.474  1.00  0.00    -0.368 N 
HETATM   15  C21 UNL     1      -0.300   5.584  45.794  1.00  0.00     0.144 C 
HETATM   16  C22 UNL     1      -0.125   5.685  47.305  1.00  0.00     0.145 C 
HETATM   17  N9  UNL     1      -0.935   4.632  47.860  1.00  0.00    -0.347 N 
HETATM   18  C23 UNL     1      -0.434   3.750  48.846  1.00  0.00     0.250 C 
HETATM   19  C28 UNL     1      -2.297   4.489  47.369  1.00  0.00     0.145 C 
HETATM   20  O3  UNL     1      -1.204   2.859  49.343  1.00  0.00    -0.271 OA
HETATM   21  C29 UNL     1      -2.672   5.702  46.537  1.00  0.00     0.144 C 
BRANCH  18  22
HETATM   22  C24 UNL     1       0.965   3.847  49.311  1.00  0.00     0.277 C 
HETATM   23  C25 UNL     1       1.355   2.558  50.011  1.00  0.00     0.044 C 
HETATM   24  C26 UNL     1       0.830   2.765  51.412  1.00  0.00     0.030 C 
HETATM   25  C27 UNL     1       0.808   4.244  51.613  1.00  0.00     0.233 C 
HETATM   26  N10 UNL     1       1.036   4.859  50.346  1.00  0.00    -0.062 N 
ATOM     27 2H10 UNL     1       1.912   5.380  50.320  1.00  0.00     0.278 HD
ATOM     28 1H10 UNL     1       0.401   5.637  50.173  1.00  0.00     0.278 HD
ENDBRANCH  18  22
ENDBRANCH  10  14
ENDBRANCH   9  10
ENDBRANCH   1   9
BRANCH   8  29
HETATM   29  C15 UNL     1      -0.689   9.681  42.077  1.00  0.00     0.013 C 
BRANCH  29  30
HETATM   30  C16 UNL     1       0.614  10.010  41.436  1.00  0.00     0.001 C 
BRANCH  30  31
HETATM   31  C17 UNL     1       0.591  11.494  40.948  1.00  0.00     0.000 C 
BRANCH  31  32
HETATM   32  C18 UNL     1       1.437  11.550  39.714  1.00  0.00     0.002 C 
BRANCH  32  33
HETATM   33  C19 UNL     1       2.238  12.756  39.464  1.00  0.00     0.027 C 
BRANCH  33  34
HETATM   34  C20 UNL     1       2.713  13.545  40.631  1.00  0.00     0.229 C 
BRANCH  34  35
HETATM   35  N7  UNL     1       3.605  14.611  40.319  1.00  0.00    -0.079 N 
ATOM     36  H73 UNL     1       3.812  14.614  39.320  1.00  0.00     0.274 HD
ATOM     37  H72 UNL     1       3.125  15.506  40.405  1.00  0.00     0.274 HD
ATOM     38  H71 UNL     1       4.471  14.624  40.857  1.00  0.00     0.274 HD
ENDBRANCH  34  35
ENDBRANCH  33  34
ENDBRANCH  32  33
ENDBRANCH  31  32
ENDBRANCH  30  31
ENDBRANCH  29  30
ENDBRANCH   8  29
BRANCH   7  39
HETATM   39  N3  UNL     1       1.574   9.574  44.502  1.00  0.00    -0.316 N 
HETATM   40  C7  UNL     1       2.251   9.003  45.586  1.00  0.00     0.223 C 
HETATM   41  O2  UNL     1       1.679   8.535  46.572  1.00  0.00    -0.273 OA
ATOM     42  H3  UNL     1       2.174   9.918  43.752  1.00  0.00     0.170 HD
BRANCH  40  43
HETATM   43  C8  UNL     1       3.756   8.938  45.584  1.00  0.00     0.103 C 
BRANCH  43  44
HETATM   44  C9  UNL     1       4.266   8.660  44.210  1.00  0.00     0.009 C 
BRANCH  44  45
HETATM   45  C10 UNL     1       4.806   9.873  43.523  1.00  0.00     0.002 C 
BRANCH  45  46
HETATM   46  C11 UNL     1       4.320  10.032  42.094  1.00  0.00     0.020 C 
BRANCH  46  47
HETATM   47  C12 UNL     1       4.925  11.291  41.505  1.00  0.00     0.122 C 
BRANCH  47  48
HETATM   48  N4  UNL     1       5.353  11.103  40.151  1.00  0.00    -0.367 N 
HETATM   49  C13 UNL     1       5.965  11.936  39.410  1.00  0.00     0.196 C 
HETATM   50  N5  UNL     1       6.305  11.559  38.086  1.00  0.00    -0.067 NA
HETATM   51  N6  UNL     1       6.295  13.215  39.922  1.00  0.00    -0.067 NA
ATOM     52  H4  UNL     1       5.141  10.196  39.732  1.00  0.00     0.161 HD
ENDBRANCH  47  48
ENDBRANCH  46  47
ENDBRANCH  45  46
ENDBRANCH  44  45
ENDBRANCH  43  44
ENDBRANCH  40  43
ENDBRANCH   7  39
TORSDOF 18
ENDMDL
