MODEL 1
REMARK VINA RESULT: -7.611635866      0.000      0.000
REMARK  17 active torsions:
REMARK  status: ('A' for Active; 'I' for Inactive)
REMARK    1  A    between atoms: C2_2  and  C3_3 
REMARK    2  A    between atoms: C3_3  and  C4_4 
REMARK    3  A    between atoms: C4_4  and  C5_5 
REMARK    4  A    between atoms: C5_5  and  C6_6 
REMARK    5  A    between atoms: C5_5  and  N3_17 
REMARK    6  A    between atoms: C6_6  and  C7_7 
REMARK       I    between atoms: C7_7  and  N1_9 
REMARK    7  A    between atoms: N1_9  and  C8_11 
REMARK    8  A    between atoms: C8_11  and  C9_12 
REMARK    9  A    between atoms: C9_12  and  N2_13 
REMARK   10  A    between atoms: N3_17  and  C13_19 
REMARK   11  A    between atoms: C13_19  and  C14_23 
REMARK   12  A    between atoms: C14_23  and  N5_24 
REMARK       I    between atoms: N5_24  and  C15_26 
REMARK   13  A    between atoms: C15_26  and  C16_28 
REMARK   14  A    between atoms: C16_28  and  N6_29 
REMARK   15  A    between atoms: N6_29  and  C19_32 
REMARK   16  A    between atoms: C19_32  and  C20_33 
REMARK   17  A    between atoms: C20_33  and  N7_35 
ROOT
HETATM    1  C13 UNL     1     -19.214  93.355  82.601  1.00  0.00     0.089 C 
HETATM    2  N4  UNL     1     -19.767  94.255  81.919  1.00  0.00    -0.388 N 
ATOM      3  H41 UNL     1     -20.621  93.997  81.425  1.00  0.00     0.157 HD
ATOM      4  H42 UNL     1     -19.369  95.191  81.841  1.00  0.00     0.157 HD
ENDROOT
BRANCH   1   5
HETATM    5  N3  UNL     1     -18.023  93.715  83.290  1.00  0.00    -0.374 N 
ATOM      6  H3  UNL     1     -18.170  94.154  84.198  1.00  0.00     0.161 HD
BRANCH   5   7
HETATM    7  C5  UNL     1     -16.661  93.559  82.917  1.00  0.00     0.091 C 
BRANCH   7   8
HETATM    8  C4  UNL     1     -16.371  92.910  81.619  1.00  0.00     0.026 C 
BRANCH   8   9
HETATM    9  C3  UNL     1     -16.411  93.757  80.401  1.00  0.00     0.002 C 
BRANCH   9  10
HETATM   10  C2  UNL     1     -16.079  95.217  80.631  1.00  0.00    -0.004 C 
HETATM   11  C1  UNL     1     -14.693  95.542  80.098  1.00  0.00     0.005 C 
ENDBRANCH   9  10
ENDBRANCH   8   9
ENDBRANCH   7   8
BRANCH   7  12
HETATM   12  C6  UNL     1     -16.006  92.814  84.083  1.00  0.00     0.127 C 
BRANCH  12  13
HETATM   13  C7  UNL     1     -15.789  93.619  85.278  1.00  0.00     0.219 C 
HETATM   14  O1  UNL     1     -16.417  94.671  85.562  1.00  0.00    -0.274 OA
HETATM   15  N1  UNL     1     -14.788  93.213  86.234  1.00  0.00    -0.359 N 
ATOM     16  H1  UNL     1     -14.238  92.370  86.071  1.00  0.00     0.162 HD
BRANCH  15  17
HETATM   17  C8  UNL     1     -14.567  93.996  87.411  1.00  0.00     0.150 C 
BRANCH  17  18
HETATM   18  C9  UNL     1     -13.188  93.657  87.952  1.00  0.00     0.255 C 
BRANCH  18  19
HETATM   19  N2  UNL     1     -12.590  94.885  88.430  1.00  0.00    -0.077 N 
HETATM   20  C10 UNL     1     -13.386  95.976  87.929  1.00  0.00     0.271 C 
HETATM   21  C11 UNL     1     -12.709  94.886  89.879  1.00  0.00     0.271 C 
HETATM   22  C12 UNL     1     -11.222  94.943  87.999  1.00  0.00     0.271 C 
ENDBRANCH  18  19
ENDBRANCH  17  18
ENDBRANCH  15  17
ENDBRANCH  12  13
ENDBRANCH   7  12
ENDBRANCH   5   7
ENDBRANCH   1   5
BRANCH   1  23
HETATM   23  C14 UNL     1     -19.789  92.002  82.715  1.00  0.00     0.198 C 
BRANCH  23  24
HETATM   24  N5  UNL     1     -20.553  91.664  81.550  1.00  0.00    -0.353 N 
HETATM   25  C15 UNL     1     -21.978  91.499  81.722  1.00  0.00     0.244 C 
HETATM   26  O2  UNL     1     -22.483  91.652  82.855  1.00  0.00    -0.272 OA
ATOM     27  H5  UNL     1     -20.111  91.546  80.639  1.00  0.00     0.162 HD
BRANCH  25  28
HETATM   28  C16 UNL     1     -22.786  91.152  80.535  1.00  0.00     0.339 C 
BRANCH  28  29
HETATM   29  N6  UNL     1     -23.495  92.298  80.004  1.00  0.00    -0.060 N 
HETATM   30  C17 UNL     1     -23.026  93.535  80.561  1.00  0.00     0.273 C 
HETATM   31  C18 UNL     1     -23.170  92.344  78.569  1.00  0.00     0.273 C 
BRANCH  29  32
HETATM   32  C19 UNL     1     -24.907  92.116  80.122  1.00  0.00     0.306 C 
BRANCH  32  33
HETATM   33  C20 UNL     1     -25.566  92.767  81.243  1.00  0.00     0.105 C 
HETATM   34  S1  UNL     1     -26.546  94.064  81.138  1.00  0.00    -0.064 SA
BRANCH  33  35
HETATM   35  N7  UNL     1     -25.356  92.248  82.557  1.00  0.00    -0.326 N 
HETATM   36  C21 UNL     1     -26.014  91.221  82.923  1.00  0.00     0.201 C 
HETATM   37  N8  UNL     1     -25.827  90.690  84.206  1.00  0.00    -0.066 NA
HETATM   38  N9  UNL     1     -26.934  90.617  82.037  1.00  0.00    -0.066 NA
ATOM     39  H7  UNL     1     -24.691  92.691  83.190  1.00  0.00     0.168 HD
ENDBRANCH  33  35
ENDBRANCH  32  33
ENDBRANCH  29  32
ENDBRANCH  28  29
ENDBRANCH  25  28
ENDBRANCH  23  24
ENDBRANCH   1  23
TORSDOF 17
ENDMDL
MODEL 2
REMARK VINA RESULT: -7.571514424      1.875      2.550
REMARK  17 active torsions:
REMARK  status: ('A' for Active; 'I' for Inactive)
REMARK    1  A    between atoms: C2_2  and  C3_3 
REMARK    2  A    between atoms: C3_3  and  C4_4 
REMARK    3  A    between atoms: C4_4  and  C5_5 
REMARK    4  A    between atoms: C5_5  and  C6_6 
REMARK    5  A    between atoms: C5_5  and  N3_17 
REMARK    6  A    between atoms: C6_6  and  C7_7 
REMARK       I    between atoms: C7_7  and  N1_9 
REMARK    7  A    between atoms: N1_9  and  C8_11 
REMARK    8  A    between atoms: C8_11  and  C9_12 
REMARK    9  A    between atoms: C9_12  and  N2_13 
REMARK   10  A    between atoms: N3_17  and  C13_19 
REMARK   11  A    between atoms: C13_19  and  C14_23 
REMARK   12  A    between atoms: C14_23  and  N5_24 
REMARK       I    between atoms: N5_24  and  C15_26 
REMARK   13  A    between atoms: C15_26  and  C16_28 
REMARK   14  A    between atoms: C16_28  and  N6_29 
REMARK   15  A    between atoms: N6_29  and  C19_32 
REMARK   16  A    between atoms: C19_32  and  C20_33 
REMARK   17  A    between atoms: C20_33  and  N7_35 
ROOT
HETATM    1  C13 UNL     1     -19.471  93.079  82.316  1.00  0.00     0.089 C 
HETATM    2  N4  UNL     1     -20.016  94.209  82.389  1.00  0.00    -0.388 N 
ATOM      3  H41 UNL     1     -20.854  94.352  81.825  1.00  0.00     0.157 HD
ATOM      4  H42 UNL     1     -19.628  94.957  82.964  1.00  0.00     0.157 HD
ENDROOT
BRANCH   1   5
HETATM    5  N3  UNL     1     -18.303  92.880  83.103  1.00  0.00    -0.374 N 
ATOM      6  H3  UNL     1     -18.469  92.459  84.017  1.00  0.00     0.161 HD
BRANCH   5   7
HETATM    7  C5  UNL     1     -16.942  93.172  82.820  1.00  0.00     0.091 C 
BRANCH   7   8
HETATM    8  C4  UNL     1     -16.395  92.725  81.520  1.00  0.00     0.026 C 
BRANCH   8   9
HETATM    9  C3  UNL     1     -16.430  93.686  80.390  1.00  0.00     0.002 C 
BRANCH   9  10
HETATM   10  C2  UNL     1     -16.177  95.129  80.777  1.00  0.00    -0.004 C 
HETATM   11  C1  UNL     1     -14.809  95.583  80.293  1.00  0.00     0.005 C 
ENDBRANCH   9  10
ENDBRANCH   8   9
ENDBRANCH   7   8
BRANCH   7  12
HETATM   12  C6  UNL     1     -16.153  92.592  83.997  1.00  0.00     0.127 C 
BRANCH  12  13
HETATM   13  C7  UNL     1     -15.930  93.518  85.100  1.00  0.00     0.219 C 
HETATM   14  O1  UNL     1     -16.590  94.570  85.302  1.00  0.00    -0.274 OA
HETATM   15  N1  UNL     1     -14.883  93.246  86.054  1.00  0.00    -0.359 N 
ATOM     16  H1  UNL     1     -14.306  92.412  85.955  1.00  0.00     0.162 HD
BRANCH  15  17
HETATM   17  C8  UNL     1     -14.657  94.149  87.141  1.00  0.00     0.150 C 
BRANCH  17  18
HETATM   18  C9  UNL     1     -13.377  93.730  87.844  1.00  0.00     0.255 C 
BRANCH  18  19
HETATM   19  N2  UNL     1     -12.748  94.927  88.361  1.00  0.00    -0.077 N 
HETATM   20  C10 UNL     1     -12.732  94.819  89.798  1.00  0.00     0.271 C 
HETATM   21  C11 UNL     1     -11.367  94.918  87.906  1.00  0.00     0.271 C 
HETATM   22  C12 UNL     1     -13.465  96.078  87.892  1.00  0.00     0.271 C 
ENDBRANCH  18  19
ENDBRANCH  17  18
ENDBRANCH  15  17
ENDBRANCH  12  13
ENDBRANCH   7  12
ENDBRANCH   5   7
ENDBRANCH   1   5
BRANCH   1  23
HETATM   23  C14 UNL     1     -20.032  91.998  81.486  1.00  0.00     0.198 C 
BRANCH  23  24
HETATM   24  N5  UNL     1     -20.990  91.224  82.220  1.00  0.00    -0.353 N 
HETATM   25  C15 UNL     1     -22.198  90.841  81.526  1.00  0.00     0.244 C 
HETATM   26  O2  UNL     1     -22.362  91.190  80.337  1.00  0.00    -0.272 OA
ATOM     27  H5  UNL     1     -20.826  90.955  83.189  1.00  0.00     0.162 HD
BRANCH  25  28
HETATM   28  C16 UNL     1     -23.198  90.042  82.262  1.00  0.00     0.339 C 
BRANCH  28  29
HETATM   29  N6  UNL     1     -24.463  90.737  82.394  1.00  0.00    -0.060 N 
HETATM   30  C17 UNL     1     -25.259  90.221  83.470  1.00  0.00     0.273 C 
HETATM   31  C18 UNL     1     -24.126  92.122  82.758  1.00  0.00     0.273 C 
BRANCH  29  32
HETATM   32  C19 UNL     1     -25.149  90.773  81.141  1.00  0.00     0.306 C 
BRANCH  32  33
HETATM   33  C20 UNL     1     -26.245  89.834  80.959  1.00  0.00     0.105 C 
HETATM   34  S1  UNL     1     -27.813  90.139  81.277  1.00  0.00    -0.064 SA
BRANCH  33  35
HETATM   35  N7  UNL     1     -25.951  88.528  80.461  1.00  0.00    -0.326 N 
HETATM   36  C21 UNL     1     -25.977  88.331  79.203  1.00  0.00     0.201 C 
HETATM   37  N8  UNL     1     -25.692  87.059  78.688  1.00  0.00    -0.066 NA
HETATM   38  N9  UNL     1     -26.295  89.393  78.327  1.00  0.00    -0.066 NA
ATOM     39  H7  UNL     1     -25.723  87.767  81.101  1.00  0.00     0.168 HD
ENDBRANCH  33  35
ENDBRANCH  32  33
ENDBRANCH  29  32
ENDBRANCH  28  29
ENDBRANCH  25  28
ENDBRANCH  23  24
ENDBRANCH   1  23
TORSDOF 17
ENDMDL
MODEL 3
REMARK VINA RESULT: -7.442338735      1.403      1.799
REMARK  17 active torsions:
REMARK  status: ('A' for Active; 'I' for Inactive)
REMARK    1  A    between atoms: C2_2  and  C3_3 
REMARK    2  A    between atoms: C3_3  and  C4_4 
REMARK    3  A    between atoms: C4_4  and  C5_5 
REMARK    4  A    between atoms: C5_5  and  C6_6 
REMARK    5  A    between atoms: C5_5  and  N3_17 
REMARK    6  A    between atoms: C6_6  and  C7_7 
REMARK       I    between atoms: C7_7  and  N1_9 
REMARK    7  A    between atoms: N1_9  and  C8_11 
REMARK    8  A    between atoms: C8_11  and  C9_12 
REMARK    9  A    between atoms: C9_12  and  N2_13 
REMARK   10  A    between atoms: N3_17  and  C13_19 
REMARK   11  A    between atoms: C13_19  and  C14_23 
REMARK   12  A    between atoms: C14_23  and  N5_24 
REMARK       I    between atoms: N5_24  and  C15_26 
REMARK   13  A    between atoms: C15_26  and  C16_28 
REMARK   14  A    between atoms: C16_28  and  N6_29 
REMARK   15  A    between atoms: N6_29  and  C19_32 
REMARK   16  A    between atoms: C19_32  and  C20_33 
REMARK   17  A    between atoms: C20_33  and  N7_35 
ROOT
HETATM    1  C13 UNL     1     -19.186  93.420  82.563  1.00  0.00     0.089 C 
HETATM    2  N4  UNL     1     -19.791  94.280  81.875  1.00  0.00    -0.388 N 
ATOM      3  H41 UNL     1     -20.657  93.981  81.424  1.00  0.00     0.157 HD
ATOM      4  H42 UNL     1     -19.425  95.224  81.749  1.00  0.00     0.157 HD
ENDROOT
BRANCH   1   5
HETATM    5  N3  UNL     1     -17.979  93.836  83.190  1.00  0.00    -0.374 N 
ATOM      6  H3  UNL     1     -18.106  94.358  84.057  1.00  0.00     0.161 HD
BRANCH   5   7
HETATM    7  C5  UNL     1     -16.626  93.641  82.805  1.00  0.00     0.091 C 
BRANCH   7   8
HETATM    8  C4  UNL     1     -16.367  93.010  81.491  1.00  0.00     0.026 C 
BRANCH   8   9
HETATM    9  C3  UNL     1     -16.318  93.893  80.300  1.00  0.00     0.002 C 
BRANCH   9  10
HETATM   10  C2  UNL     1     -15.959  95.335  80.594  1.00  0.00    -0.004 C 
HETATM   11  C1  UNL     1     -14.535  95.635  80.153  1.00  0.00     0.005 C 
ENDBRANCH   9  10
ENDBRANCH   8   9
ENDBRANCH   7   8
BRANCH   7  12
HETATM   12  C6  UNL     1     -15.991  92.847  83.950  1.00  0.00     0.127 C 
BRANCH  12  13
HETATM   13  C7  UNL     1     -15.823  93.594  85.190  1.00  0.00     0.219 C 
HETATM   14  O1  UNL     1     -16.495  94.605  85.520  1.00  0.00    -0.274 OA
HETATM   15  N1  UNL     1     -14.821  93.174  86.140  1.00  0.00    -0.359 N 
ATOM     16  H1  UNL     1     -14.237  92.362  85.941  1.00  0.00     0.162 HD
BRANCH  15  17
HETATM   17  C8  UNL     1     -14.648  93.900  87.361  1.00  0.00     0.150 C 
BRANCH  17  18
HETATM   18  C9  UNL     1     -13.245  93.627  87.877  1.00  0.00     0.255 C 
BRANCH  18  19
HETATM   19  N2  UNL     1     -12.709  94.877  88.372  1.00  0.00    -0.077 N 
HETATM   20  C10 UNL     1     -12.710  94.807  89.811  1.00  0.00     0.271 C 
HETATM   21  C11 UNL     1     -11.323  94.952  87.939  1.00  0.00     0.271 C 
HETATM   22  C12 UNL     1     -13.495  95.963  87.862  1.00  0.00     0.271 C 
ENDBRANCH  18  19
ENDBRANCH  17  18
ENDBRANCH  15  17
ENDBRANCH  12  13
ENDBRANCH   7  12
ENDBRANCH   5   7
ENDBRANCH   1   5
BRANCH   1  23
HETATM   23  C14 UNL     1     -19.716  92.055  82.743  1.00  0.00     0.198 C 
BRANCH  23  24
HETATM   24  N5  UNL     1     -20.479  91.640  81.603  1.00  0.00    -0.353 N 
HETATM   25  C15 UNL     1     -21.873  91.331  81.822  1.00  0.00     0.244 C 
HETATM   26  O2  UNL     1     -22.354  91.433  82.971  1.00  0.00    -0.272 OA
ATOM     27  H5  UNL     1     -20.057  91.567  80.678  1.00  0.00     0.162 HD
BRANCH  25  28
HETATM   28  C16 UNL     1     -22.680  90.903  80.661  1.00  0.00     0.339 C 
BRANCH  28  29
HETATM   29  N6  UNL     1     -23.517  91.971  80.154  1.00  0.00    -0.060 N 
HETATM   30  C17 UNL     1     -23.380  93.178  80.917  1.00  0.00     0.273 C 
HETATM   31  C18 UNL     1     -23.010  92.276  78.807  1.00  0.00     0.273 C 
BRANCH  29  32
HETATM   32  C19 UNL     1     -24.869  91.530  80.018  1.00  0.00     0.306 C 
BRANCH  32  33
HETATM   33  C20 UNL     1     -25.347  90.555  80.986  1.00  0.00     0.105 C 
HETATM   34  S1  UNL     1     -26.087  90.905  82.394  1.00  0.00    -0.064 SA
BRANCH  33  35
HETATM   35  N7  UNL     1     -25.165  89.166  80.705  1.00  0.00    -0.326 N 
HETATM   36  C21 UNL     1     -25.969  88.594  79.900  1.00  0.00     0.201 C 
HETATM   37  N8  UNL     1     -25.814  87.232  79.606  1.00  0.00    -0.066 NA
HETATM   38  N9  UNL     1     -27.019  89.329  79.305  1.00  0.00    -0.066 NA
ATOM     39  H7  UNL     1     -24.405  88.643  81.140  1.00  0.00     0.168 HD
ENDBRANCH  33  35
ENDBRANCH  32  33
ENDBRANCH  29  32
ENDBRANCH  28  29
ENDBRANCH  25  28
ENDBRANCH  23  24
ENDBRANCH   1  23
TORSDOF 17
ENDMDL
MODEL 4
REMARK VINA RESULT: -7.426109614      1.134      2.586
REMARK  17 active torsions:
REMARK  status: ('A' for Active; 'I' for Inactive)
REMARK    1  A    between atoms: C2_2  and  C3_3 
REMARK    2  A    between atoms: C3_3  and  C4_4 
REMARK    3  A    between atoms: C4_4  and  C5_5 
REMARK    4  A    between atoms: C5_5  and  C6_6 
REMARK    5  A    between atoms: C5_5  and  N3_17 
REMARK    6  A    between atoms: C6_6  and  C7_7 
REMARK       I    between atoms: C7_7  and  N1_9 
REMARK    7  A    between atoms: N1_9  and  C8_11 
REMARK    8  A    between atoms: C8_11  and  C9_12 
REMARK    9  A    between atoms: C9_12  and  N2_13 
REMARK   10  A    between atoms: N3_17  and  C13_19 
REMARK   11  A    between atoms: C13_19  and  C14_23 
REMARK   12  A    between atoms: C14_23  and  N5_24 
REMARK       I    between atoms: N5_24  and  C15_26 
REMARK   13  A    between atoms: C15_26  and  C16_28 
REMARK   14  A    between atoms: C16_28  and  N6_29 
REMARK   15  A    between atoms: N6_29  and  C19_32 
REMARK   16  A    between atoms: C19_32  and  C20_33 
REMARK   17  A    between atoms: C20_33  and  N7_35 
ROOT
HETATM    1  C13 UNL     1     -19.450  93.239  82.305  1.00  0.00     0.089 C 
HETATM    2  N4  UNL     1     -20.074  94.320  82.159  1.00  0.00    -0.388 N 
ATOM      3  H41 UNL     1     -20.903  94.296  81.566  1.00  0.00     0.157 HD
ATOM      4  H42 UNL     1     -19.754  95.188  82.590  1.00  0.00     0.157 HD
ENDROOT
BRANCH   1   5
HETATM    5  N3  UNL     1     -18.293  93.273  83.131  1.00  0.00    -0.374 N 
ATOM      6  H3  UNL     1     -18.474  93.134  84.125  1.00  0.00     0.161 HD
BRANCH   5   7
HETATM    7  C5  UNL     1     -16.927  93.470  82.795  1.00  0.00     0.091 C 
BRANCH   7   8
HETATM    8  C4  UNL     1     -16.465  92.987  81.475  1.00  0.00     0.026 C 
BRANCH   8   9
HETATM    9  C3  UNL     1     -16.415  93.967  80.362  1.00  0.00     0.002 C 
BRANCH   9  10
HETATM   10  C2  UNL     1     -15.931  95.348  80.753  1.00  0.00    -0.004 C 
HETATM   11  C1  UNL     1     -14.559  95.624  80.158  1.00  0.00     0.005 C 
ENDBRANCH   9  10
ENDBRANCH   8   9
ENDBRANCH   7   8
BRANCH   7  12
HETATM   12  C6  UNL     1     -16.135  92.834  83.941  1.00  0.00     0.127 C 
BRANCH  12  13
HETATM   13  C7  UNL     1     -15.952  93.690  85.106  1.00  0.00     0.219 C 
HETATM   14  O1  UNL     1     -16.646  94.705  85.371  1.00  0.00    -0.274 OA
HETATM   15  N1  UNL     1     -14.906  93.386  86.052  1.00  0.00    -0.359 N 
ATOM     16  H1  UNL     1     -14.302  92.578  85.903  1.00  0.00     0.162 HD
BRANCH  15  17
HETATM   17  C8  UNL     1     -14.718  94.220  87.200  1.00  0.00     0.150 C 
BRANCH  17  18
HETATM   18  C9  UNL     1     -13.466  93.753  87.922  1.00  0.00     0.255 C 
BRANCH  18  19
HETATM   19  N2  UNL     1     -12.760  94.930  88.382  1.00  0.00    -0.077 N 
HETATM   20  C10 UNL     1     -12.654  94.835  89.816  1.00  0.00     0.271 C 
HETATM   21  C11 UNL     1     -11.413  94.864  87.839  1.00  0.00     0.271 C 
HETATM   22  C12 UNL     1     -13.462  96.103  87.947  1.00  0.00     0.271 C 
ENDBRANCH  18  19
ENDBRANCH  17  18
ENDBRANCH  15  17
ENDBRANCH  12  13
ENDBRANCH   7  12
ENDBRANCH   5   7
ENDBRANCH   1   5
BRANCH   1  23
HETATM   23  C14 UNL     1     -19.912  91.985  81.681  1.00  0.00     0.198 C 
BRANCH  23  24
HETATM   24  N5  UNL     1     -20.986  91.400  82.429  1.00  0.00    -0.353 N 
HETATM   25  C15 UNL     1     -22.092  90.854  81.676  1.00  0.00     0.244 C 
HETATM   26  O2  UNL     1     -22.074  90.910  80.427  1.00  0.00    -0.272 OA
ATOM     27  H5  UNL     1     -20.971  91.369  83.448  1.00  0.00     0.162 HD
BRANCH  25  28
HETATM   28  C16 UNL     1     -23.209  90.244  82.425  1.00  0.00     0.339 C 
BRANCH  28  29
HETATM   29  N6  UNL     1     -24.436  91.002  82.288  1.00  0.00    -0.060 N 
HETATM   30  C17 UNL     1     -25.248  90.531  81.202  1.00  0.00     0.273 C 
HETATM   31  C18 UNL     1     -25.205  90.750  83.516  1.00  0.00     0.273 C 
BRANCH  29  32
HETATM   32  C19 UNL     1     -24.158  92.402  82.230  1.00  0.00     0.306 C 
BRANCH  32  33
HETATM   33  C20 UNL     1     -24.778  93.155  81.151  1.00  0.00     0.105 C 
HETATM   34  S1  UNL     1     -26.168  93.997  81.264  1.00  0.00    -0.064 SA
BRANCH  33  35
HETATM   35  N7  UNL     1     -24.136  93.178  79.876  1.00  0.00    -0.326 N 
HETATM   36  C21 UNL     1     -23.217  94.033  79.667  1.00  0.00     0.201 C 
HETATM   37  N8  UNL     1     -22.569  94.076  78.424  1.00  0.00    -0.066 NA
HETATM   38  N9  UNL     1     -22.849  94.940  80.686  1.00  0.00    -0.066 NA
ATOM     39  H7  UNL     1     -24.409  92.519  79.145  1.00  0.00     0.168 HD
ENDBRANCH  33  35
ENDBRANCH  32  33
ENDBRANCH  29  32
ENDBRANCH  28  29
ENDBRANCH  25  28
ENDBRANCH  23  24
ENDBRANCH   1  23
TORSDOF 17
ENDMDL
MODEL 5
REMARK VINA RESULT: -7.237360187      1.832      2.957
REMARK  17 active torsions:
REMARK  status: ('A' for Active; 'I' for Inactive)
REMARK    1  A    between atoms: C2_2  and  C3_3 
REMARK    2  A    between atoms: C3_3  and  C4_4 
REMARK    3  A    between atoms: C4_4  and  C5_5 
REMARK    4  A    between atoms: C5_5  and  C6_6 
REMARK    5  A    between atoms: C5_5  and  N3_17 
REMARK    6  A    between atoms: C6_6  and  C7_7 
REMARK       I    between atoms: C7_7  and  N1_9 
REMARK    7  A    between atoms: N1_9  and  C8_11 
REMARK    8  A    between atoms: C8_11  and  C9_12 
REMARK    9  A    between atoms: C9_12  and  N2_13 
REMARK   10  A    between atoms: N3_17  and  C13_19 
REMARK   11  A    between atoms: C13_19  and  C14_23 
REMARK   12  A    between atoms: C14_23  and  N5_24 
REMARK       I    between atoms: N5_24  and  C15_26 
REMARK   13  A    between atoms: C15_26  and  C16_28 
REMARK   14  A    between atoms: C16_28  and  N6_29 
REMARK   15  A    between atoms: N6_29  and  C19_32 
REMARK   16  A    between atoms: C19_32  and  C20_33 
REMARK   17  A    between atoms: C20_33  and  N7_35 
ROOT
HETATM    1  C13 UNL     1     -19.412  93.341  82.533  1.00  0.00     0.089 C 
HETATM    2  N4  UNL     1     -19.890  94.297  81.873  1.00  0.00    -0.388 N 
ATOM      3  H41 UNL     1     -20.757  94.118  81.366  1.00  0.00     0.157 HD
ATOM      4  H42 UNL     1     -19.422  95.203  81.823  1.00  0.00     0.157 HD
ENDROOT
BRANCH   1   5
HETATM    5  N3  UNL     1     -18.204  93.591  83.240  1.00  0.00    -0.374 N 
ATOM      6  H3  UNL     1     -18.328  93.880  84.210  1.00  0.00     0.161 HD
BRANCH   5   7
HETATM    7  C5  UNL     1     -16.851  93.504  82.812  1.00  0.00     0.091 C 
BRANCH   7   8
HETATM    8  C4  UNL     1     -16.584  92.890  81.493  1.00  0.00     0.026 C 
BRANCH   8   9
HETATM    9  C3  UNL     1     -16.364  93.799  80.341  1.00  0.00     0.002 C 
BRANCH   9  10
HETATM   10  C2  UNL     1     -16.114  95.246  80.714  1.00  0.00    -0.004 C 
HETATM   11  C1  UNL     1     -14.747  95.698  80.223  1.00  0.00     0.005 C 
ENDBRANCH   9  10
ENDBRANCH   8   9
ENDBRANCH   7   8
BRANCH   7  12
HETATM   12  C6  UNL     1     -16.119  92.770  83.939  1.00  0.00     0.127 C 
BRANCH  12  13
HETATM   13  C7  UNL     1     -15.884  93.567  85.136  1.00  0.00     0.219 C 
HETATM   14  O1  UNL     1     -16.507  94.619  85.435  1.00  0.00    -0.274 OA
HETATM   15  N1  UNL     1     -14.870  93.155  86.075  1.00  0.00    -0.359 N 
ATOM     16  H1  UNL     1     -14.324  92.312  85.899  1.00  0.00     0.162 HD
BRANCH  15  17
HETATM   17  C8  UNL     1     -14.631  93.930  87.254  1.00  0.00     0.150 C 
BRANCH  17  18
HETATM   18  C9  UNL     1     -13.238  93.601  87.761  1.00  0.00     0.255 C 
BRANCH  18  19
HETATM   19  N2  UNL     1     -12.667  94.819  88.297  1.00  0.00    -0.077 N 
HETATM   20  C10 UNL     1     -13.457  95.918  87.804  1.00  0.00     0.271 C 
HETATM   21  C11 UNL     1     -12.833  94.772  89.740  1.00  0.00     0.271 C 
HETATM   22  C12 UNL     1     -11.287  94.902  87.913  1.00  0.00     0.271 C 
ENDBRANCH  18  19
ENDBRANCH  17  18
ENDBRANCH  15  17
ENDBRANCH  12  13
ENDBRANCH   7  12
ENDBRANCH   5   7
ENDBRANCH   1   5
BRANCH   1  23
HETATM   23  C14 UNL     1     -20.087  92.032  82.605  1.00  0.00     0.198 C 
BRANCH  23  24
HETATM   24  N5  UNL     1     -20.808  91.754  81.397  1.00  0.00    -0.353 N 
HETATM   25  C15 UNL     1     -22.219  91.470  81.523  1.00  0.00     0.244 C 
HETATM   26  O2  UNL     1     -22.750  91.477  82.654  1.00  0.00    -0.272 OA
ATOM     27  H5  UNL     1     -20.345  91.755  80.489  1.00  0.00     0.162 HD
BRANCH  25  28
HETATM   28  C16 UNL     1     -22.982  91.182  80.291  1.00  0.00     0.339 C 
BRANCH  28  29
HETATM   29  N6  UNL     1     -23.778  92.314  79.865  1.00  0.00    -0.060 N 
HETATM   30  C17 UNL     1     -24.901  92.546  80.728  1.00  0.00     0.273 C 
HETATM   31  C18 UNL     1     -22.908  93.493  79.997  1.00  0.00     0.273 C 
BRANCH  29  32
HETATM   32  C19 UNL     1     -24.132  92.190  78.487  1.00  0.00     0.306 C 
BRANCH  32  33
HETATM   33  C20 UNL     1     -24.433  90.853  77.999  1.00  0.00     0.105 C 
HETATM   34  S1  UNL     1     -25.854  90.078  78.182  1.00  0.00    -0.064 SA
BRANCH  33  35
HETATM   35  N7  UNL     1     -23.417  90.137  77.295  1.00  0.00    -0.326 N 
HETATM   36  C21 UNL     1     -23.389  90.202  76.024  1.00  0.00     0.201 C 
HETATM   37  N8  UNL     1     -22.402  89.510  75.309  1.00  0.00    -0.066 NA
HETATM   38  N9  UNL     1     -24.352  90.971  75.333  1.00  0.00    -0.066 NA
ATOM     39  H7  UNL     1     -22.726  89.584  77.803  1.00  0.00     0.168 HD
ENDBRANCH  33  35
ENDBRANCH  32  33
ENDBRANCH  29  32
ENDBRANCH  28  29
ENDBRANCH  25  28
ENDBRANCH  23  24
ENDBRANCH   1  23
TORSDOF 17
ENDMDL
