MODEL 1
REMARK VINA RESULT: -10.263586869      0.000      0.000
REMARK  6 active torsions:
REMARK  status: ('A' for Active; 'I' for Inactive)
REMARK    1  A    between atoms: C2_2  and  C4_4 
REMARK    2  A    between atoms: C18_18  and  N1_19 
REMARK       I    between atoms: N1_19  and  C19_20 
REMARK    3  A    between atoms: C19_20  and  C20_22 
REMARK    4  A    between atoms: C20_22  and  C21_23 
REMARK    5  A    between atoms: C21_23  and  N2_24 
REMARK    6  A    between atoms: C31_36  and  O2_37 
ROOT
HETATM    1  C4  UNL     1      66.602   6.774  11.747  1.00  0.00     0.018 C 
HETATM    2  C5  UNL     1      66.724   7.132  13.178  1.00  0.00     0.010 C 
HETATM    3  C6  UNL     1      65.369   6.762  13.808  1.00  0.00     0.006 C 
HETATM    4  C7  UNL     1      64.560   6.202  12.684  1.00  0.00     0.002 C 
HETATM    5  C8  UNL     1      65.627   5.599  11.794  1.00  0.00    -0.002 C 
HETATM    6  C9  UNL     1      66.072   4.510  12.742  1.00  0.00     0.006 C 
HETATM    7  C10 UNL     1      64.820   4.081  13.487  1.00  0.00     0.013 C 
HETATM    8  C11 UNL     1      63.696   5.019  13.111  1.00  0.00    -0.004 C 
HETATM    9  C12 UNL     1      63.091   5.481  14.404  1.00  0.00     0.013 C 
HETATM   10  C13 UNL     1      61.858   4.706  14.781  1.00  0.00     0.006 C 
HETATM   11  C14 UNL     1      60.877   4.959  13.683  1.00  0.00    -0.001 C 
HETATM   12  C15 UNL     1      60.573   6.453  13.765  1.00  0.00     0.011 C 
HETATM   13  C16 UNL     1      61.283   4.480  12.322  1.00  0.00     0.043 C 
HETATM   14  C17 UNL     1      60.589   5.503  11.368  1.00  0.00     0.026 C 
HETATM   15  C18 UNL     1      60.521   3.218  12.027  1.00  0.00     0.081 C 
HETATM   16  C27 UNL     1      61.246   1.990  11.580  1.00  0.00     0.043 C 
HETATM   17  C28 UNL     1      61.204   1.695  10.108  1.00  0.00     0.017 C 
HETATM   18  C29 UNL     1      62.636   2.013  12.130  1.00  0.00     0.014 C 
HETATM   19  C30 UNL     1      63.250   3.199  11.450  1.00  0.00     0.040 C 
HETATM   20  C31 UNL     1      62.757   4.518  12.084  1.00  0.00     0.080 C 
ENDROOT
BRANCH  15  21
HETATM   21  N1  UNL     1      59.460   2.843  12.860  1.00  0.00    -0.378 NA
HETATM   22  C19 UNL     1      58.435   2.487  13.673  1.00  0.00     0.296 C 
HETATM   23  O1  UNL     1      57.934   3.013  14.675  1.00  0.00    -0.257 OA
BRANCH  22  24
HETATM   24  C20 UNL     1      57.750   1.175  13.280  1.00  0.00     0.163 C 
BRANCH  24  25
HETATM   25  C21 UNL     1      57.594   0.952  11.837  1.00  0.00     0.069 C 
BRANCH  25  26
HETATM   26  N2  UNL     1      57.388  -0.323  11.312  1.00  0.00    -0.387 N 
HETATM   27  C22 UNL     1      57.839  -0.820  10.114  1.00  0.00     0.152 C 
HETATM   28  C23 UNL     1      57.641  -2.339   9.977  1.00  0.00     0.295 C 
HETATM   29  N3  UNL     1      56.527  -2.833  10.722  1.00  0.00     0.121 N 
HETATM   30  C24 UNL     1      55.234  -2.551  10.174  1.00  0.00     0.314 C 
HETATM   31  C25 UNL     1      56.689  -2.550  12.113  1.00  0.00     0.422 C 
HETATM   32  F1  UNL     1      57.367  -3.637  12.691  1.00  0.00    -0.214 F 
HETATM   33  C26 UNL     1      57.514  -1.310  12.379  1.00  0.00     0.191 C 
ENDBRANCH  25  26
ENDBRANCH  24  25
ENDBRANCH  22  24
ENDBRANCH  15  21
BRANCH  20  34
HETATM   34  O2  UNL     1      62.961   5.374  10.973  1.00  0.00    -0.388 OA
ATOM     35  H2  UNL     1      63.602   4.919  10.439  1.00  0.00     0.210 HD
ENDBRANCH  20  34
BRANCH   1  36
HETATM   36  C2  UNL     1      67.808   6.509  10.980  1.00  0.00    -0.089 C 
HETATM   37  C1  UNL     1      69.049   6.417  11.378  1.00  0.00     0.014 C 
HETATM   38  C3  UNL     1      67.593   6.300   9.483  1.00  0.00     0.043 C 
ENDBRANCH   1  36
TORSDOF 6
ENDMDL
MODEL 2
REMARK VINA RESULT: -10.203232302      0.962      1.263
REMARK  6 active torsions:
REMARK  status: ('A' for Active; 'I' for Inactive)
REMARK    1  A    between atoms: C2_2  and  C4_4 
REMARK    2  A    between atoms: C18_18  and  N1_19 
REMARK       I    between atoms: N1_19  and  C19_20 
REMARK    3  A    between atoms: C19_20  and  C20_22 
REMARK    4  A    between atoms: C20_22  and  C21_23 
REMARK    5  A    between atoms: C21_23  and  N2_24 
REMARK    6  A    between atoms: C31_36  and  O2_37 
ROOT
HETATM    1  C4  UNL     1      66.263   6.923  11.913  1.00  0.00     0.018 C 
HETATM    2  C5  UNL     1      66.405   7.241  13.353  1.00  0.00     0.010 C 
HETATM    3  C6  UNL     1      65.076   6.812  13.998  1.00  0.00     0.006 C 
HETATM    4  C7  UNL     1      64.259   6.262  12.874  1.00  0.00     0.002 C 
HETATM    5  C8  UNL     1      65.323   5.719  11.945  1.00  0.00    -0.002 C 
HETATM    6  C9  UNL     1      65.820   4.615  12.849  1.00  0.00     0.006 C 
HETATM    7  C10 UNL     1      64.597   4.126  13.605  1.00  0.00     0.013 C 
HETATM    8  C11 UNL     1      63.438   5.042  13.282  1.00  0.00    -0.004 C 
HETATM    9  C12 UNL     1      62.848   5.446  14.601  1.00  0.00     0.013 C 
HETATM   10  C13 UNL     1      61.647   4.625  14.979  1.00  0.00     0.006 C 
HETATM   11  C14 UNL     1      60.636   4.882  13.909  1.00  0.00    -0.001 C 
HETATM   12  C15 UNL     1      60.291   6.363  14.044  1.00  0.00     0.011 C 
HETATM   13  C16 UNL     1      61.026   4.457  12.527  1.00  0.00     0.043 C 
HETATM   14  C17 UNL     1      60.282   5.488  11.619  1.00  0.00     0.026 C 
HETATM   15  C18 UNL     1      60.294   3.183  12.207  1.00  0.00     0.081 C 
HETATM   16  C27 UNL     1      61.045   1.991  11.708  1.00  0.00     0.043 C 
HETATM   17  C28 UNL     1      60.980   1.739  10.228  1.00  0.00     0.017 C 
HETATM   18  C29 UNL     1      62.444   2.038  12.229  1.00  0.00     0.014 C 
HETATM   19  C30 UNL     1      63.009   3.262  11.575  1.00  0.00     0.040 C 
HETATM   20  C31 UNL     1      62.493   4.546  12.259  1.00  0.00     0.080 C 
ENDROOT
BRANCH  15  21
HETATM   21  N1  UNL     1      59.263   2.752  13.050  1.00  0.00    -0.378 NA
HETATM   22  C19 UNL     1      58.264   2.342  13.871  1.00  0.00     0.296 C 
HETATM   23  O1  UNL     1      57.633   2.905  14.775  1.00  0.00    -0.257 OA
BRANCH  22  24
HETATM   24  C20 UNL     1      57.817   0.896  13.642  1.00  0.00     0.163 C 
BRANCH  24  25
HETATM   25  C21 UNL     1      57.876   0.430  12.250  1.00  0.00     0.069 C 
BRANCH  25  26
HETATM   26  N2  UNL     1      57.257  -0.751  11.847  1.00  0.00    -0.387 N 
HETATM   27  C22 UNL     1      56.768  -1.758  12.644  1.00  0.00     0.152 C 
HETATM   28  C23 UNL     1      55.924  -2.786  11.871  1.00  0.00     0.295 C 
HETATM   29  N3  UNL     1      56.307  -2.914  10.501  1.00  0.00     0.121 N 
HETATM   30  C24 UNL     1      57.522  -3.632  10.256  1.00  0.00     0.314 C 
HETATM   31  C25 UNL     1      56.176  -1.663   9.824  1.00  0.00     0.422 C 
HETATM   32  F1  UNL     1      54.875  -1.598   9.299  1.00  0.00    -0.214 F 
HETATM   33  C26 UNL     1      56.356  -0.468  10.735  1.00  0.00     0.191 C 
ENDBRANCH  25  26
ENDBRANCH  24  25
ENDBRANCH  22  24
ENDBRANCH  15  21
BRANCH  20  34
HETATM   34  O2  UNL     1      62.649   5.441  11.172  1.00  0.00    -0.388 OA
ATOM     35  H2  UNL     1      63.470   5.885  11.348  1.00  0.00     0.210 HD
ENDBRANCH  20  34
BRANCH   1  36
HETATM   36  C2  UNL     1      67.459   6.717  11.114  1.00  0.00    -0.089 C 
HETATM   37  C1  UNL     1      68.686   6.473  11.493  1.00  0.00     0.014 C 
HETATM   38  C3  UNL     1      67.252   6.790   9.604  1.00  0.00     0.043 C 
ENDBRANCH   1  36
TORSDOF 6
ENDMDL
MODEL 3
REMARK VINA RESULT: -9.877122703      4.003      9.134
REMARK  6 active torsions:
REMARK  status: ('A' for Active; 'I' for Inactive)
REMARK    1  A    between atoms: C2_2  and  C4_4 
REMARK    2  A    between atoms: C18_18  and  N1_19 
REMARK       I    between atoms: N1_19  and  C19_20 
REMARK    3  A    between atoms: C19_20  and  C20_22 
REMARK    4  A    between atoms: C20_22  and  C21_23 
REMARK    5  A    between atoms: C21_23  and  N2_24 
REMARK    6  A    between atoms: C31_36  and  O2_37 
ROOT
HETATM    1  C4  UNL     1      58.143   0.446  10.730  1.00  0.00     0.018 C 
HETATM    2  C5  UNL     1      59.396  -0.152  10.215  1.00  0.00     0.010 C 
HETATM    3  C6  UNL     1      60.499   0.872  10.536  1.00  0.00     0.006 C 
HETATM    4  C7  UNL     1      59.796   1.993  11.230  1.00  0.00     0.002 C 
HETATM    5  C8  UNL     1      58.649   1.276  11.909  1.00  0.00    -0.002 C 
HETATM    6  C9  UNL     1      59.477   0.468  12.879  1.00  0.00     0.006 C 
HETATM    7  C10 UNL     1      60.657   1.352  13.245  1.00  0.00     0.013 C 
HETATM    8  C11 UNL     1      60.616   2.586  12.372  1.00  0.00    -0.004 C 
HETATM    9  C12 UNL     1      61.988   2.722  11.781  1.00  0.00     0.013 C 
HETATM   10  C13 UNL     1      62.852   3.699  12.529  1.00  0.00     0.006 C 
HETATM   11  C14 UNL     1      62.155   5.016  12.414  1.00  0.00    -0.001 C 
HETATM   12  C15 UNL     1      62.194   5.352  10.926  1.00  0.00     0.011 C 
HETATM   13  C16 UNL     1      60.793   5.089  13.033  1.00  0.00     0.043 C 
HETATM   14  C17 UNL     1      60.053   6.129  12.133  1.00  0.00     0.026 C 
HETATM   15  C18 UNL     1      60.911   5.837  14.333  1.00  0.00     0.081 C 
HETATM   16  C27 UNL     1      60.358   5.250  15.590  1.00  0.00     0.043 C 
HETATM   17  C28 UNL     1      59.033   5.791  16.047  1.00  0.00     0.017 C 
HETATM   18  C29 UNL     1      60.372   3.759  15.485  1.00  0.00     0.014 C 
HETATM   19  C30 UNL     1      59.407   3.488  14.371  1.00  0.00     0.040 C 
HETATM   20  C31 UNL     1      60.043   3.798  12.998  1.00  0.00     0.080 C 
ENDROOT
BRANCH  15  21
HETATM   21  N1  UNL     1      62.100   6.514  14.631  1.00  0.00    -0.378 NA
HETATM   22  C19 UNL     1      63.248   7.178  14.915  1.00  0.00     0.296 C 
HETATM   23  O1  UNL     1      63.606   8.351  14.746  1.00  0.00    -0.257 OA
BRANCH  22  24
HETATM   24  C20 UNL     1      64.323   6.315  15.582  1.00  0.00     0.163 C 
BRANCH  24  25
HETATM   25  C21 UNL     1      65.050   5.409  14.684  1.00  0.00     0.069 C 
BRANCH  25  26
HETATM   26  N2  UNL     1      65.910   5.889  13.699  1.00  0.00    -0.387 N 
HETATM   27  C22 UNL     1      65.615   6.154  12.384  1.00  0.00     0.152 C 
HETATM   28  C23 UNL     1      66.737   6.912  11.653  1.00  0.00     0.295 C 
HETATM   29  N3  UNL     1      68.036   6.642  12.181  1.00  0.00     0.121 N 
HETATM   30  C24 UNL     1      68.594   5.366  11.849  1.00  0.00     0.314 C 
HETATM   31  C25 UNL     1      68.103   7.012  13.560  1.00  0.00     0.422 C 
HETATM   32  F1  UNL     1      68.520   8.352  13.621  1.00  0.00    -0.214 F 
HETATM   33  C26 UNL     1      66.770   6.920  14.270  1.00  0.00     0.191 C 
ENDBRANCH  25  26
ENDBRANCH  24  25
ENDBRANCH  22  24
ENDBRANCH  15  21
BRANCH  20  34
HETATM   34  O2  UNL     1      58.855   4.044  12.266  1.00  0.00    -0.388 OA
ATOM     35  H2  UNL     1      58.502   4.837  12.651  1.00  0.00     0.210 HD
ENDBRANCH  20  34
BRANCH   1  36
HETATM   36  C2  UNL     1      57.028  -0.426  11.059  1.00  0.00    -0.089 C 
HETATM   37  C1  UNL     1      55.919  -0.648  10.404  1.00  0.00     0.014 C 
HETATM   38  C3  UNL     1      57.173  -1.203  12.364  1.00  0.00     0.043 C 
ENDBRANCH   1  36
TORSDOF 6
ENDMDL
MODEL 4
REMARK VINA RESULT: -9.749945493      3.637      8.751
REMARK  6 active torsions:
REMARK  status: ('A' for Active; 'I' for Inactive)
REMARK    1  A    between atoms: C2_2  and  C4_4 
REMARK    2  A    between atoms: C18_18  and  N1_19 
REMARK       I    between atoms: N1_19  and  C19_20 
REMARK    3  A    between atoms: C19_20  and  C20_22 
REMARK    4  A    between atoms: C20_22  and  C21_23 
REMARK    5  A    between atoms: C21_23  and  N2_24 
REMARK    6  A    between atoms: C31_36  and  O2_37 
ROOT
HETATM    1  C4  UNL     1      58.137   0.440  10.684  1.00  0.00     0.018 C 
HETATM    2  C5  UNL     1      59.388  -0.174  10.185  1.00  0.00     0.010 C 
HETATM    3  C6  UNL     1      60.498   0.844  10.505  1.00  0.00     0.006 C 
HETATM    4  C7  UNL     1      59.799   1.978  11.183  1.00  0.00     0.002 C 
HETATM    5  C8  UNL     1      58.640   1.278  11.859  1.00  0.00    -0.002 C 
HETATM    6  C9  UNL     1      59.453   0.471  12.844  1.00  0.00     0.006 C 
HETATM    7  C10 UNL     1      60.637   1.349  13.211  1.00  0.00     0.013 C 
HETATM    8  C11 UNL     1      60.614   2.575  12.327  1.00  0.00    -0.004 C 
HETATM    9  C12 UNL     1      61.993   2.692  11.745  1.00  0.00     0.013 C 
HETATM   10  C13 UNL     1      62.859   3.669  12.492  1.00  0.00     0.006 C 
HETATM   11  C14 UNL     1      62.174   4.991  12.359  1.00  0.00    -0.001 C 
HETATM   12  C15 UNL     1      62.229   5.313  10.868  1.00  0.00     0.011 C 
HETATM   13  C16 UNL     1      60.808   5.081  12.966  1.00  0.00     0.043 C 
HETATM   14  C17 UNL     1      60.085   6.120  12.049  1.00  0.00     0.026 C 
HETATM   15  C18 UNL     1      60.922   5.841  14.259  1.00  0.00     0.081 C 
HETATM   16  C27 UNL     1      60.353   5.270  15.517  1.00  0.00     0.043 C 
HETATM   17  C28 UNL     1      59.029   5.827  15.957  1.00  0.00     0.017 C 
HETATM   18  C29 UNL     1      60.355   3.779  15.426  1.00  0.00     0.014 C 
HETATM   19  C30 UNL     1      59.397   3.506  14.306  1.00  0.00     0.040 C 
HETATM   20  C31 UNL     1      60.047   3.797  12.936  1.00  0.00     0.080 C 
ENDROOT
BRANCH  15  21
HETATM   21  N1  UNL     1      62.114   6.511  14.561  1.00  0.00    -0.378 NA
HETATM   22  C19 UNL     1      63.265   7.168  14.849  1.00  0.00     0.296 C 
HETATM   23  O1  UNL     1      63.606   8.353  14.747  1.00  0.00    -0.257 OA
BRANCH  22  24
HETATM   24  C20 UNL     1      64.370   6.275  15.419  1.00  0.00     0.163 C 
BRANCH  24  25
HETATM   25  C21 UNL     1      65.711   6.496  14.862  1.00  0.00     0.069 C 
BRANCH  25  26
HETATM   26  N2  UNL     1      66.166   5.792  13.749  1.00  0.00    -0.387 N 
HETATM   27  C22 UNL     1      66.314   4.433  13.618  1.00  0.00     0.152 C 
HETATM   28  C23 UNL     1      66.596   3.992  12.172  1.00  0.00     0.295 C 
HETATM   29  N3  UNL     1      67.273   4.985  11.400  1.00  0.00     0.121 N 
HETATM   30  C24 UNL     1      68.665   5.158  11.687  1.00  0.00     0.314 C 
HETATM   31  C25 UNL     1      66.497   6.184  11.335  1.00  0.00     0.422 C 
HETATM   32  F1  UNL     1      65.665   6.090  10.207  1.00  0.00    -0.214 F 
HETATM   33  C26 UNL     1      65.605   6.386  12.540  1.00  0.00     0.191 C 
ENDBRANCH  25  26
ENDBRANCH  24  25
ENDBRANCH  22  24
ENDBRANCH  15  21
BRANCH  20  34
HETATM   34  O2  UNL     1      58.867   4.046  12.192  1.00  0.00    -0.388 OA
ATOM     35  H2  UNL     1      58.449   3.196  12.121  1.00  0.00     0.210 HD
ENDBRANCH  20  34
BRANCH   1  36
HETATM   36  C2  UNL     1      57.011  -0.418  11.012  1.00  0.00    -0.089 C 
HETATM   37  C1  UNL     1      55.912  -0.647  10.344  1.00  0.00     0.014 C 
HETATM   38  C3  UNL     1      57.131  -1.171  12.334  1.00  0.00     0.043 C 
ENDBRANCH   1  36
TORSDOF 6
ENDMDL
MODEL 5
REMARK VINA RESULT: -9.719484724      3.827      8.693
REMARK  6 active torsions:
REMARK  status: ('A' for Active; 'I' for Inactive)
REMARK    1  A    between atoms: C2_2  and  C4_4 
REMARK    2  A    between atoms: C18_18  and  N1_19 
REMARK       I    between atoms: N1_19  and  C19_20 
REMARK    3  A    between atoms: C19_20  and  C20_22 
REMARK    4  A    between atoms: C20_22  and  C21_23 
REMARK    5  A    between atoms: C21_23  and  N2_24 
REMARK    6  A    between atoms: C31_36  and  O2_37 
ROOT
HETATM    1  C4  UNL     1      58.161   0.441  10.674  1.00  0.00     0.018 C 
HETATM    2  C5  UNL     1      59.415  -0.167  10.177  1.00  0.00     0.010 C 
HETATM    3  C6  UNL     1      60.521   0.852  10.504  1.00  0.00     0.006 C 
HETATM    4  C7  UNL     1      59.817   1.982  11.183  1.00  0.00     0.002 C 
HETATM    5  C8  UNL     1      58.657   1.277  11.853  1.00  0.00    -0.002 C 
HETATM    6  C9  UNL     1      59.469   0.470  12.839  1.00  0.00     0.006 C 
HETATM    7  C10 UNL     1      60.650   1.350  13.212  1.00  0.00     0.013 C 
HETATM    8  C11 UNL     1      60.627   2.578  12.331  1.00  0.00    -0.004 C 
HETATM    9  C12 UNL     1      62.007   2.701  11.754  1.00  0.00     0.013 C 
HETATM   10  C13 UNL     1      62.868   3.678  12.506  1.00  0.00     0.006 C 
HETATM   11  C14 UNL     1      62.180   4.999  12.375  1.00  0.00    -0.001 C 
HETATM   12  C15 UNL     1      62.239   5.324  10.885  1.00  0.00     0.011 C 
HETATM   13  C16 UNL     1      60.811   5.084  12.977  1.00  0.00     0.043 C 
HETATM   14  C17 UNL     1      60.089   6.123  12.061  1.00  0.00     0.026 C 
HETATM   15  C18 UNL     1      60.920   5.840  14.273  1.00  0.00     0.081 C 
HETATM   16  C27 UNL     1      60.348   5.264  15.528  1.00  0.00     0.043 C 
HETATM   17  C28 UNL     1      59.021   5.817  15.965  1.00  0.00     0.017 C 
HETATM   18  C29 UNL     1      60.354   3.773  15.432  1.00  0.00     0.014 C 
HETATM   19  C30 UNL     1      59.401   3.501  14.309  1.00  0.00     0.040 C 
HETATM   20  C31 UNL     1      60.055   3.797  12.942  1.00  0.00     0.080 C 
ENDROOT
BRANCH  15  21
HETATM   21  N1  UNL     1      62.108   6.512  14.580  1.00  0.00    -0.378 NA
HETATM   22  C19 UNL     1      63.257   7.171  14.874  1.00  0.00     0.296 C 
HETATM   23  O1  UNL     1      63.606   8.352  14.746  1.00  0.00    -0.257 OA
BRANCH  22  24
HETATM   24  C20 UNL     1      64.346   6.289  15.491  1.00  0.00     0.163 C 
BRANCH  24  25
HETATM   25  C21 UNL     1      65.693   6.466  14.933  1.00  0.00     0.069 C 
BRANCH  25  26
HETATM   26  N2  UNL     1      66.284   5.494  14.128  1.00  0.00    -0.387 N 
HETATM   27  C22 UNL     1      66.370   5.478  12.757  1.00  0.00     0.152 C 
HETATM   28  C23 UNL     1      67.312   4.385  12.223  1.00  0.00     0.295 C 
HETATM   29  N3  UNL     1      67.397   3.246  13.081  1.00  0.00     0.121 N 
HETATM   30  C24 UNL     1      66.266   2.368  13.068  1.00  0.00     0.314 C 
HETATM   31  C25 UNL     1      67.877   3.625  14.372  1.00  0.00     0.422 C 
HETATM   32  F1  UNL     1      69.278   3.527  14.351  1.00  0.00    -0.214 F 
HETATM   33  C26 UNL     1      67.529   5.050  14.745  1.00  0.00     0.191 C 
ENDBRANCH  25  26
ENDBRANCH  24  25
ENDBRANCH  22  24
ENDBRANCH  15  21
BRANCH  20  34
HETATM   34  O2  UNL     1      58.876   4.045  12.194  1.00  0.00    -0.388 OA
ATOM     35  H2  UNL     1      58.285   3.346  12.446  1.00  0.00     0.210 HD
ENDBRANCH  20  34
BRANCH   1  36
HETATM   36  C2  UNL     1      57.036  -0.421  10.996  1.00  0.00    -0.089 C 
HETATM   37  C1  UNL     1      55.938  -0.648  10.325  1.00  0.00     0.014 C 
HETATM   38  C3  UNL     1      57.156  -1.181  12.314  1.00  0.00     0.043 C 
ENDBRANCH   1  36
TORSDOF 6
ENDMDL
