MODEL 1
REMARK VINA RESULT: -7.663771271      0.000      0.000
REMARK  7 active torsions:
REMARK  status: ('A' for Active; 'I' for Inactive)
REMARK    1  A    between atoms: C2_2  and  C4_4 
REMARK    2  A    between atoms: C4_4  and  N1_5 
REMARK    3  A    between atoms: C4_4  and  C5_9 
REMARK       I    between atoms: C5_9  and  N2_11 
REMARK    4  A    between atoms: N2_11  and  C6_13 
REMARK    5  A    between atoms: C6_13  and  C7_14 
REMARK       I    between atoms: C7_14  and  N3_16 
REMARK    6  A    between atoms: N3_16  and  C8_18 
REMARK    7  A    between atoms: C11_21  and  N4_22 
ROOT
HETATM    1  C6  UNL     1      24.605  16.048  31.713  1.00  0.00     0.117 C 
HETATM    2  C16 UNL     1      25.917  16.600  32.323  1.00  0.00     0.046 C 
HETATM    3  C17 UNL     1      26.185  17.848  31.476  1.00  0.00    -0.011 C 
HETATM    4  C18 UNL     1      25.060  18.830  31.554  1.00  0.00     0.005 C 
HETATM    5  C19 UNL     1      23.928  18.183  30.771  1.00  0.00     0.008 C 
HETATM    6  C20 UNL     1      24.467  16.789  30.438  1.00  0.00     0.024 C 
HETATM    7  C21 UNL     1      25.896  17.207  30.104  1.00  0.00     0.012 C 
ENDROOT
BRANCH   1   8
HETATM    8  N2  UNL     1      23.575  16.341  32.696  1.00  0.00    -0.341 N 
HETATM    9  C5  UNL     1      22.244  15.889  32.500  1.00  0.00     0.249 C 
HETATM   10  O1  UNL     1      21.951  15.213  31.442  1.00  0.00    -0.271 OA
ATOM     11  H2  UNL     1      23.810  16.874  33.533  1.00  0.00     0.163 HD
BRANCH   9  12
HETATM   12  C4  UNL     1      21.137  16.140  33.441  1.00  0.00     0.278 C 
BRANCH  12  13
HETATM   13  C2  UNL     1      20.295  17.349  33.082  1.00  0.00     0.017 C 
HETATM   14  C1  UNL     1      18.861  16.986  33.512  1.00  0.00     0.012 C 
HETATM   15  C3  UNL     1      20.632  18.574  33.906  1.00  0.00     0.012 C 
ENDBRANCH  12  13
BRANCH  12  16
HETATM   16  N1  UNL     1      20.197  15.005  33.366  1.00  0.00    -0.066 N 
ATOM     17  H13 UNL     1      20.157  14.438  34.213  1.00  0.00     0.275 HD
ATOM     18  H12 UNL     1      19.214  15.277  33.367  1.00  0.00     0.275 HD
ATOM     19  H11 UNL     1      20.488  14.492  32.534  1.00  0.00     0.275 HD
ENDBRANCH  12  16
ENDBRANCH   9  12
ENDBRANCH   1   8
BRANCH   1  20
HETATM   20  C7  UNL     1      24.706  14.575  31.561  1.00  0.00     0.246 C 
HETATM   21  O2  UNL     1      24.760  14.135  30.363  1.00  0.00    -0.271 OA
HETATM   22  N3  UNL     1      24.753  13.628  32.586  1.00  0.00    -0.354 N 
ATOM     23  H3  UNL     1      24.723  13.952  33.552  1.00  0.00     0.162 HD
BRANCH  22  24
HETATM   24  C8  UNL     1      24.843  12.179  32.330  1.00  0.00     0.085 C 
HETATM   25  C9  UNL     1      23.586  11.524  32.746  1.00  0.00     0.027 C 
HETATM   26  C10 UNL     1      23.597  10.970  34.151  1.00  0.00     0.027 C 
HETATM   27  C11 UNL     1      24.821  10.113  34.279  1.00  0.00     0.087 C 
HETATM   28  C13 UNL     1      26.007  11.083  34.278  1.00  0.00     0.006 C 
HETATM   29  C14 UNL     1      27.285  10.390  34.670  1.00  0.00     0.012 C 
HETATM   30  C15 UNL     1      26.114  11.581  32.870  1.00  0.00     0.031 C 
BRANCH  27  31
HETATM   31  N4  UNL     1      24.849   9.184  35.333  1.00  0.00    -0.362 N 
HETATM   32  C12 UNL     1      24.927   7.931  35.353  1.00  0.00     0.197 C 
HETATM   33  N5  UNL     1      24.934   7.246  36.593  1.00  0.00    -0.067 NA
HETATM   34  N6  UNL     1      25.006   7.189  34.149  1.00  0.00    -0.067 NA
ATOM     35  H4  UNL     1      24.795   9.609  36.258  1.00  0.00     0.162 HD
ENDBRANCH  27  31
ENDBRANCH  22  24
ENDBRANCH   1  20
TORSDOF 7
ENDMDL
MODEL 2
REMARK VINA RESULT: -7.479756055      4.811      6.415
REMARK  7 active torsions:
REMARK  status: ('A' for Active; 'I' for Inactive)
REMARK    1  A    between atoms: C2_2  and  C4_4 
REMARK    2  A    between atoms: C4_4  and  N1_5 
REMARK    3  A    between atoms: C4_4  and  C5_9 
REMARK       I    between atoms: C5_9  and  N2_11 
REMARK    4  A    between atoms: N2_11  and  C6_13 
REMARK    5  A    between atoms: C6_13  and  C7_14 
REMARK       I    between atoms: C7_14  and  N3_16 
REMARK    6  A    between atoms: N3_16  and  C8_18 
REMARK    7  A    between atoms: C11_21  and  N4_22 
ROOT
HETATM    1  C6  UNL     1      23.863  17.627  32.774  1.00  0.00     0.117 C 
HETATM    2  C16 UNL     1      24.626  17.993  31.477  1.00  0.00     0.046 C 
HETATM    3  C17 UNL     1      24.765  16.640  30.772  1.00  0.00    -0.011 C 
HETATM    4  C18 UNL     1      23.437  16.012  30.497  1.00  0.00     0.005 C 
HETATM    5  C19 UNL     1      22.923  15.580  31.862  1.00  0.00     0.008 C 
HETATM    6  C20 UNL     1      23.958  16.151  32.836  1.00  0.00     0.024 C 
HETATM    7  C21 UNL     1      25.201  15.831  32.011  1.00  0.00     0.012 C 
ENDROOT
BRANCH   1   8
HETATM    8  N2  UNL     1      22.515  18.137  32.581  1.00  0.00    -0.341 N 
HETATM    9  C5  UNL     1      21.539  17.995  33.601  1.00  0.00     0.249 C 
HETATM   10  O1  UNL     1      21.854  17.410  34.706  1.00  0.00    -0.271 OA
ATOM     11  H2  UNL     1      22.270  18.601  31.706  1.00  0.00     0.163 HD
BRANCH   9  12
HETATM   12  C4  UNL     1      20.151  18.480  33.492  1.00  0.00     0.278 C 
BRANCH  12  13
HETATM   13  C2  UNL     1      19.132  17.372  33.299  1.00  0.00     0.017 C 
HETATM   14  C1  UNL     1      17.885  18.066  32.720  1.00  0.00     0.012 C 
HETATM   15  C3  UNL     1      19.534  16.376  32.232  1.00  0.00     0.012 C 
ENDBRANCH  12  13
BRANCH  12  16
HETATM   16  N1  UNL     1      19.774  19.102  34.775  1.00  0.00    -0.066 N 
ATOM     17  H13 UNL     1      19.031  19.797  34.701  1.00  0.00     0.275 HD
ATOM     18  H12 UNL     1      19.279  18.478  35.412  1.00  0.00     0.275 HD
ATOM     19  H11 UNL     1      20.652  19.467  35.145  1.00  0.00     0.275 HD
ENDBRANCH  12  16
ENDBRANCH   9  12
ENDBRANCH   1   8
BRANCH   1  20
HETATM   20  C7  UNL     1      24.473  18.333  33.928  1.00  0.00     0.246 C 
HETATM   21  O2  UNL     1      24.815  19.548  33.727  1.00  0.00    -0.271 OA
HETATM   22  N3  UNL     1      24.706  17.812  35.202  1.00  0.00    -0.354 N 
ATOM     23  H3  UNL     1      24.432  16.849  35.393  1.00  0.00     0.162 HD
BRANCH  22  24
HETATM   24  C8  UNL     1      25.330  18.595  36.283  1.00  0.00     0.085 C 
HETATM   25  C9  UNL     1      26.774  18.289  36.345  1.00  0.00     0.027 C 
HETATM   26  C10 UNL     1      27.149  17.205  37.326  1.00  0.00     0.027 C 
HETATM   27  C11 UNL     1      26.529  17.566  38.643  1.00  0.00     0.087 C 
HETATM   28  C13 UNL     1      25.021  17.364  38.460  1.00  0.00     0.006 C 
HETATM   29  C14 UNL     1      24.293  17.430  39.776  1.00  0.00     0.012 C 
HETATM   30  C15 UNL     1      24.573  18.489  37.578  1.00  0.00     0.031 C 
BRANCH  27  31
HETATM   31  N4  UNL     1      27.049  16.945  39.791  1.00  0.00    -0.362 N 
HETATM   32  C12 UNL     1      27.805  17.356  40.706  1.00  0.00     0.197 C 
HETATM   33  N5  UNL     1      28.170  16.485  41.762  1.00  0.00    -0.067 NA
HETATM   34  N6  UNL     1      28.299  18.683  40.697  1.00  0.00    -0.067 NA
ATOM     35  H4  UNL     1      26.757  15.974  39.902  1.00  0.00     0.162 HD
ENDBRANCH  27  31
ENDBRANCH  22  24
ENDBRANCH   1  20
TORSDOF 7
ENDMDL
MODEL 3
REMARK VINA RESULT: -7.123314991      2.608      3.169
REMARK  7 active torsions:
REMARK  status: ('A' for Active; 'I' for Inactive)
REMARK    1  A    between atoms: C2_2  and  C4_4 
REMARK    2  A    between atoms: C4_4  and  N1_5 
REMARK    3  A    between atoms: C4_4  and  C5_9 
REMARK       I    between atoms: C5_9  and  N2_11 
REMARK    4  A    between atoms: N2_11  and  C6_13 
REMARK    5  A    between atoms: C6_13  and  C7_14 
REMARK       I    between atoms: C7_14  and  N3_16 
REMARK    6  A    between atoms: N3_16  and  C8_18 
REMARK    7  A    between atoms: C11_21  and  N4_22 
ROOT
HETATM    1  C6  UNL     1      24.576  17.814  34.273  1.00  0.00     0.117 C 
HETATM    2  C16 UNL     1      24.230  17.280  35.685  1.00  0.00     0.046 C 
HETATM    3  C17 UNL     1      24.967  18.257  36.606  1.00  0.00    -0.011 C 
HETATM    4  C18 UNL     1      24.518  19.668  36.401  1.00  0.00     0.005 C 
HETATM    5  C19 UNL     1      25.084  20.061  35.045  1.00  0.00     0.008 C 
HETATM    6  C20 UNL     1      25.690  18.758  34.514  1.00  0.00     0.024 C 
HETATM    7  C21 UNL     1      26.298  18.276  35.828  1.00  0.00     0.012 C 
ENDROOT
BRANCH   1   8
HETATM    8  N2  UNL     1      23.353  18.433  33.789  1.00  0.00    -0.341 N 
HETATM    9  C5  UNL     1      22.138  17.701  33.760  1.00  0.00     0.249 C 
HETATM   10  O1  UNL     1      22.122  16.479  34.169  1.00  0.00    -0.271 OA
ATOM     11  H2  UNL     1      23.369  19.401  33.467  1.00  0.00     0.163 HD
BRANCH   9  12
HETATM   12  C4  UNL     1      20.854  18.247  33.285  1.00  0.00     0.278 C 
BRANCH  12  13
HETATM   13  C2  UNL     1      19.692  17.280  33.422  1.00  0.00     0.017 C 
HETATM   14  C1  UNL     1      18.433  18.165  33.468  1.00  0.00     0.012 C 
HETATM   15  C3  UNL     1      19.495  16.412  32.198  1.00  0.00     0.012 C 
ENDBRANCH  12  13
BRANCH  12  16
HETATM   16  N1  UNL     1      20.485  19.385  34.148  1.00  0.00    -0.066 N 
ATOM     17  H13 UNL     1      20.293  20.249  33.642  1.00  0.00     0.275 HD
ATOM     18  H12 UNL     1      19.564  19.301  34.578  1.00  0.00     0.275 HD
ATOM     19  H11 UNL     1      21.253  19.453  34.816  1.00  0.00     0.275 HD
ENDBRANCH  12  16
ENDBRANCH   9  12
ENDBRANCH   1   8
BRANCH   1  20
HETATM   20  C7  UNL     1      24.914  16.677  33.380  1.00  0.00     0.246 C 
HETATM   21  O2  UNL     1      25.242  16.981  32.183  1.00  0.00    -0.271 OA
HETATM   22  N3  UNL     1      24.913  15.321  33.711  1.00  0.00    -0.354 N 
ATOM     23  H3  UNL     1      24.665  15.051  34.662  1.00  0.00     0.162 HD
BRANCH  22  24
HETATM   24  C8  UNL     1      25.255  14.263  32.744  1.00  0.00     0.085 C 
HETATM   25  C9  UNL     1      24.026  13.557  32.327  1.00  0.00     0.027 C 
HETATM   26  C10 UNL     1      23.712  12.311  33.120  1.00  0.00     0.027 C 
HETATM   27  C11 UNL     1      24.949  11.464  33.120  1.00  0.00     0.087 C 
HETATM   28  C13 UNL     1      25.955  12.200  34.012  1.00  0.00     0.006 C 
HETATM   29  C14 UNL     1      27.149  11.338  34.324  1.00  0.00     0.012 C 
HETATM   30  C15 UNL     1      26.389  13.396  33.221  1.00  0.00     0.031 C 
BRANCH  27  31
HETATM   31  N4  UNL     1      24.798  10.104  33.440  1.00  0.00    -0.362 N 
HETATM   32  C12 UNL     1      24.715   9.073  32.727  1.00  0.00     0.197 C 
HETATM   33  N5  UNL     1      24.563   7.804  33.340  1.00  0.00    -0.067 NA
HETATM   34  N6  UNL     1      24.770   9.160  31.315  1.00  0.00    -0.067 NA
ATOM     35  H4  UNL     1      24.745   9.919  34.441  1.00  0.00     0.162 HD
ENDBRANCH  27  31
ENDBRANCH  22  24
ENDBRANCH   1  20
TORSDOF 7
ENDMDL
MODEL 4
REMARK VINA RESULT: -6.993553531      1.662      2.001
REMARK  7 active torsions:
REMARK  status: ('A' for Active; 'I' for Inactive)
REMARK    1  A    between atoms: C2_2  and  C4_4 
REMARK    2  A    between atoms: C4_4  and  N1_5 
REMARK    3  A    between atoms: C4_4  and  C5_9 
REMARK       I    between atoms: C5_9  and  N2_11 
REMARK    4  A    between atoms: N2_11  and  C6_13 
REMARK    5  A    between atoms: C6_13  and  C7_14 
REMARK       I    between atoms: C7_14  and  N3_16 
REMARK    6  A    between atoms: N3_16  and  C8_18 
REMARK    7  A    between atoms: C11_21  and  N4_22 
ROOT
HETATM    1  C6  UNL     1      24.548  17.541  31.107  1.00  0.00     0.117 C 
HETATM    2  C16 UNL     1      25.506  17.840  32.286  1.00  0.00     0.046 C 
HETATM    3  C17 UNL     1      26.416  18.932  31.713  1.00  0.00    -0.011 C 
HETATM    4  C18 UNL     1      25.643  20.137  31.283  1.00  0.00     0.005 C 
HETATM    5  C19 UNL     1      24.898  19.693  30.034  1.00  0.00     0.008 C 
HETATM    6  C20 UNL     1      25.198  18.193  29.947  1.00  0.00     0.024 C 
HETATM    7  C21 UNL     1      26.668  18.265  30.346  1.00  0.00     0.012 C 
ENDROOT
BRANCH   1   8
HETATM    8  N2  UNL     1      23.274  18.125  31.493  1.00  0.00    -0.341 N 
HETATM    9  C5  UNL     1      22.577  17.644  32.632  1.00  0.00     0.249 C 
HETATM   10  O1  UNL     1      23.083  16.684  33.328  1.00  0.00    -0.271 OA
ATOM     11  H2  UNL     1      22.877  18.885  30.940  1.00  0.00     0.163 HD
BRANCH   9  12
HETATM   12  C4  UNL     1      21.282  18.174  33.095  1.00  0.00     0.278 C 
BRANCH  12  13
HETATM   13  C2  UNL     1      20.267  17.097  33.427  1.00  0.00     0.017 C 
HETATM   14  C1  UNL     1      18.975  17.855  33.784  1.00  0.00     0.012 C 
HETATM   15  C3  UNL     1      19.885  16.251  32.230  1.00  0.00     0.012 C 
ENDBRANCH  12  13
BRANCH  12  16
HETATM   16  N1  UNL     1      21.499  18.877  34.374  1.00  0.00    -0.066 N 
ATOM     17  H13 UNL     1      22.477  18.941  34.656  1.00  0.00     0.275 HD
ATOM     18  H12 UNL     1      21.329  19.882  34.332  1.00  0.00     0.275 HD
ATOM     19  H11 UNL     1      20.905  18.380  35.037  1.00  0.00     0.275 HD
ENDBRANCH  12  16
ENDBRANCH   9  12
ENDBRANCH   1   8
BRANCH   1  20
HETATM   20  C7  UNL     1      24.371  16.073  30.969  1.00  0.00     0.246 C 
HETATM   21  O2  UNL     1      23.620  15.685  30.010  1.00  0.00    -0.271 OA
HETATM   22  N3  UNL     1      24.939  15.081  31.769  1.00  0.00    -0.354 N 
ATOM     23  H3  UNL     1      25.551  15.362  32.535  1.00  0.00     0.162 HD
BRANCH  22  24
HETATM   24  C8  UNL     1      24.692  13.644  31.556  1.00  0.00     0.085 C 
HETATM   25  C9  UNL     1      23.654  13.176  32.498  1.00  0.00     0.027 C 
HETATM   26  C10 UNL     1      24.186  12.584  33.781  1.00  0.00     0.027 C 
HETATM   27  C11 UNL     1      25.201  11.547  33.403  1.00  0.00     0.087 C 
HETATM   28  C13 UNL     1      26.402  12.325  32.854  1.00  0.00     0.006 C 
HETATM   29  C14 UNL     1      27.604  11.434  32.684  1.00  0.00     0.012 C 
HETATM   30  C15 UNL     1      25.965  12.844  31.519  1.00  0.00     0.031 C 
BRANCH  27  31
HETATM   31  N4  UNL     1      25.541  10.594  34.377  1.00  0.00    -0.362 N 
HETATM   32  C12 UNL     1      24.847   9.800  35.061  1.00  0.00     0.197 C 
HETATM   33  N5  UNL     1      25.478   8.933  35.988  1.00  0.00    -0.067 NA
HETATM   34  N6  UNL     1      23.439   9.760  34.919  1.00  0.00    -0.067 NA
ATOM     35  H4  UNL     1      26.541  10.535  34.566  1.00  0.00     0.162 HD
ENDBRANCH  27  31
ENDBRANCH  22  24
ENDBRANCH   1  20
TORSDOF 7
ENDMDL
MODEL 5
REMARK VINA RESULT: -6.820148687      1.564      3.718
REMARK  7 active torsions:
REMARK  status: ('A' for Active; 'I' for Inactive)
REMARK    1  A    between atoms: C2_2  and  C4_4 
REMARK    2  A    between atoms: C4_4  and  N1_5 
REMARK    3  A    between atoms: C4_4  and  C5_9 
REMARK       I    between atoms: C5_9  and  N2_11 
REMARK    4  A    between atoms: N2_11  and  C6_13 
REMARK    5  A    between atoms: C6_13  and  C7_14 
REMARK       I    between atoms: C7_14  and  N3_16 
REMARK    6  A    between atoms: N3_16  and  C8_18 
REMARK    7  A    between atoms: C11_21  and  N4_22 
ROOT
HETATM    1  C6  UNL     1      23.178  15.734  32.458  1.00  0.00     0.117 C 
HETATM    2  C16 UNL     1      22.105  16.148  31.421  1.00  0.00     0.046 C 
HETATM    3  C17 UNL     1      21.030  16.805  32.292  1.00  0.00    -0.011 C 
HETATM    4  C18 UNL     1      21.565  17.971  33.060  1.00  0.00     0.005 C 
HETATM    5  C19 UNL     1      22.464  17.355  34.120  1.00  0.00     0.008 C 
HETATM    6  C20 UNL     1      22.484  15.867  33.758  1.00  0.00     0.024 C 
HETATM    7  C21 UNL     1      21.008  15.733  33.399  1.00  0.00     0.012 C 
ENDROOT
BRANCH   1   8
HETATM    8  N2  UNL     1      24.278  16.664  32.261  1.00  0.00    -0.341 N 
HETATM    9  C5  UNL     1      25.468  16.542  33.025  1.00  0.00     0.249 C 
HETATM   10  O1  UNL     1      25.571  15.597  33.896  1.00  0.00    -0.271 OA
ATOM     11  H2  UNL     1      24.194  17.409  31.570  1.00  0.00     0.163 HD
BRANCH   9  12
HETATM   12  C4  UNL     1      26.631  17.439  32.894  1.00  0.00     0.278 C 
BRANCH  12  13
HETATM   13  C2  UNL     1      26.267  18.848  32.466  1.00  0.00     0.017 C 
HETATM   14  C1  UNL     1      25.813  19.558  33.754  1.00  0.00     0.012 C 
HETATM   15  C3  UNL     1      27.462  19.653  31.998  1.00  0.00     0.012 C 
ENDBRANCH  12  13
BRANCH  12  16
HETATM   16  N1  UNL     1      27.239  17.608  34.227  1.00  0.00    -0.066 N 
ATOM     17  H13 UNL     1      28.056  18.219  34.239  1.00  0.00     0.275 HD
ATOM     18  H12 UNL     1      26.678  18.160  34.875  1.00  0.00     0.275 HD
ATOM     19  H11 UNL     1      27.425  16.656  34.541  1.00  0.00     0.275 HD
ENDBRANCH  12  16
ENDBRANCH   9  12
ENDBRANCH   1   8
BRANCH   1  20
HETATM   20  C7  UNL     1      23.661  14.363  32.154  1.00  0.00     0.246 C 
HETATM   21  O2  UNL     1      23.990  14.138  30.940  1.00  0.00    -0.271 OA
HETATM   22  N3  UNL     1      23.796  13.303  33.052  1.00  0.00    -0.354 N 
ATOM     23  H3  UNL     1      23.551  13.457  34.030  1.00  0.00     0.162 HD
BRANCH  22  24
HETATM   24  C8  UNL     1      24.276  11.970  32.648  1.00  0.00     0.085 C 
HETATM   25  C9  UNL     1      23.230  10.963  32.922  1.00  0.00     0.027 C 
HETATM   26  C10 UNL     1      23.355  10.269  34.257  1.00  0.00     0.027 C 
HETATM   27  C11 UNL     1      24.760   9.755  34.359  1.00  0.00     0.087 C 
HETATM   28  C13 UNL     1      25.643  10.996  34.528  1.00  0.00     0.006 C 
HETATM   29  C14 UNL     1      27.050  10.622  34.913  1.00  0.00     0.012 C 
HETATM   30  C15 UNL     1      25.647  11.668  33.189  1.00  0.00     0.031 C 
BRANCH  27  31
HETATM   31  N4  UNL     1      25.009   8.748  35.307  1.00  0.00    -0.362 N 
HETATM   32  C12 UNL     1      25.151   7.505  35.202  1.00  0.00     0.197 C 
HETATM   33  N5  UNL     1      25.399   6.724  36.359  1.00  0.00    -0.067 NA
HETATM   34  N6  UNL     1      25.064   6.869  33.940  1.00  0.00    -0.067 NA
ATOM     35  H4  UNL     1      25.090   9.094  36.263  1.00  0.00     0.162 HD
ENDBRANCH  27  31
ENDBRANCH  22  24
ENDBRANCH   1  20
TORSDOF 7
ENDMDL
