MODEL 1
REMARK VINA RESULT: -9.074409977      0.000      0.000
REMARK  6 active torsions:
REMARK  status: ('A' for Active; 'I' for Inactive)
REMARK    1  A    between atoms: C2_2  and  C3_3 
REMARK    2  A    between atoms: C3_3  and  C4_4 
REMARK    3  A    between atoms: C4_4  and  C5_5 
REMARK    4  A    between atoms: C5_5  and  C7_7 
REMARK    5  A    between atoms: C9_9  and  O1_10 
REMARK    6  A    between atoms: C15_20  and  C16_21 
ROOT
HETATM    1  C7  UNL     1      45.103  -4.757   0.447  1.00  0.00    -0.008 C 
HETATM    2  C8  UNL     1      43.662  -4.967   0.649  1.00  0.00     0.037 C 
HETATM    3  C9  UNL     1      43.271  -6.323   1.162  1.00  0.00     0.123 C 
HETATM    4  C10 UNL     1      44.146  -7.444   0.780  1.00  0.00     0.026 C 
HETATM    5  C11 UNL     1      43.763  -8.042  -0.591  1.00  0.00     0.011 C 
HETATM    6  C12 UNL     1      44.965  -9.015  -0.656  1.00  0.00     0.043 C 
HETATM    7  C13 UNL     1      46.044  -7.992  -0.491  1.00  0.00     0.108 C 
HETATM    8  O2  UNL     1      45.804  -7.034  -1.544  1.00  0.00    -0.283 OA
HETATM    9  C14 UNL     1      46.858  -6.970  -2.403  1.00  0.00     0.407 C 
HETATM   10  O3  UNL     1      46.854  -6.388  -3.514  1.00  0.00    -0.229 OA
HETATM   11  O4  UNL     1      47.889  -7.660  -1.806  1.00  0.00    -0.289 OA
HETATM   12  C15 UNL     1      47.413  -8.354  -0.632  1.00  0.00     0.186 C 
HETATM   13  C22 UNL     1      45.610  -7.221   0.766  1.00  0.00    -0.003 C 
HETATM   14  C23 UNL     1      46.182  -7.848   2.024  1.00  0.00     0.019 C 
HETATM   15  C24 UNL     1      46.071  -5.803   0.745  1.00  0.00     0.018 C 
ENDROOT
BRANCH  12  16
HETATM   16  C16 UNL     1      47.912  -9.726  -0.762  1.00  0.00     0.142 C 
HETATM   17  C17 UNL     1      47.970 -10.366  -2.090  1.00  0.00     0.188 C 
HETATM   18  O5  UNL     1      48.129 -11.764  -1.880  1.00  0.00    -0.354 OA
HETATM   19  C18 UNL     1      49.448 -12.022  -1.516  1.00  0.00     0.165 C 
HETATM   20  C19 UNL     1      50.202 -12.303  -2.801  1.00  0.00     0.079 C 
HETATM   21  C20 UNL     1      49.446 -13.295  -0.696  1.00  0.00     0.079 C 
HETATM   22  O6  UNL     1      50.015 -10.961  -0.780  1.00  0.00    -0.284 OA
HETATM   23  C21 UNL     1      49.240  -9.984  -0.141  1.00  0.00     0.270 C 
HETATM   24  O7  UNL     1      49.724  -9.445   0.851  1.00  0.00    -0.265 OA
ENDBRANCH  12  16
BRANCH   3  25
HETATM   25  O1  UNL     1      43.156  -6.324   2.574  1.00  0.00    -0.395 OA
ATOM     26  H1  UNL     1      42.796  -7.145   2.890  1.00  0.00     0.210 HD
ENDBRANCH   3  25
BRANCH   1  27
HETATM   27  C5  UNL     1      45.480  -3.403   1.099  1.00  0.00    -0.014 C 
HETATM   28  C6  UNL     1      44.297  -2.675   1.583  1.00  0.00     0.010 C 
BRANCH  27  29
HETATM   29  C4  UNL     1      46.359  -2.619   0.208  1.00  0.00     0.004 C 
BRANCH  29  30
HETATM   30  C3  UNL     1      46.605  -1.200   0.434  1.00  0.00     0.000 C 
BRANCH  30  31
HETATM   31  C2  UNL     1      47.915  -0.674   0.843  1.00  0.00    -0.005 C 
HETATM   32  C1  UNL     1      48.138  -0.572   2.340  1.00  0.00     0.005 C 
ENDBRANCH  30  31
ENDBRANCH  29  30
ENDBRANCH  27  29
ENDBRANCH   1  27
TORSDOF 6
ENDMDL
MODEL 2
REMARK VINA RESULT: -8.858174545      1.010      1.434
REMARK  6 active torsions:
REMARK  status: ('A' for Active; 'I' for Inactive)
REMARK    1  A    between atoms: C2_2  and  C3_3 
REMARK    2  A    between atoms: C3_3  and  C4_4 
REMARK    3  A    between atoms: C4_4  and  C5_5 
REMARK    4  A    between atoms: C5_5  and  C7_7 
REMARK    5  A    between atoms: C9_9  and  O1_10 
REMARK    6  A    between atoms: C15_20  and  C16_21 
ROOT
HETATM    1  C7  UNL     1      44.848  -4.737   0.391  1.00  0.00    -0.008 C 
HETATM    2  C8  UNL     1      43.420  -5.049   0.548  1.00  0.00     0.037 C 
HETATM    3  C9  UNL     1      43.112  -6.414   1.090  1.00  0.00     0.123 C 
HETATM    4  C10 UNL     1      44.081  -7.477   0.775  1.00  0.00     0.026 C 
HETATM    5  C11 UNL     1      43.796  -8.142  -0.589  1.00  0.00     0.011 C 
HETATM    6  C12 UNL     1      45.068  -9.022  -0.580  1.00  0.00     0.043 C 
HETATM    7  C13 UNL     1      46.061  -7.917  -0.409  1.00  0.00     0.108 C 
HETATM    8  O2  UNL     1      45.792  -7.011  -1.500  1.00  0.00    -0.283 OA
HETATM    9  C14 UNL     1      46.869  -6.893  -2.323  1.00  0.00     0.407 C 
HETATM   10  O3  UNL     1      46.864  -6.345  -3.451  1.00  0.00    -0.229 OA
HETATM   11  O4  UNL     1      47.926  -7.485  -1.667  1.00  0.00    -0.289 OA
HETATM   12  C15 UNL     1      47.458  -8.179  -0.489  1.00  0.00     0.186 C 
HETATM   13  C22 UNL     1      45.524  -7.145   0.806  1.00  0.00    -0.003 C 
HETATM   14  C23 UNL     1      46.093  -7.690   2.103  1.00  0.00     0.019 C 
HETATM   15  C24 UNL     1      45.879  -5.698   0.757  1.00  0.00     0.018 C 
ENDROOT
BRANCH  12  16
HETATM   16  C16 UNL     1      48.063  -9.513  -0.558  1.00  0.00     0.142 C 
HETATM   17  C17 UNL     1      48.180 -10.202  -1.857  1.00  0.00     0.188 C 
HETATM   18  O5  UNL     1      48.445 -11.573  -1.587  1.00  0.00    -0.354 OA
HETATM   19  C18 UNL     1      49.777 -11.713  -1.205  1.00  0.00     0.165 C 
HETATM   20  C19 UNL     1      50.561 -11.989  -2.473  1.00  0.00     0.079 C 
HETATM   21  C20 UNL     1      49.866 -12.946  -0.331  1.00  0.00     0.079 C 
HETATM   22  O6  UNL     1      50.254 -10.581  -0.513  1.00  0.00    -0.284 OA
HETATM   23  C21 UNL     1      49.401  -9.641   0.080  1.00  0.00     0.270 C 
HETATM   24  O7  UNL     1      49.834  -9.024   1.051  1.00  0.00    -0.265 OA
ENDBRANCH  12  16
BRANCH   3  25
HETATM   25  O1  UNL     1      42.943  -6.384   2.496  1.00  0.00    -0.395 OA
ATOM     26  H1  UNL     1      43.318  -7.155   2.906  1.00  0.00     0.210 HD
ENDBRANCH   3  25
BRANCH   1  27
HETATM   27  C5  UNL     1      45.099  -3.339   1.013  1.00  0.00    -0.014 C 
HETATM   28  C6  UNL     1      46.253  -2.663   0.400  1.00  0.00     0.010 C 
BRANCH  27  29
HETATM   29  C4  UNL     1      45.148  -3.422   2.486  1.00  0.00     0.004 C 
BRANCH  29  30
HETATM   30  C3  UNL     1      45.459  -2.257   3.305  1.00  0.00     0.000 C 
BRANCH  30  31
HETATM   31  C2  UNL     1      44.423  -1.440   3.953  1.00  0.00    -0.005 C 
HETATM   32  C1  UNL     1      44.860  -0.051   4.380  1.00  0.00     0.005 C 
ENDBRANCH  30  31
ENDBRANCH  29  30
ENDBRANCH  27  29
ENDBRANCH   1  27
TORSDOF 6
ENDMDL
MODEL 3
REMARK VINA RESULT: -8.593592476      5.213      9.915
REMARK  6 active torsions:
REMARK  status: ('A' for Active; 'I' for Inactive)
REMARK    1  A    between atoms: C2_2  and  C3_3 
REMARK    2  A    between atoms: C3_3  and  C4_4 
REMARK    3  A    between atoms: C4_4  and  C5_5 
REMARK    4  A    between atoms: C5_5  and  C7_7 
REMARK    5  A    between atoms: C9_9  and  O1_10 
REMARK    6  A    between atoms: C15_20  and  C16_21 
ROOT
HETATM    1  C7  UNL     1      48.237   3.655   4.669  1.00  0.00    -0.008 C 
HETATM    2  C8  UNL     1      49.495   3.495   5.411  1.00  0.00     0.037 C 
HETATM    3  C9  UNL     1      50.328   2.308   5.024  1.00  0.00     0.123 C 
HETATM    4  C10 UNL     1      49.598   1.132   4.523  1.00  0.00     0.026 C 
HETATM    5  C11 UNL     1      49.124   0.209   5.667  1.00  0.00     0.011 C 
HETATM    6  C12 UNL     1      48.319  -0.743   4.749  1.00  0.00     0.043 C 
HETATM    7  C13 UNL     1      47.439   0.294   4.127  1.00  0.00     0.108 C 
HETATM    8  O2  UNL     1      46.810   0.958   5.244  1.00  0.00    -0.283 OA
HETATM    9  C14 UNL     1      45.458   0.812   5.209  1.00  0.00     0.407 C 
HETATM   10  O3  UNL     1      44.672   1.099   6.144  1.00  0.00    -0.229 OA
HETATM   11  O4  UNL     1      45.154   0.298   3.968  1.00  0.00    -0.289 OA
HETATM   12  C15 UNL     1      46.363  -0.085   3.275  1.00  0.00     0.186 C 
HETATM   13  C22 UNL     1      48.438   1.351   3.629  1.00  0.00    -0.003 C 
HETATM   14  C23 UNL     1      48.888   1.060   2.210  1.00  0.00     0.019 C 
HETATM   15  C24 UNL     1      47.850   2.722   3.620  1.00  0.00     0.018 C 
ENDROOT
BRANCH  12  16
HETATM   16  C16 UNL     1      46.117  -1.443   2.783  1.00  0.00     0.142 C 
HETATM   17  C17 UNL     1      44.797  -2.071   2.985  1.00  0.00     0.188 C 
HETATM   18  O5  UNL     1      44.952  -3.466   2.755  1.00  0.00    -0.354 OA
HETATM   19  C18 UNL     1      45.035  -3.695   1.384  1.00  0.00     0.165 C 
HETATM   20  C19 UNL     1      43.619  -3.948   0.904  1.00  0.00     0.079 C 
HETATM   21  C20 UNL     1      45.822  -4.974   1.190  1.00  0.00     0.079 C 
HETATM   22  O6  UNL     1      45.653  -2.627   0.702  1.00  0.00    -0.284 OA
HETATM   23  C21 UNL     1      46.450  -1.674   1.351  1.00  0.00     0.270 C 
HETATM   24  O7  UNL     1      47.328  -1.131   0.686  1.00  0.00    -0.265 OA
ENDBRANCH  12  16
BRANCH   3  25
HETATM   25  O1  UNL     1      51.303   2.657   4.056  1.00  0.00    -0.395 OA
ATOM     26  H1  UNL     1      52.010   3.160   4.444  1.00  0.00     0.210 HD
ENDBRANCH   3  25
BRANCH   1  27
HETATM   27  C5  UNL     1      48.145   5.131   4.206  1.00  0.00    -0.014 C 
HETATM   28  C6  UNL     1      47.123   5.319   3.163  1.00  0.00     0.010 C 
BRANCH  27  29
HETATM   29  C4  UNL     1      49.480   5.655   3.856  1.00  0.00     0.004 C 
BRANCH  29  30
HETATM   30  C3  UNL     1      49.826   6.010   2.485  1.00  0.00     0.000 C 
BRANCH  30  31
HETATM   31  C2  UNL     1      50.953   5.400   1.765  1.00  0.00    -0.005 C 
HETATM   32  C1  UNL     1      50.618   4.156   0.963  1.00  0.00     0.005 C 
ENDBRANCH  30  31
ENDBRANCH  29  30
ENDBRANCH  27  29
ENDBRANCH   1  27
TORSDOF 6
ENDMDL
MODEL 4
REMARK VINA RESULT: -8.435778926      5.237      9.625
REMARK  6 active torsions:
REMARK  status: ('A' for Active; 'I' for Inactive)
REMARK    1  A    between atoms: C2_2  and  C3_3 
REMARK    2  A    between atoms: C3_3  and  C4_4 
REMARK    3  A    between atoms: C4_4  and  C5_5 
REMARK    4  A    between atoms: C5_5  and  C7_7 
REMARK    5  A    between atoms: C9_9  and  O1_10 
REMARK    6  A    between atoms: C15_20  and  C16_21 
ROOT
HETATM    1  C7  UNL     1      48.167   3.090   3.750  1.00  0.00    -0.008 C 
HETATM    2  C8  UNL     1      49.369   3.137   4.595  1.00  0.00     0.037 C 
HETATM    3  C9  UNL     1      50.182   1.876   4.635  1.00  0.00     0.123 C 
HETATM    4  C10 UNL     1      49.444   0.616   4.453  1.00  0.00     0.026 C 
HETATM    5  C11 UNL     1      48.865   0.082   5.782  1.00  0.00     0.011 C 
HETATM    6  C12 UNL     1      48.087  -1.087   5.132  1.00  0.00     0.043 C 
HETATM    7  C13 UNL     1      47.286  -0.269   4.170  1.00  0.00     0.108 C 
HETATM    8  O2  UNL     1      46.611   0.708   4.993  1.00  0.00    -0.283 OA
HETATM    9  C14 UNL     1      45.260   0.578   4.906  1.00  0.00     0.407 C 
HETATM   10  O3  UNL     1      44.426   1.142   5.656  1.00  0.00    -0.229 OA
HETATM   11  O4  UNL     1      45.017  -0.277   3.854  1.00  0.00    -0.289 OA
HETATM   12  C15 UNL     1      46.253  -0.866   3.393  1.00  0.00     0.186 C 
HETATM   13  C22 UNL     1      48.351   0.578   3.455  1.00  0.00    -0.003 C 
HETATM   14  C23 UNL     1      48.880  -0.129   2.221  1.00  0.00     0.019 C 
HETATM   15  C24 UNL     1      47.814   1.892   2.999  1.00  0.00     0.018 C 
ENDROOT
BRANCH  12  16
HETATM   16  C16 UNL     1      45.990  -2.306   3.308  1.00  0.00     0.142 C 
HETATM   17  C17 UNL     1      45.109  -2.953   4.299  1.00  0.00     0.188 C 
HETATM   18  O5  UNL     1      45.325  -4.355   4.206  1.00  0.00    -0.354 OA
HETATM   19  C18 UNL     1      44.681  -4.841   3.071  1.00  0.00     0.165 C 
HETATM   20  C19 UNL     1      43.291  -5.259   3.510  1.00  0.00     0.079 C 
HETATM   21  C20 UNL     1      45.420  -6.090   2.636  1.00  0.00     0.079 C 
HETATM   22  O6  UNL     1      44.654  -3.894   2.027  1.00  0.00    -0.284 OA
HETATM   23  C21 UNL     1      45.519  -2.792   1.983  1.00  0.00     0.270 C 
HETATM   24  O7  UNL     1      45.797  -2.341   0.874  1.00  0.00    -0.265 OA
ENDBRANCH  12  16
BRANCH   3  25
HETATM   25  O1  UNL     1      51.228   1.907   3.679  1.00  0.00    -0.395 OA
ATOM     26  H1  UNL     1      52.067   1.707   4.079  1.00  0.00     0.210 HD
ENDBRANCH   3  25
BRANCH   1  27
HETATM   27  C5  UNL     1      48.158   4.362   2.866  1.00  0.00    -0.014 C 
HETATM   28  C6  UNL     1      49.502   4.702   2.374  1.00  0.00     0.010 C 
BRANCH  27  29
HETATM   29  C4  UNL     1      47.458   5.469   3.547  1.00  0.00     0.004 C 
BRANCH  29  30
HETATM   30  C3  UNL     1      46.818   6.544   2.798  1.00  0.00     0.000 C 
BRANCH  30  31
HETATM   31  C2  UNL     1      45.534   6.376   2.103  1.00  0.00    -0.005 C 
HETATM   32  C1  UNL     1      44.638   7.600   2.085  1.00  0.00     0.005 C 
ENDBRANCH  30  31
ENDBRANCH  29  30
ENDBRANCH  27  29
ENDBRANCH   1  27
TORSDOF 6
ENDMDL
MODEL 5
REMARK VINA RESULT: -8.381500952      6.569     11.219
REMARK  6 active torsions:
REMARK  status: ('A' for Active; 'I' for Inactive)
REMARK    1  A    between atoms: C2_2  and  C3_3 
REMARK    2  A    between atoms: C3_3  and  C4_4 
REMARK    3  A    between atoms: C4_4  and  C5_5 
REMARK    4  A    between atoms: C5_5  and  C7_7 
REMARK    5  A    between atoms: C9_9  and  O1_10 
REMARK    6  A    between atoms: C15_20  and  C16_21 
ROOT
HETATM    1  C7  UNL     1      45.826  -1.582   4.375  1.00  0.00    -0.008 C 
HETATM    2  C8  UNL     1      46.338  -2.355   5.515  1.00  0.00     0.037 C 
HETATM    3  C9  UNL     1      47.049  -1.559   6.570  1.00  0.00     0.123 C 
HETATM    4  C10 UNL     1      47.746  -0.345   6.115  1.00  0.00     0.026 C 
HETATM    5  C11 UNL     1      49.177  -0.644   5.619  1.00  0.00     0.011 C 
HETATM    6  C12 UNL     1      49.453   0.795   5.120  1.00  0.00     0.043 C 
HETATM    7  C13 UNL     1      48.281   0.902   4.197  1.00  0.00     0.108 C 
HETATM    8  O2  UNL     1      48.410  -0.230   3.310  1.00  0.00    -0.283 OA
HETATM    9  C14 UNL     1      48.561   0.169   2.017  1.00  0.00     0.407 C 
HETATM   10  O3  UNL     1      48.897  -0.573   1.063  1.00  0.00    -0.229 OA
HETATM   11  O4  UNL     1      48.272   1.515   1.990  1.00  0.00    -0.289 OA
HETATM   12  C15 UNL     1      48.138   2.026   3.335  1.00  0.00     0.186 C 
HETATM   13  C22 UNL     1      47.094   0.496   5.085  1.00  0.00    -0.003 C 
HETATM   14  C23 UNL     1      46.493   1.700   5.786  1.00  0.00     0.019 C 
HETATM   15  C24 UNL     1      45.994  -0.137   4.301  1.00  0.00     0.018 C 
ENDROOT
BRANCH  12  16
HETATM   16  C16 UNL     1      48.969   3.232   3.378  1.00  0.00     0.142 C 
HETATM   17  C17 UNL     1      50.204   3.305   2.573  1.00  0.00     0.188 C 
HETATM   18  O5  UNL     1      50.975   4.387   3.078  1.00  0.00    -0.354 OA
HETATM   19  C18 UNL     1      50.420   5.586   2.637  1.00  0.00     0.165 C 
HETATM   20  C19 UNL     1      51.112   5.927   1.331  1.00  0.00     0.079 C 
HETATM   21  C20 UNL     1      50.794   6.651   3.647  1.00  0.00     0.079 C 
HETATM   22  O6  UNL     1      49.019   5.506   2.499  1.00  0.00    -0.284 OA
HETATM   23  C21 UNL     1      48.253   4.511   3.121  1.00  0.00     0.270 C 
HETATM   24  O7  UNL     1      47.086   4.786   3.387  1.00  0.00    -0.265 OA
ENDBRANCH  12  16
BRANCH   3  25
HETATM   25  O1  UNL     1      46.168  -1.187   7.615  1.00  0.00    -0.395 OA
ATOM     26  H1  UNL     1      46.547  -0.507   8.160  1.00  0.00     0.210 HD
ENDBRANCH   3  25
BRANCH   1  27
HETATM   27  C5  UNL     1      44.358  -2.016   4.129  1.00  0.00    -0.014 C 
HETATM   28  C6  UNL     1      44.026  -3.263   4.835  1.00  0.00     0.010 C 
BRANCH  27  29
HETATM   29  C4  UNL     1      44.051  -2.029   2.685  1.00  0.00     0.004 C 
BRANCH  29  30
HETATM   30  C3  UNL     1      44.448  -3.141   1.830  1.00  0.00     0.000 C 
BRANCH  30  31
HETATM   31  C2  UNL     1      45.632  -3.093   0.960  1.00  0.00    -0.005 C 
HETATM   32  C1  UNL     1      45.891  -1.759   0.284  1.00  0.00     0.005 C 
ENDBRANCH  30  31
ENDBRANCH  29  30
ENDBRANCH  27  29
ENDBRANCH   1  27
TORSDOF 6
ENDMDL
