MODEL 1
REMARK VINA RESULT: -6.938472376      0.000      0.000
REMARK  4 active torsions:
REMARK  status: ('A' for Active; 'I' for Inactive)
REMARK    1  A    between atoms: C3_4  and  C4_5 
REMARK    2  A    between atoms: N3_13  and  C7_14 
REMARK    3  A    between atoms: C7_14  and  C8_15 
REMARK    4  A    between atoms: C8_15  and  C9_17 
REMARK       I    between atoms: C9_17  and  N4_19 
ROOT
HETATM    1  C1  UNL     1      19.504  19.403  34.090  1.00  0.00     0.115 C 
HETATM    2  N1  UNL     1      20.094  18.330  33.747  1.00  0.00    -0.389 N 
HETATM    3  C2  UNL     1      19.872  17.350  32.740  1.00  0.00     0.166 C 
HETATM    4  C3  UNL     1      21.242  16.704  32.995  1.00  0.00     0.158 C 
HETATM    5  N2  UNL     1      22.117  17.017  31.928  1.00  0.00    -0.334 N 
ATOM      6  H2  UNL     1      21.707  16.753  31.032  1.00  0.00     0.164 HD
HETATM    7  C5  UNL     1      23.389  17.588  31.749  1.00  0.00     0.266 C 
HETATM    8  O3  UNL     1      23.387  18.329  30.695  1.00  0.00    -0.267 OA
HETATM    9  C6  UNL     1      24.682  17.608  32.365  1.00  0.00     0.282 C 
HETATM   10  N3  UNL     1      24.843  17.714  33.767  1.00  0.00    -0.013 N 
HETATM   11  C11 UNL     1      25.521  16.423  34.245  1.00  0.00     0.249 C 
HETATM   12  C12 UNL     1      25.340  16.567  35.735  1.00  0.00     0.031 C 
HETATM   13  C13 UNL     1      24.047  17.315  35.921  1.00  0.00     0.036 C 
HETATM   14  C14 UNL     1      23.632  17.493  34.460  1.00  0.00     0.203 C 
HETATM   15  C15 UNL     1      22.503  18.422  34.318  1.00  0.00     0.062 C 
HETATM   16  C16 UNL     1      21.235  17.588  34.173  1.00  0.00     0.125 C 
ENDROOT
BRANCH  10  17
HETATM   17  C7  UNL     1      25.707  18.707  34.260  1.00  0.00     0.269 C 
BRANCH  17  18
HETATM   18  C8  UNL     1      25.747  20.033  33.664  1.00  0.00     0.262 C 
HETATM   19  O4  UNL     1      24.906  20.926  33.883  1.00  0.00    -0.281 OA
BRANCH  18  20
HETATM   20  C9  UNL     1      26.820  20.436  32.725  1.00  0.00     0.292 C 
HETATM   21  O5  UNL     1      26.859  21.654  32.415  1.00  0.00    -0.264 OA
HETATM   22  N4  UNL     1      27.750  19.527  32.201  1.00  0.00    -0.359 N 
HETATM   23  C10 UNL     1      28.784  19.921  31.296  1.00  0.00     0.149 C 
ATOM     24  H4  UNL     1      27.687  18.547  32.475  1.00  0.00     0.162 HD
ENDBRANCH  18  20
ENDBRANCH  17  18
ENDBRANCH  10  17
BRANCH   4  25
HETATM   25  C4  UNL     1      21.120  15.264  33.320  1.00  0.00     0.206 C 
HETATM   26  O1  UNL     1      20.026  14.679  33.470  1.00  0.00    -0.646 OA
HETATM   27  O2  UNL     1      22.279  14.529  33.463  1.00  0.00    -0.646 OA
ENDBRANCH   4  25
TORSDOF 4
ENDMDL
MODEL 2
REMARK VINA RESULT: -6.839347838      1.702      6.412
REMARK  4 active torsions:
REMARK  status: ('A' for Active; 'I' for Inactive)
REMARK    1  A    between atoms: C3_4  and  C4_5 
REMARK    2  A    between atoms: N3_13  and  C7_14 
REMARK    3  A    between atoms: C7_14  and  C8_15 
REMARK    4  A    between atoms: C8_15  and  C9_17 
REMARK       I    between atoms: C9_17  and  N4_19 
ROOT
HETATM    1  C1  UNL     1      28.852  16.232  32.025  1.00  0.00     0.115 C 
HETATM    2  N1  UNL     1      28.158  17.290  32.163  1.00  0.00    -0.389 N 
HETATM    3  C2  UNL     1      28.170  18.575  31.552  1.00  0.00     0.166 C 
HETATM    4  C3  UNL     1      26.822  18.945  32.188  1.00  0.00     0.158 C 
HETATM    5  N2  UNL     1      25.813  18.928  31.196  1.00  0.00    -0.334 N 
ATOM      6  H2  UNL     1      26.065  19.527  30.409  1.00  0.00     0.164 HD
HETATM    7  C5  UNL     1      24.562  18.323  30.984  1.00  0.00     0.266 C 
HETATM    8  O3  UNL     1      24.442  17.996  29.744  1.00  0.00    -0.267 OA
HETATM    9  C6  UNL     1      23.381  17.956  31.707  1.00  0.00     0.282 C 
HETATM   10  N3  UNL     1      23.442  17.357  32.988  1.00  0.00    -0.013 N 
HETATM   11  C11 UNL     1      22.775  18.325  33.974  1.00  0.00     0.249 C 
HETATM   12  C12 UNL     1      23.189  17.696  35.280  1.00  0.00     0.031 C 
HETATM   13  C13 UNL     1      24.535  17.070  35.027  1.00  0.00     0.036 C 
HETATM   14  C14 UNL     1      24.730  17.452  33.558  1.00  0.00     0.203 C 
HETATM   15  C15 UNL     1      25.874  16.754  32.957  1.00  0.00     0.062 C 
HETATM   16  C16 UNL     1      27.057  17.715  32.963  1.00  0.00     0.125 C 
ENDROOT
BRANCH  10  17
HETATM   17  C7  UNL     1      22.719  16.170  33.197  1.00  0.00     0.269 C 
BRANCH  17  18
HETATM   18  C8  UNL     1      21.859  15.621  32.161  1.00  0.00     0.262 C 
HETATM   19  O4  UNL     1      22.246  14.837  31.272  1.00  0.00    -0.281 OA
BRANCH  18  20
HETATM   20  C9  UNL     1      20.419  15.957  32.080  1.00  0.00     0.292 C 
HETATM   21  O5  UNL     1      19.663  15.059  31.631  1.00  0.00    -0.264 OA
HETATM   22  N4  UNL     1      19.907  17.201  32.477  1.00  0.00    -0.359 N 
HETATM   23  C10 UNL     1      18.516  17.520  32.398  1.00  0.00     0.149 C 
ATOM     24  H4  UNL     1      20.552  17.905  32.836  1.00  0.00     0.162 HD
ENDBRANCH  18  20
ENDBRANCH  17  18
ENDBRANCH  10  17
BRANCH   4  25
HETATM   25  C4  UNL     1      26.913  20.189  32.987  1.00  0.00     0.206 C 
HETATM   26  O1  UNL     1      27.463  20.253  34.106  1.00  0.00    -0.646 OA
HETATM   27  O2  UNL     1      26.359  21.340  32.463  1.00  0.00    -0.646 OA
ENDBRANCH   4  25
TORSDOF 4
ENDMDL
MODEL 3
REMARK VINA RESULT: -6.696823885      1.059      1.179
REMARK  4 active torsions:
REMARK  status: ('A' for Active; 'I' for Inactive)
REMARK    1  A    between atoms: C3_4  and  C4_5 
REMARK    2  A    between atoms: N3_13  and  C7_14 
REMARK    3  A    between atoms: C7_14  and  C8_15 
REMARK    4  A    between atoms: C8_15  and  C9_17 
REMARK       I    between atoms: C9_17  and  N4_19 
ROOT
HETATM    1  C1  UNL     1      20.251  18.630  34.211  1.00  0.00     0.115 C 
HETATM    2  N1  UNL     1      20.940  17.735  33.626  1.00  0.00    -0.389 N 
HETATM    3  C2  UNL     1      20.750  16.930  32.469  1.00  0.00     0.166 C 
HETATM    4  C3  UNL     1      22.212  16.459  32.495  1.00  0.00     0.158 C 
HETATM    5  N2  UNL     1      22.927  17.084  31.446  1.00  0.00    -0.334 N 
ATOM      6  H2  UNL     1      22.469  16.927  30.549  1.00  0.00     0.164 HD
HETATM    7  C5  UNL     1      24.089  17.860  31.288  1.00  0.00     0.266 C 
HETATM    8  O3  UNL     1      23.885  18.770  30.398  1.00  0.00    -0.267 OA
HETATM    9  C6  UNL     1      25.422  17.961  31.800  1.00  0.00     0.282 C 
HETATM   10  N3  UNL     1      25.707  17.836  33.182  1.00  0.00    -0.013 N 
HETATM   11  C11 UNL     1      26.593  16.596  33.352  1.00  0.00     0.249 C 
HETATM   12  C12 UNL     1      26.544  16.441  34.851  1.00  0.00     0.031 C 
HETATM   13  C13 UNL     1      25.188  16.944  35.272  1.00  0.00     0.036 C 
HETATM   14  C14 UNL     1      24.611  17.317  33.905  1.00  0.00     0.203 C 
HETATM   15  C15 UNL     1      23.361  18.079  34.027  1.00  0.00     0.062 C 
HETATM   16  C16 UNL     1      22.205  17.106  33.818  1.00  0.00     0.125 C 
ENDROOT
BRANCH  10  17
HETATM   17  C7  UNL     1      26.477  18.841  33.791  1.00  0.00     0.269 C 
BRANCH  17  18
HETATM   18  C8  UNL     1      26.485  20.200  33.273  1.00  0.00     0.262 C 
HETATM   19  O4  UNL     1      25.532  20.996  33.378  1.00  0.00    -0.281 OA
BRANCH  18  20
HETATM   20  C9  UNL     1      27.659  20.759  32.563  1.00  0.00     0.292 C 
HETATM   21  O5  UNL     1      27.729  22.013  32.508  1.00  0.00    -0.264 OA
HETATM   22  N4  UNL     1      28.647  19.954  31.978  1.00  0.00    -0.359 N 
HETATM   23  C10 UNL     1      29.777  20.498  31.294  1.00  0.00     0.149 C 
ATOM     24  H4  UNL     1      28.554  18.940  32.043  1.00  0.00     0.162 HD
ENDBRANCH  18  20
ENDBRANCH  17  18
ENDBRANCH  10  17
BRANCH   4  25
HETATM   25  C4  UNL     1      22.313  14.982  32.546  1.00  0.00     0.206 C 
HETATM   26  O1  UNL     1      21.875  14.291  33.490  1.00  0.00    -0.646 OA
HETATM   27  O2  UNL     1      22.926  14.335  31.491  1.00  0.00    -0.646 OA
ENDBRANCH   4  25
TORSDOF 4
ENDMDL
MODEL 4
REMARK VINA RESULT: -6.590526050      2.358      6.063
REMARK  4 active torsions:
REMARK  status: ('A' for Active; 'I' for Inactive)
REMARK    1  A    between atoms: C3_4  and  C4_5 
REMARK    2  A    between atoms: N3_13  and  C7_14 
REMARK    3  A    between atoms: C7_14  and  C8_15 
REMARK    4  A    between atoms: C8_15  and  C9_17 
REMARK       I    between atoms: C9_17  and  N4_19 
ROOT
HETATM    1  C1  UNL     1      26.177  20.565  33.009  1.00  0.00     0.115 C 
HETATM    2  N1  UNL     1      26.291  19.346  33.355  1.00  0.00    -0.389 N 
HETATM    3  C2  UNL     1      26.817  18.680  34.497  1.00  0.00     0.166 C 
HETATM    4  C3  UNL     1      26.215  17.338  34.053  1.00  0.00     0.158 C 
HETATM    5  N2  UNL     1      25.111  17.021  34.879  1.00  0.00    -0.334 N 
ATOM      6  H2  UNL     1      25.375  17.038  35.864  1.00  0.00     0.164 HD
HETATM    7  C5  UNL     1      23.753  16.689  34.730  1.00  0.00     0.266 C 
HETATM    8  O3  UNL     1      23.065  17.246  35.666  1.00  0.00    -0.267 OA
HETATM    9  C6  UNL     1      22.894  15.931  33.871  1.00  0.00     0.282 C 
HETATM   10  N3  UNL     1      23.031  15.954  32.462  1.00  0.00    -0.013 N 
HETATM   11  C11 UNL     1      23.398  14.532  32.018  1.00  0.00     0.249 C 
HETATM   12  C12 UNL     1      23.794  14.798  30.588  1.00  0.00     0.031 C 
HETATM   13  C13 UNL     1      24.378  16.186  30.574  1.00  0.00     0.036 C 
HETATM   14  C14 UNL     1      24.251  16.539  32.057  1.00  0.00     0.203 C 
HETATM   15  C15 UNL     1      24.524  17.960  32.308  1.00  0.00     0.062 C 
HETATM   16  C16 UNL     1      25.962  18.074  32.802  1.00  0.00     0.125 C 
ENDROOT
BRANCH  10  17
HETATM   17  C7  UNL     1      21.888  16.224  31.691  1.00  0.00     0.269 C 
BRANCH  17  18
HETATM   18  C8  UNL     1      20.572  16.319  32.304  1.00  0.00     0.262 C 
HETATM   19  O4  UNL     1      19.815  15.347  32.494  1.00  0.00    -0.281 OA
BRANCH  18  20
HETATM   20  C9  UNL     1      20.016  17.613  32.765  1.00  0.00     0.292 C 
HETATM   21  O5  UNL     1      20.850  18.466  33.161  1.00  0.00    -0.264 OA
HETATM   22  N4  UNL     1      18.642  17.890  32.767  1.00  0.00    -0.359 N 
HETATM   23  C10 UNL     1      18.110  19.139  33.212  1.00  0.00     0.149 C 
ATOM     24  H4  UNL     1      17.996  17.171  32.439  1.00  0.00     0.162 HD
ENDBRANCH  18  20
ENDBRANCH  17  18
ENDBRANCH  10  17
BRANCH   4  25
HETATM   25  C4  UNL     1      27.249  16.283  33.935  1.00  0.00     0.206 C 
HETATM   26  O1  UNL     1      28.019  16.177  32.958  1.00  0.00    -0.646 OA
HETATM   27  O2  UNL     1      27.365  15.369  34.962  1.00  0.00    -0.646 OA
ENDBRANCH   4  25
TORSDOF 4
ENDMDL
MODEL 5
REMARK VINA RESULT: -6.559651613      2.407      6.141
REMARK  4 active torsions:
REMARK  status: ('A' for Active; 'I' for Inactive)
REMARK    1  A    between atoms: C3_4  and  C4_5 
REMARK    2  A    between atoms: N3_13  and  C7_14 
REMARK    3  A    between atoms: C7_14  and  C8_15 
REMARK    4  A    between atoms: C8_15  and  C9_17 
REMARK       I    between atoms: C9_17  and  N4_19 
ROOT
HETATM    1  C1  UNL     1      27.039  18.785  32.290  1.00  0.00     0.115 C 
HETATM    2  N1  UNL     1      26.493  17.817  32.908  1.00  0.00    -0.389 N 
HETATM    3  C2  UNL     1      26.846  17.034  34.043  1.00  0.00     0.166 C 
HETATM    4  C3  UNL     1      25.447  16.402  34.104  1.00  0.00     0.158 C 
HETATM    5  N2  UNL     1      24.735  16.939  35.202  1.00  0.00    -0.334 N 
ATOM      6  H2  UNL     1      25.263  16.832  36.067  1.00  0.00     0.164 HD
HETATM    7  C5  UNL     1      23.506  17.579  35.441  1.00  0.00     0.266 C 
HETATM    8  O3  UNL     1      23.662  18.503  36.325  1.00  0.00    -0.267 OA
HETATM    9  C6  UNL     1      22.139  17.530  35.015  1.00  0.00     0.282 C 
HETATM   10  N3  UNL     1      21.783  17.379  33.653  1.00  0.00    -0.013 N 
HETATM   11  C11 UNL     1      21.032  16.047  33.526  1.00  0.00     0.249 C 
HETATM   12  C12 UNL     1      21.003  15.904  32.025  1.00  0.00     0.031 C 
HETATM   13  C13 UNL     1      22.264  16.557  31.525  1.00  0.00     0.036 C 
HETATM   14  C14 UNL     1      22.883  16.989  32.857  1.00  0.00     0.203 C 
HETATM   15  C15 UNL     1      24.029  17.887  32.664  1.00  0.00     0.062 C 
HETATM   16  C16 UNL     1      25.297  17.050  32.790  1.00  0.00     0.125 C 
ENDROOT
BRANCH  10  17
HETATM   17  C7  UNL     1      20.868  18.293  33.104  1.00  0.00     0.269 C 
BRANCH  17  18
HETATM   18  C8  UNL     1      19.646  18.648  33.808  1.00  0.00     0.262 C 
HETATM   19  O4  UNL     1      19.601  18.992  35.005  1.00  0.00    -0.281 OA
BRANCH  18  20
HETATM   20  C9  UNL     1      18.324  18.629  33.138  1.00  0.00     0.292 C 
HETATM   21  O5  UNL     1      17.410  19.289  33.695  1.00  0.00    -0.264 OA
HETATM   22  N4  UNL     1      18.085  17.922  31.952  1.00  0.00    -0.359 N 
HETATM   23  C10 UNL     1      16.808  17.908  31.310  1.00  0.00     0.149 C 
ATOM     24  H4  UNL     1      18.852  17.397  31.530  1.00  0.00     0.162 HD
ENDBRANCH  18  20
ENDBRANCH  17  18
ENDBRANCH  10  17
BRANCH   4  25
HETATM   25  C4  UNL     1      25.509  14.922  34.044  1.00  0.00     0.206 C 
HETATM   26  O1  UNL     1      26.555  14.266  34.232  1.00  0.00    -0.646 OA
HETATM   27  O2  UNL     1      24.345  14.234  33.767  1.00  0.00    -0.646 OA
ENDBRANCH   4  25
TORSDOF 4
ENDMDL
