MODEL 1
REMARK VINA RESULT: -7.038633085      0.000      0.000
REMARK  6 active torsions:
REMARK  status: ('A' for Active; 'I' for Inactive)
REMARK    1  A    between atoms: C3_3  and  N1_4 
REMARK    2  A    between atoms: N2_7  and  C6_8 
REMARK    3  A    between atoms: C6_8  and  C7_9 
REMARK    4  A    between atoms: C7_9  and  C8_10 
REMARK       I    between atoms: C8_10  and  N3_12 
REMARK    5  A    between atoms: C11_15  and  C12_16 
REMARK    6  A    between atoms: C17_25  and  O2_26 
ROOT
HETATM    1  C1  UNL     1      27.669  11.610  27.932  1.00  0.00     0.013 C 
HETATM    2  C2  UNL     1      27.828  12.260  28.934  1.00  0.00    -0.089 C 
HETATM    3  C3  UNL     1      28.038  13.062  30.137  1.00  0.00     0.330 C 
ENDROOT
BRANCH   3   4
HETATM    4  N1  UNL     1      26.802  13.529  30.706  1.00  0.00    -0.050 N 
HETATM    5  C4  UNL     1      26.030  12.415  31.245  1.00  0.00     0.266 C 
HETATM    6  C5  UNL     1      24.895  12.995  32.025  1.00  0.00     0.268 C 
HETATM    7  N2  UNL     1      24.752  14.430  31.803  1.00  0.00    -0.036 N 
HETATM    8  C15 UNL     1      24.677  14.603  30.358  1.00  0.00     0.268 C 
HETATM    9  C17 UNL     1      25.910  15.157  32.255  1.00  0.00     0.349 C 
HETATM   10  C16 UNL     1      25.978  14.201  29.748  1.00  0.00     0.266 C 
HETATM   11  C18 UNL     1      27.135  14.376  31.835  1.00  0.00     0.300 C 
BRANCH   7  12
HETATM   12  C6  UNL     1      23.557  14.864  32.460  1.00  0.00     0.250 C 
BRANCH  12  13
HETATM   13  C7  UNL     1      22.612  15.612  31.564  1.00  0.00     0.131 C 
BRANCH  13  14
HETATM   14  C8  UNL     1      22.477  16.994  32.071  1.00  0.00     0.221 C 
HETATM   15  O1  UNL     1      23.200  17.933  31.679  1.00  0.00    -0.273 OA
HETATM   16  N3  UNL     1      21.488  17.259  33.042  1.00  0.00    -0.352 N 
HETATM   17  C9  UNL     1      20.605  16.199  33.547  1.00  0.00     0.126 C 
HETATM   18  C14 UNL     1      21.269  18.572  33.607  1.00  0.00     0.126 C 
HETATM   19  C10 UNL     1      19.209  16.693  33.157  1.00  0.00     0.032 C 
HETATM   20  C11 UNL     1      18.892  17.849  34.064  1.00  0.00     0.053 C 
HETATM   21  C13 UNL     1      20.049  18.709  34.414  1.00  0.00     0.032 C 
BRANCH  20  22
HETATM   22  C12 UNL     1      17.857  18.672  33.385  1.00  0.00     0.091 C 
HETATM   23  N4  UNL     1      17.378  19.717  33.944  1.00  0.00    -0.391 N 
ATOM     24  H42 UNL     1      17.726  19.972  34.869  1.00  0.00     0.157 HD
ATOM     25  H41 UNL     1      16.669  20.282  33.478  1.00  0.00     0.157 HD
HETATM   26  N5  UNL     1      17.368  18.314  32.083  1.00  0.00    -0.088 NA
ENDBRANCH  20  22
ENDBRANCH  13  14
ENDBRANCH  12  13
ENDBRANCH   7  12
BRANCH   9  27
HETATM   27  O2  UNL     1      25.941  16.373  31.557  1.00  0.00    -0.368 OA
ATOM     28  H2  UNL     1      25.452  17.007  32.067  1.00  0.00     0.212 HD
ENDBRANCH   9  27
ENDBRANCH   3   4
TORSDOF 6
ENDMDL
MODEL 2
REMARK VINA RESULT: -6.932770883      1.530      2.358
REMARK  6 active torsions:
REMARK  status: ('A' for Active; 'I' for Inactive)
REMARK    1  A    between atoms: C3_3  and  N1_4 
REMARK    2  A    between atoms: N2_7  and  C6_8 
REMARK    3  A    between atoms: C6_8  and  C7_9 
REMARK    4  A    between atoms: C7_9  and  C8_10 
REMARK       I    between atoms: C8_10  and  N3_12 
REMARK    5  A    between atoms: C11_15  and  C12_16 
REMARK    6  A    between atoms: C17_25  and  O2_26 
ROOT
HETATM    1  C1  UNL     1      24.698   9.084  31.642  1.00  0.00     0.013 C 
HETATM    2  C2  UNL     1      25.235   9.942  32.296  1.00  0.00    -0.089 C 
HETATM    3  C3  UNL     1      25.908  10.971  33.084  1.00  0.00     0.330 C 
ENDROOT
BRANCH   3   4
HETATM    4  N1  UNL     1      25.582  12.301  32.641  1.00  0.00    -0.050 N 
HETATM    5  C4  UNL     1      25.922  12.473  31.233  1.00  0.00     0.266 C 
HETATM    6  C5  UNL     1      25.337  13.774  30.789  1.00  0.00     0.268 C 
HETATM    7  N2  UNL     1      24.852  14.570  31.911  1.00  0.00    -0.036 N 
HETATM    8  C15 UNL     1      25.969  14.667  32.842  1.00  0.00     0.268 C 
HETATM    9  C17 UNL     1      23.778  13.911  32.608  1.00  0.00     0.349 C 
HETATM   10  C16 UNL     1      26.278  13.310  33.380  1.00  0.00     0.266 C 
HETATM   11  C18 UNL     1      24.142  12.448  32.732  1.00  0.00     0.300 C 
BRANCH   7  12
HETATM   12  C6  UNL     1      24.457  15.851  31.408  1.00  0.00     0.250 C 
BRANCH  12  13
HETATM   13  C7  UNL     1      22.974  16.084  31.446  1.00  0.00     0.131 C 
BRANCH  13  14
HETATM   14  C8  UNL     1      22.717  17.373  32.121  1.00  0.00     0.221 C 
HETATM   15  O1  UNL     1      23.392  18.399  31.902  1.00  0.00    -0.273 OA
HETATM   16  N3  UNL     1      21.662  17.443  33.055  1.00  0.00    -0.352 N 
HETATM   17  C9  UNL     1      20.829  16.272  33.360  1.00  0.00     0.126 C 
HETATM   18  C14 UNL     1      21.322  18.651  33.773  1.00  0.00     0.126 C 
HETATM   19  C10 UNL     1      19.424  16.728  32.953  1.00  0.00     0.032 C 
HETATM   20  C11 UNL     1      18.980  17.728  33.983  1.00  0.00     0.053 C 
HETATM   21  C13 UNL     1      20.055  18.603  34.515  1.00  0.00     0.032 C 
BRANCH  20  22
HETATM   22  C12 UNL     1      17.929  18.571  33.355  1.00  0.00     0.091 C 
HETATM   23  N4  UNL     1      17.468  19.602  33.955  1.00  0.00    -0.391 N 
ATOM     24  H42 UNL     1      17.843  19.832  34.875  1.00  0.00     0.157 HD
ATOM     25  H41 UNL     1      16.747  20.180  33.524  1.00  0.00     0.157 HD
HETATM   26  N5  UNL     1      17.401  18.247  32.058  1.00  0.00    -0.088 NA
ENDBRANCH  20  22
ENDBRANCH  13  14
ENDBRANCH  12  13
ENDBRANCH   7  12
BRANCH   9  27
HETATM   27  O2  UNL     1      23.739  14.434  33.909  1.00  0.00    -0.368 OA
ATOM     28  H2  UNL     1      23.007  14.027  34.357  1.00  0.00     0.212 HD
ENDBRANCH   9  27
ENDBRANCH   3   4
TORSDOF 6
ENDMDL
MODEL 3
REMARK VINA RESULT: -6.619482515      2.313      8.606
REMARK  6 active torsions:
REMARK  status: ('A' for Active; 'I' for Inactive)
REMARK    1  A    between atoms: C3_3  and  N1_4 
REMARK    2  A    between atoms: N2_7  and  C6_8 
REMARK    3  A    between atoms: C6_8  and  C7_9 
REMARK    4  A    between atoms: C7_9  and  C8_10 
REMARK       I    between atoms: C8_10  and  N3_12 
REMARK    5  A    between atoms: C11_15  and  C12_16 
REMARK    6  A    between atoms: C17_25  and  O2_26 
ROOT
HETATM    1  C1  UNL     1      18.507  18.124  32.845  1.00  0.00     0.013 C 
HETATM    2  C2  UNL     1      19.531  18.074  33.477  1.00  0.00    -0.089 C 
HETATM    3  C3  UNL     1      20.760  18.009  34.266  1.00  0.00     0.330 C 
ENDROOT
BRANCH   3   4
HETATM    4  N1  UNL     1      21.743  17.139  33.675  1.00  0.00    -0.050 N 
HETATM    5  C4  UNL     1      22.873  16.952  34.579  1.00  0.00     0.266 C 
HETATM    6  C5  UNL     1      23.721  15.860  34.011  1.00  0.00     0.268 C 
HETATM    7  N2  UNL     1      23.326  15.509  32.651  1.00  0.00    -0.036 N 
HETATM    8  C15 UNL     1      23.323  16.759  31.902  1.00  0.00     0.268 C 
HETATM    9  C17 UNL     1      21.985  14.986  32.602  1.00  0.00     0.349 C 
HETATM   10  C16 UNL     1      22.257  17.652  32.442  1.00  0.00     0.266 C 
HETATM   11  C18 UNL     1      21.129  15.835  33.516  1.00  0.00     0.300 C 
BRANCH   7  12
HETATM   12  C6  UNL     1      24.283  14.576  32.138  1.00  0.00     0.250 C 
BRANCH  12  13
HETATM   13  C7  UNL     1      24.721  13.547  33.140  1.00  0.00     0.131 C 
BRANCH  13  14
HETATM   14  C8  UNL     1      24.513  12.205  32.557  1.00  0.00     0.221 C 
HETATM   15  O1  UNL     1      23.382  11.706  32.391  1.00  0.00    -0.273 OA
HETATM   16  N3  UNL     1      25.647  11.457  32.173  1.00  0.00    -0.352 N 
HETATM   17  C9  UNL     1      27.007  11.986  32.342  1.00  0.00     0.126 C 
HETATM   18  C14 UNL     1      25.561  10.136  31.593  1.00  0.00     0.126 C 
HETATM   19  C10 UNL     1      27.547  12.024  30.908  1.00  0.00     0.032 C 
HETATM   20  C11 UNL     1      27.793  10.597  30.503  1.00  0.00     0.053 C 
HETATM   21  C13 UNL     1      26.816   9.615  31.036  1.00  0.00     0.032 C 
BRANCH  20  22
HETATM   22  C12 UNL     1      27.773  10.552  29.018  1.00  0.00     0.091 C 
HETATM   23  N4  UNL     1      28.257   9.551  28.385  1.00  0.00    -0.391 N 
ATOM     24  H42 UNL     1      28.656   8.785  28.927  1.00  0.00     0.157 HD
ATOM     25  H41 UNL     1      28.243   9.520  27.366  1.00  0.00     0.157 HD
HETATM   26  N5  UNL     1      27.210  11.631  28.254  1.00  0.00    -0.088 NA
ENDBRANCH  20  22
ENDBRANCH  13  14
ENDBRANCH  12  13
ENDBRANCH   7  12
BRANCH   9  27
HETATM   27  O2  UNL     1      21.507  15.178  31.298  1.00  0.00    -0.368 OA
ATOM     28  H2  UNL     1      20.559  15.119  31.331  1.00  0.00     0.212 HD
ENDBRANCH   9  27
ENDBRANCH   3   4
TORSDOF 6
ENDMDL
MODEL 4
REMARK VINA RESULT: -6.611819476      1.928      2.239
REMARK  6 active torsions:
REMARK  status: ('A' for Active; 'I' for Inactive)
REMARK    1  A    between atoms: C3_3  and  N1_4 
REMARK    2  A    between atoms: N2_7  and  C6_8 
REMARK    3  A    between atoms: C6_8  and  C7_9 
REMARK    4  A    between atoms: C7_9  and  C8_10 
REMARK       I    between atoms: C8_10  and  N3_12 
REMARK    5  A    between atoms: C11_15  and  C12_16 
REMARK    6  A    between atoms: C17_25  and  O2_26 
ROOT
HETATM    1  C1  UNL     1      29.224  16.442  27.060  1.00  0.00     0.013 C 
HETATM    2  C2  UNL     1      29.175  16.358  28.260  1.00  0.00    -0.089 C 
HETATM    3  C3  UNL     1      29.131  16.277  29.718  1.00  0.00     0.330 C 
ENDROOT
BRANCH   3   4
HETATM    4  N1  UNL     1      27.795  16.075  30.214  1.00  0.00    -0.050 N 
HETATM    5  C4  UNL     1      27.259  14.802  29.747  1.00  0.00     0.266 C 
HETATM    6  C5  UNL     1      25.987  14.554  30.491  1.00  0.00     0.268 C 
HETATM    7  N2  UNL     1      25.545  15.731  31.232  1.00  0.00    -0.036 N 
HETATM    8  C15 UNL     1      25.507  16.819  30.264  1.00  0.00     0.268 C 
HETATM    9  C17 UNL     1      26.492  16.106  32.250  1.00  0.00     0.349 C 
HETATM   10  C16 UNL     1      26.894  17.103  29.791  1.00  0.00     0.266 C 
HETATM   11  C18 UNL     1      27.878  15.976  31.659  1.00  0.00     0.300 C 
BRANCH   7  12
HETATM   12  C6  UNL     1      24.252  15.451  31.779  1.00  0.00     0.250 C 
BRANCH  12  13
HETATM   13  C7  UNL     1      23.160  16.319  31.223  1.00  0.00     0.131 C 
BRANCH  13  14
HETATM   14  C8  UNL     1      22.735  17.270  32.272  1.00  0.00     0.221 C 
HETATM   15  O1  UNL     1      23.435  18.238  32.633  1.00  0.00    -0.273 OA
HETATM   16  N3  UNL     1      21.483  17.071  32.892  1.00  0.00    -0.352 N 
HETATM   17  C9  UNL     1      20.611  15.950  32.514  1.00  0.00     0.126 C 
HETATM   18  C14 UNL     1      20.968  17.937  33.928  1.00  0.00     0.126 C 
HETATM   19  C10 UNL     1      19.344  16.650  32.009  1.00  0.00     0.032 C 
HETATM   20  C11 UNL     1      18.654  17.215  33.219  1.00  0.00     0.053 C 
HETATM   21  C13 UNL     1      19.559  17.722  34.280  1.00  0.00     0.032 C 
BRANCH  20  22
HETATM   22  C12 UNL     1      17.781  18.323  32.750  1.00  0.00     0.091 C 
HETATM   23  N4  UNL     1      17.177  18.252  31.625  1.00  0.00    -0.391 N 
ATOM     24  H42 UNL     1      17.310  17.415  31.058  1.00  0.00     0.157 HD
ATOM     25  H41 UNL     1      16.579  19.012  31.303  1.00  0.00     0.157 HD
HETATM   26  N5  UNL     1      17.593  19.503  33.548  1.00  0.00    -0.088 NA
ENDBRANCH  20  22
ENDBRANCH  13  14
ENDBRANCH  12  13
ENDBRANCH   7  12
BRANCH   9  27
HETATM   27  O2  UNL     1      26.291  17.466  32.529  1.00  0.00    -0.368 OA
ATOM     28  H2  UNL     1      26.898  17.959  31.991  1.00  0.00     0.212 HD
ENDBRANCH   9  27
ENDBRANCH   3   4
TORSDOF 6
ENDMDL
MODEL 5
REMARK VINA RESULT: -6.603654907      2.593      7.891
REMARK  6 active torsions:
REMARK  status: ('A' for Active; 'I' for Inactive)
REMARK    1  A    between atoms: C3_3  and  N1_4 
REMARK    2  A    between atoms: N2_7  and  C6_8 
REMARK    3  A    between atoms: C6_8  and  C7_9 
REMARK    4  A    between atoms: C7_9  and  C8_10 
REMARK       I    between atoms: C8_10  and  N3_12 
REMARK    5  A    between atoms: C11_15  and  C12_16 
REMARK    6  A    between atoms: C17_25  and  O2_26 
ROOT
HETATM    1  C1  UNL     1      18.412  19.496  33.512  1.00  0.00     0.013 C 
HETATM    2  C2  UNL     1      18.752  18.366  33.266  1.00  0.00    -0.089 C 
HETATM    3  C3  UNL     1      19.152  16.999  32.945  1.00  0.00     0.330 C 
ENDROOT
BRANCH   3   4
HETATM    4  N1  UNL     1      20.549  16.763  33.202  1.00  0.00    -0.050 N 
HETATM    5  C4  UNL     1      20.776  15.371  33.574  1.00  0.00     0.266 C 
HETATM    6  C5  UNL     1      22.254  15.149  33.584  1.00  0.00     0.268 C 
HETATM    7  N2  UNL     1      22.998  16.399  33.484  1.00  0.00    -0.036 N 
HETATM    8  C15 UNL     1      22.483  17.255  34.545  1.00  0.00     0.268 C 
HETATM    9  C17 UNL     1      22.744  17.073  32.237  1.00  0.00     0.349 C 
HETATM   10  C16 UNL     1      21.055  17.581  34.261  1.00  0.00     0.266 C 
HETATM   11  C18 UNL     1      21.261  16.972  31.956  1.00  0.00     0.300 C 
BRANCH   7  12
HETATM   12  C6  UNL     1      24.389  16.103  33.658  1.00  0.00     0.250 C 
BRANCH  12  13
HETATM   13  C7  UNL     1      24.958  15.223  32.582  1.00  0.00     0.131 C 
BRANCH  13  14
HETATM   14  C8  UNL     1      25.956  14.320  33.193  1.00  0.00     0.221 C 
HETATM   15  O1  UNL     1      26.960  14.736  33.807  1.00  0.00    -0.273 OA
HETATM   16  N3  UNL     1      25.763  12.928  33.075  1.00  0.00    -0.352 N 
HETATM   17  C9  UNL     1      24.602  12.373  32.365  1.00  0.00     0.126 C 
HETATM   18  C14 UNL     1      26.674  11.954  33.632  1.00  0.00     0.126 C 
HETATM   19  C10 UNL     1      23.883  11.566  33.451  1.00  0.00     0.032 C 
HETATM   20  C11 UNL     1      24.725  10.349  33.712  1.00  0.00     0.053 C 
HETATM   21  C13 UNL     1      26.190  10.567  33.623  1.00  0.00     0.032 C 
BRANCH  20  22
HETATM   22  C12 UNL     1      24.384   9.863  35.075  1.00  0.00     0.091 C 
HETATM   23  N4  UNL     1      23.308   9.206  35.288  1.00  0.00    -0.391 N 
ATOM     24  H42 UNL     1      22.690   9.023  34.498  1.00  0.00     0.157 HD
ATOM     25  H41 UNL     1      23.075   8.872  36.223  1.00  0.00     0.157 HD
HETATM   26  N5  UNL     1      25.255  10.119  36.189  1.00  0.00    -0.088 NA
ENDBRANCH  20  22
ENDBRANCH  13  14
ENDBRANCH  12  13
ENDBRANCH   7  12
BRANCH   9  27
HETATM   27  O2  UNL     1      23.033  18.433  32.429  1.00  0.00    -0.368 OA
ATOM     28  H2  UNL     1      22.419  18.766  33.073  1.00  0.00     0.212 HD
ENDBRANCH   9  27
ENDBRANCH   3   4
TORSDOF 6
ENDMDL
