MODEL 1
REMARK VINA RESULT: -10.061885579      0.000      0.000
REMARK  5 active torsions:
REMARK  status: ('A' for Active; 'I' for Inactive)
REMARK    1  A    between atoms: S1_2  and  N1_4 
REMARK    2  A    between atoms: S1_2  and  C6_14 
REMARK    3  A    between atoms: N1_4  and  C1_6 
REMARK    4  A    between atoms: C11_21  and  C12_22 
REMARK    5  A    between atoms: C18_29  and  N4_30 
ROOT
HETATM    1  C6  UNL     1      -1.702  -8.100  27.076  1.00  0.00     0.108 A 
HETATM    2  C7  UNL     1      -1.944  -7.258  28.131  1.00  0.00     0.028 A 
HETATM    3  C8  UNL     1      -2.644  -6.075  27.961  1.00  0.00     0.004 A 
HETATM    4  C9  UNL     1      -3.111  -5.721  26.733  1.00  0.00     0.032 A 
HETATM    5  C10 UNL     1      -2.891  -6.535  25.650  1.00  0.00     0.061 A 
HETATM    6  N3  UNL     1      -3.328  -6.236  24.421  1.00  0.00    -0.351 N 
ATOM      7  H3  UNL     1      -3.844  -5.365  24.299  1.00  0.00     0.166 HD
HETATM    8  C11 UNL     1      -3.129  -7.019  23.317  1.00  0.00     0.088 A 
HETATM    9  C18 UNL     1      -2.437  -8.178  23.513  1.00  0.00     0.142 A 
HETATM   10  N6  UNL     1      -1.975  -8.518  24.756  1.00  0.00    -0.337 N 
ATOM     11  H6  UNL     1      -1.460  -9.391  24.875  1.00  0.00     0.167 HD
HETATM   12  C26 UNL     1      -2.183  -7.731  25.823  1.00  0.00     0.084 A 
ENDROOT
BRANCH   1  13
HETATM   13  S1  UNL     1      -0.838  -9.585  27.218  1.00  0.00     0.266 S 
HETATM   14  O1  UNL     1      -0.015  -9.901  25.981  1.00  0.00    -0.200 OA
HETATM   15  O2  UNL     1       0.189  -9.437  28.334  1.00  0.00    -0.200 OA
BRANCH  13  16
HETATM   16  N1  UNL     1      -1.818 -10.920  27.599  1.00  0.00    -0.266 N 
ATOM     17  H1  UNL     1      -1.497 -11.835  27.281  1.00  0.00     0.180 HD
BRANCH  16  18
HETATM   18  C1  UNL     1      -2.928 -10.888  28.253  1.00  0.00     0.114 A 
HETATM   19  C2  UNL     1      -4.060 -10.228  27.823  1.00  0.00     0.052 A 
HETATM   20  C3  UNL     1      -5.228 -10.218  28.553  1.00  0.00     0.047 A 
HETATM   21  C4  UNL     1      -5.268 -10.888  29.748  1.00  0.00     0.131 A 
HETATM   22  F1  UNL     1      -6.382 -10.923  30.518  1.00  0.00    -0.205 F 
HETATM   23  C5  UNL     1      -4.131 -11.540  30.160  1.00  0.00     0.132 A 
HETATM   24  N2  UNL     1      -3.000 -11.537  29.432  1.00  0.00    -0.349 N 
ATOM     25  H2  UNL     1      -2.181 -12.035  29.780  1.00  0.00     0.167 HD
ENDBRANCH  16  18
ENDBRANCH  13  16
ENDBRANCH   1  13
BRANCH   9  26
HETATM   26  N4  UNL     1      -2.146  -9.130  22.485  1.00  0.00    -0.290 N 
HETATM   27  C19 UNL     1      -1.080  -9.096  21.671  1.00  0.00     0.191 A 
HETATM   28  N5  UNL     1      -1.133 -10.152  20.863  1.00  0.00    -0.350 N 
HETATM   29  C20 UNL     1      -2.239 -10.871  21.158  1.00  0.00     0.060 A 
ATOM     30  H5  UNL     1      -0.452 -10.381  20.140  1.00  0.00     0.166 HD
HETATM   31  C21 UNL     1      -2.701 -12.027  20.601  1.00  0.00     0.032 A 
HETATM   32  C25 UNL     1      -2.887 -10.213  22.200  1.00  0.00     0.068 A 
HETATM   33  C22 UNL     1      -3.875 -12.580  21.092  1.00  0.00     0.002 A 
HETATM   34  C23 UNL     1      -4.546 -11.941  22.138  1.00  0.00     0.002 A 
HETATM   35  C24 UNL     1      -4.057 -10.777  22.682  1.00  0.00     0.032 A 
ENDBRANCH   9  26
BRANCH   8  36
HETATM   36  C12 UNL     1      -3.664  -6.603  22.031  1.00  0.00    -0.005 A 
HETATM   37  C13 UNL     1      -2.968  -5.964  21.046  1.00  0.00     0.015 A 
HETATM   38  C14 UNL     1      -3.530  -5.593  19.829  1.00  0.00     0.024 A 
HETATM   39  C15 UNL     1      -4.856  -5.868  19.568  1.00  0.00     0.034 A 
HETATM   40 CL1  UNL     1      -5.593  -5.409  18.031  1.00  0.00    -0.084 Cl
HETATM   41  C16 UNL     1      -5.583  -6.511  20.543  1.00  0.00     0.024 A 
HETATM   42  C17 UNL     1      -5.012  -6.873  21.745  1.00  0.00     0.015 A 
ENDBRANCH   8  36
TORSDOF 5
ENDMDL
MODEL 2
REMARK VINA RESULT: -7.606317398      2.314      4.339
REMARK  5 active torsions:
REMARK  status: ('A' for Active; 'I' for Inactive)
REMARK    1  A    between atoms: S1_2  and  N1_4 
REMARK    2  A    between atoms: S1_2  and  C6_14 
REMARK    3  A    between atoms: N1_4  and  C1_6 
REMARK    4  A    between atoms: C11_21  and  C12_22 
REMARK    5  A    between atoms: C18_29  and  N4_30 
ROOT
HETATM    1  C6  UNL     1      -1.606  -8.352  26.308  1.00  0.00     0.108 A 
HETATM    2  C7  UNL     1      -0.625  -9.051  26.963  1.00  0.00     0.028 A 
HETATM    3  C8  UNL     1      -0.037 -10.169  26.394  1.00  0.00     0.004 A 
HETATM    4  C9  UNL     1      -0.424 -10.601  25.163  1.00  0.00     0.032 A 
HETATM    5  C10 UNL     1      -1.403  -9.930  24.474  1.00  0.00     0.061 A 
HETATM    6  N3  UNL     1      -1.821 -10.310  23.260  1.00  0.00    -0.351 N 
ATOM      7  H3  UNL     1      -1.385 -11.133  22.843  1.00  0.00     0.166 HD
HETATM    8  C11 UNL     1      -2.793  -9.670  22.540  1.00  0.00     0.088 A 
HETATM    9  C18 UNL     1      -3.355  -8.572  23.123  1.00  0.00     0.142 A 
HETATM   10  N6  UNL     1      -2.952  -8.153  24.363  1.00  0.00    -0.337 N 
ATOM     11  H6  UNL     1      -3.389  -7.328  24.777  1.00  0.00     0.167 HD
HETATM   12  C26 UNL     1      -1.997  -8.800  25.048  1.00  0.00     0.084 A 
ENDROOT
BRANCH   1  13
HETATM   13  S1  UNL     1      -2.379  -6.955  26.957  1.00  0.00     0.266 S 
HETATM   14  O1  UNL     1      -1.619  -6.361  28.132  1.00  0.00    -0.200 OA
HETATM   15  O2  UNL     1      -2.363  -5.861  25.897  1.00  0.00    -0.200 OA
BRANCH  13  16
HETATM   16  N1  UNL     1      -3.999  -7.208  27.405  1.00  0.00    -0.266 N 
ATOM     17  H1  UNL     1      -4.666  -6.477  27.159  1.00  0.00     0.180 HD
BRANCH  16  18
HETATM   18  C1  UNL     1      -4.465  -8.237  28.026  1.00  0.00     0.114 A 
HETATM   19  C2  UNL     1      -5.702  -8.794  27.780  1.00  0.00     0.052 A 
HETATM   20  C3  UNL     1      -6.162  -9.896  28.467  1.00  0.00     0.047 A 
HETATM   21  C4  UNL     1      -5.364 -10.458  29.430  1.00  0.00     0.131 A 
HETATM   22  F1  UNL     1      -5.751 -11.542  30.144  1.00  0.00    -0.205 F 
HETATM   23  C5  UNL     1      -4.136  -9.889  29.661  1.00  0.00     0.132 A 
HETATM   24  N2  UNL     1      -3.705  -8.813  28.979  1.00  0.00    -0.349 N 
ATOM     25  H2  UNL     1      -2.785  -8.425  29.187  1.00  0.00     0.167 HD
ENDBRANCH  16  18
ENDBRANCH  13  16
ENDBRANCH   1  13
BRANCH   9  26
HETATM   26  N4  UNL     1      -4.371  -7.766  22.520  1.00  0.00    -0.290 N 
HETATM   27  C19 UNL     1      -5.664  -7.746  22.879  1.00  0.00     0.191 A 
HETATM   28  N5  UNL     1      -6.300  -6.864  22.111  1.00  0.00    -0.350 N 
HETATM   29  C20 UNL     1      -5.413  -6.313  21.253  1.00  0.00     0.060 A 
ATOM     30  H5  UNL     1      -7.294  -6.640  22.162  1.00  0.00     0.166 HD
HETATM   31  C21 UNL     1      -5.604  -5.366  20.292  1.00  0.00     0.032 A 
HETATM   32  C25 UNL     1      -4.175  -6.894  21.518  1.00  0.00     0.068 A 
HETATM   33  C22 UNL     1      -4.514  -4.955  19.535  1.00  0.00     0.002 A 
HETATM   34  C23 UNL     1      -3.261  -5.522  19.780  1.00  0.00     0.002 A 
HETATM   35  C24 UNL     1      -3.096  -6.475  20.757  1.00  0.00     0.032 A 
ENDBRANCH   9  26
BRANCH   8  36
HETATM   36  C12 UNL     1      -3.157 -10.162  21.222  1.00  0.00    -0.005 A 
HETATM   37  C13 UNL     1      -3.799 -11.338  20.958  1.00  0.00     0.015 A 
HETATM   38  C14 UNL     1      -4.129 -11.757  19.673  1.00  0.00     0.024 A 
HETATM   39  C15 UNL     1      -3.806 -10.973  18.587  1.00  0.00     0.034 A 
HETATM   40 CL1  UNL     1      -4.214 -11.482  16.946  1.00  0.00    -0.084 Cl
HETATM   41  C16 UNL     1      -3.158  -9.782  18.822  1.00  0.00     0.024 A 
HETATM   42  C17 UNL     1      -2.838  -9.379  20.101  1.00  0.00     0.015 A 
ENDBRANCH   8  36
TORSDOF 5
ENDMDL
MODEL 3
REMARK VINA RESULT: -6.245866853      0.994      2.011
REMARK  5 active torsions:
REMARK  status: ('A' for Active; 'I' for Inactive)
REMARK    1  A    between atoms: S1_2  and  N1_4 
REMARK    2  A    between atoms: S1_2  and  C6_14 
REMARK    3  A    between atoms: N1_4  and  C1_6 
REMARK    4  A    between atoms: C11_21  and  C12_22 
REMARK    5  A    between atoms: C18_29  and  N4_30 
ROOT
HETATM    1  C6  UNL     1      -1.946  -7.968  27.555  1.00  0.00     0.108 A 
HETATM    2  C7  UNL     1      -2.242  -7.156  28.619  1.00  0.00     0.028 A 
HETATM    3  C8  UNL     1      -3.053  -6.044  28.472  1.00  0.00     0.004 A 
HETATM    4  C9  UNL     1      -3.579  -5.730  27.256  1.00  0.00     0.032 A 
HETATM    5  C10 UNL     1      -3.307  -6.516  26.164  1.00  0.00     0.061 A 
HETATM    6  N3  UNL     1      -3.798  -6.254  24.946  1.00  0.00    -0.351 N 
ATOM      7  H3  UNL     1      -4.396  -5.435  24.841  1.00  0.00     0.166 HD
HETATM    8  C11 UNL     1      -3.551  -7.011  23.834  1.00  0.00     0.088 A 
HETATM    9  C18 UNL     1      -2.749  -8.101  24.008  1.00  0.00     0.142 A 
HETATM   10  N6  UNL     1      -2.230  -8.401  25.239  1.00  0.00    -0.337 N 
ATOM     11  H6  UNL     1      -1.633  -9.222  25.341  1.00  0.00     0.167 HD
HETATM   12  C26 UNL     1      -2.487  -7.641  26.314  1.00  0.00     0.084 A 
ENDROOT
BRANCH   1  13
HETATM   13  S1  UNL     1      -0.944  -9.366  27.669  1.00  0.00     0.266 S 
HETATM   14  O1  UNL     1      -0.180  -9.642  26.385  1.00  0.00    -0.200 OA
HETATM   15  O2  UNL     1       0.138  -9.097  28.708  1.00  0.00    -0.200 OA
BRANCH  13  16
HETATM   16  N1  UNL     1      -1.772 -10.772  28.145  1.00  0.00    -0.266 N 
ATOM     17  H1  UNL     1      -1.289 -11.660  28.010  1.00  0.00     0.180 HD
BRANCH  16  18
HETATM   18  C1  UNL     1      -2.951 -10.822  28.662  1.00  0.00     0.114 A 
HETATM   19  C2  UNL     1      -4.062 -10.219  28.112  1.00  0.00     0.052 A 
HETATM   20  C3  UNL     1      -5.307 -10.298  28.697  1.00  0.00     0.047 A 
HETATM   21  C4  UNL     1      -5.447 -11.001  29.866  1.00  0.00     0.131 A 
HETATM   22  F1  UNL     1      -6.640 -11.121  30.496  1.00  0.00    -0.205 F 
HETATM   23  C5  UNL     1      -4.329 -11.595  30.398  1.00  0.00     0.132 A 
HETATM   24  N2  UNL     1      -3.122 -11.506  29.811  1.00  0.00    -0.349 N 
ATOM     25  H2  UNL     1      -2.320 -11.963  30.245  1.00  0.00     0.167 HD
ENDBRANCH  16  18
ENDBRANCH  13  16
ENDBRANCH   1  13
BRANCH   9  26
HETATM   26  N4  UNL     1      -2.393  -9.018  22.969  1.00  0.00    -0.290 N 
HETATM   27  C19 UNL     1      -3.021 -10.173  22.701  1.00  0.00     0.191 A 
HETATM   28  N5  UNL     1      -2.424 -10.743  21.656  1.00  0.00    -0.350 N 
HETATM   29  C20 UNL     1      -1.407  -9.952  21.249  1.00  0.00     0.060 A 
ATOM     30  H5  UNL     1      -2.691 -11.632  21.232  1.00  0.00     0.166 HD
HETATM   31  C21 UNL     1      -0.527 -10.123  20.222  1.00  0.00     0.032 A 
HETATM   32  C25 UNL     1      -1.390  -8.844  22.093  1.00  0.00     0.068 A 
HETATM   33  C22 UNL     1       0.436  -9.149  20.001  1.00  0.00     0.002 A 
HETATM   34  C23 UNL     1       0.476  -8.027  20.833  1.00  0.00     0.002 A 
HETATM   35  C24 UNL     1      -0.424  -7.879  21.861  1.00  0.00     0.032 A 
ENDBRANCH   9  26
BRANCH   8  36
HETATM   36  C12 UNL     1      -4.151  -6.642  22.563  1.00  0.00    -0.005 A 
HETATM   37  C13 UNL     1      -5.381  -7.034  22.116  1.00  0.00     0.015 A 
HETATM   38  C14 UNL     1      -5.909  -6.645  20.890  1.00  0.00     0.024 A 
HETATM   39  C15 UNL     1      -5.183  -5.824  20.055  1.00  0.00     0.034 A 
HETATM   40 CL1  UNL     1      -5.832  -5.315  18.493  1.00  0.00    -0.084 Cl
HETATM   41  C16 UNL     1      -3.940  -5.413  20.477  1.00  0.00     0.024 A 
HETATM   42  C17 UNL     1      -3.429  -5.806  21.696  1.00  0.00     0.015 A 
ENDBRANCH   8  36
TORSDOF 5
ENDMDL
MODEL 4
REMARK VINA RESULT: -6.185598154      4.174      7.858
REMARK  5 active torsions:
REMARK  status: ('A' for Active; 'I' for Inactive)
REMARK    1  A    between atoms: S1_2  and  N1_4 
REMARK    2  A    between atoms: S1_2  and  C6_14 
REMARK    3  A    between atoms: N1_4  and  C1_6 
REMARK    4  A    between atoms: C11_21  and  C12_22 
REMARK    5  A    between atoms: C18_29  and  N4_30 
ROOT
HETATM    1  C6  UNL     1      -3.934  -9.255  20.768  1.00  0.00     0.108 A 
HETATM    2  C7  UNL     1      -3.820 -10.300  19.887  1.00  0.00     0.028 A 
HETATM    3  C8  UNL     1      -3.674 -11.603  20.332  1.00  0.00     0.004 A 
HETATM    4  C9  UNL     1      -3.640 -11.877  21.665  1.00  0.00     0.032 A 
HETATM    5  C10 UNL     1      -3.749 -10.860  22.580  1.00  0.00     0.061 A 
HETATM    6  N3  UNL     1      -3.722 -11.073  23.902  1.00  0.00    -0.351 N 
ATOM      7  H3  UNL     1      -3.616 -12.034  24.227  1.00  0.00     0.166 HD
HETATM    8  C11 UNL     1      -3.828 -10.089  24.846  1.00  0.00     0.088 A 
HETATM    9  C18 UNL     1      -3.971  -8.814  24.380  1.00  0.00     0.142 A 
HETATM   10  N6  UNL     1      -4.004  -8.558  23.035  1.00  0.00    -0.337 N 
ATOM     11  H6  UNL     1      -4.112  -7.596  22.713  1.00  0.00     0.167 HD
HETATM   12  C26 UNL     1      -3.897  -9.543  22.130  1.00  0.00     0.084 A 
ENDROOT
BRANCH   1  13
HETATM   13  S1  UNL     1      -4.116  -7.612  20.281  1.00  0.00     0.266 S 
HETATM   14  O1  UNL     1      -4.512  -7.476  18.821  1.00  0.00    -0.200 OA
HETATM   15  O2  UNL     1      -5.286  -7.010  21.052  1.00  0.00    -0.200 OA
BRANCH  13  16
HETATM   16  N1  UNL     1      -2.751  -6.645  20.587  1.00  0.00    -0.266 N 
ATOM     17  H1  UNL     1      -2.278  -6.246  19.777  1.00  0.00     0.180 HD
BRANCH  16  18
HETATM   18  C1  UNL     1      -2.259  -6.369  21.745  1.00  0.00     0.114 A 
HETATM   19  C2  UNL     1      -1.212  -7.055  22.324  1.00  0.00     0.052 A 
HETATM   20  C3  UNL     1      -0.714  -6.726  23.565  1.00  0.00     0.047 A 
HETATM   21  C4  UNL     1      -1.278  -5.681  24.251  1.00  0.00     0.131 A 
HETATM   22  F1  UNL     1      -0.840  -5.302  25.475  1.00  0.00    -0.205 F 
HETATM   23  C5  UNL     1      -2.320  -5.010  23.658  1.00  0.00     0.132 A 
HETATM   24  N2  UNL     1      -2.791  -5.347  22.444  1.00  0.00    -0.349 N 
ATOM     25  H2  UNL     1      -3.568  -4.819  22.045  1.00  0.00     0.167 HD
ENDBRANCH  16  18
ENDBRANCH  13  16
ENDBRANCH   1  13
BRANCH   9  26
HETATM   26  N4  UNL     1      -4.112  -7.659  25.213  1.00  0.00    -0.290 N 
HETATM   27  C19 UNL     1      -5.059  -6.718  25.084  1.00  0.00     0.191 A 
HETATM   28  N5  UNL     1      -4.887  -5.814  26.046  1.00  0.00    -0.350 N 
HETATM   29  C20 UNL     1      -3.823  -6.175  26.798  1.00  0.00     0.060 A 
ATOM     30  H5  UNL     1      -5.463  -4.985  26.191  1.00  0.00     0.166 HD
HETATM   31  C21 UNL     1      -3.279  -5.562  27.887  1.00  0.00     0.032 A 
HETATM   32  C25 UNL     1      -3.328  -7.360  26.261  1.00  0.00     0.068 A 
HETATM   33  C22 UNL     1      -2.176  -6.144  28.497  1.00  0.00     0.002 A 
HETATM   34  C23 UNL     1      -1.658  -7.333  27.978  1.00  0.00     0.002 A 
HETATM   35  C24 UNL     1      -2.227  -7.931  26.879  1.00  0.00     0.032 A 
ENDBRANCH   9  26
BRANCH   8  36
HETATM   36  C12 UNL     1      -3.803 -10.436  26.257  1.00  0.00    -0.005 A 
HETATM   37  C13 UNL     1      -2.788 -11.083  26.902  1.00  0.00     0.015 A 
HETATM   38  C14 UNL     1      -2.814 -11.386  28.259  1.00  0.00     0.024 A 
HETATM   39  C15 UNL     1      -3.905 -11.032  29.024  1.00  0.00     0.034 A 
HETATM   40 CL1  UNL     1      -3.963 -11.404  30.750  1.00  0.00    -0.084 Cl
HETATM   41  C16 UNL     1      -4.943 -10.380  28.402  1.00  0.00     0.024 A 
HETATM   42  C17 UNL     1      -4.903 -10.085  27.055  1.00  0.00     0.015 A 
ENDBRANCH   8  36
TORSDOF 5
ENDMDL
