MODEL 1
REMARK VINA RESULT: -6.165033090      0.000      0.000
REMARK  1 active torsions:
REMARK  status: ('A' for Active; 'I' for Inactive)
REMARK    1  A    between atoms: N2_6  and  C4_7 
ROOT
HETATM    1  C1  UNL     1      12.084   2.246  15.993  1.00  0.00     0.035 A 
HETATM    2  C2  UNL     1      12.274   1.350  15.037  1.00  0.00     0.090 A 
HETATM    3  N1  UNL     1      13.261   1.641  14.054  1.00  0.00    -0.362 N 
ATOM      4  H1  UNL     1      13.430   0.969  13.305  1.00  0.00     0.166 HD
HETATM    5  C3  UNL     1      13.953   2.739  14.086  1.00  0.00     0.188 A 
HETATM    6  N2  UNL     1      13.754   3.706  15.111  1.00  0.00    -0.316 N 
HETATM    7  C7  UNL     1      12.871   3.495  16.030  1.00  0.00     0.099 A 
ENDROOT
BRANCH   6   8
HETATM    8  C4  UNL     1      14.525   4.903  15.124  1.00  0.00     0.073 A 
HETATM    9  C5  UNL     1      15.668   5.169  14.424  1.00  0.00     0.138 A 
HETATM   10  N3  UNL     1      16.054   6.411  14.736  1.00  0.00    -0.310 N 
HETATM   11  N4  UNL     1      15.212   6.963  15.609  1.00  0.00    -0.310 N 
ATOM     12  H3  UNL     1      16.880   6.872  14.357  1.00  0.00     0.186 HD
HETATM   13  C6  UNL     1      14.252   6.034  15.861  1.00  0.00     0.138 A 
ATOM     14  H4  UNL     1      15.275   7.898  16.009  1.00  0.00     0.186 HD
ENDBRANCH   6   8
TORSDOF 1
ENDMDL
MODEL 2
REMARK VINA RESULT: -6.130575319      0.042      1.095
REMARK  1 active torsions:
REMARK  status: ('A' for Active; 'I' for Inactive)
REMARK    1  A    between atoms: N2_6  and  C4_7 
ROOT
HETATM    1  C1  UNL     1      12.080   2.230  15.949  1.00  0.00     0.035 A 
HETATM    2  C2  UNL     1      12.294   1.345  14.988  1.00  0.00     0.090 A 
HETATM    3  N1  UNL     1      13.297   1.652  14.026  1.00  0.00    -0.362 N 
ATOM      4  H1  UNL     1      13.484   0.989  13.274  1.00  0.00     0.166 HD
HETATM    5  C3  UNL     1      13.979   2.756  14.081  1.00  0.00     0.188 A 
HETATM    6  N2  UNL     1      13.754   3.711  15.112  1.00  0.00    -0.316 N 
HETATM    7  C7  UNL     1      12.856   3.485  16.012  1.00  0.00     0.099 A 
ENDROOT
BRANCH   6   8
HETATM    8  C4  UNL     1      14.515   4.913  15.150  1.00  0.00     0.073 A 
HETATM    9  C5  UNL     1      14.242   6.054  15.850  1.00  0.00     0.138 A 
HETATM   10  N3  UNL     1      15.220   6.930  15.596  1.00  0.00    -0.310 N 
HETATM   11  N4  UNL     1      16.118   6.407  14.761  1.00  0.00    -0.310 N 
ATOM     12  H3  UNL     1      15.273   7.869  15.988  1.00  0.00     0.186 HD
HETATM   13  C6  UNL     1      15.692   5.149  14.473  1.00  0.00     0.138 A 
ATOM     14  H4  UNL     1      16.959   6.861  14.407  1.00  0.00     0.186 HD
ENDBRANCH   6   8
TORSDOF 1
ENDMDL
MODEL 3
REMARK VINA RESULT: -6.106653677      0.809      1.419
REMARK  1 active torsions:
REMARK  status: ('A' for Active; 'I' for Inactive)
REMARK    1  A    between atoms: N2_6  and  C4_7 
ROOT
HETATM    1  C1  UNL     1      13.175   1.570  14.237  1.00  0.00     0.035 A 
HETATM    2  C2  UNL     1      12.258   1.374  15.171  1.00  0.00     0.090 A 
HETATM    3  N1  UNL     1      12.088   2.397  16.146  1.00  0.00    -0.362 N 
ATOM      4  H1  UNL     1      11.388   2.275  16.878  1.00  0.00     0.166 HD
HETATM    5  C3  UNL     1      12.800   3.482  16.127  1.00  0.00     0.188 A 
HETATM    6  N2  UNL     1      13.787   3.699  15.126  1.00  0.00    -0.316 N 
HETATM    7  C7  UNL     1      13.986   2.805  14.215  1.00  0.00     0.099 A 
ENDROOT
BRANCH   6   8
HETATM    8  C4  UNL     1      14.555   4.898  15.127  1.00  0.00     0.073 A 
HETATM    9  C5  UNL     1      15.710   5.152  14.443  1.00  0.00     0.138 A 
HETATM   10  N3  UNL     1      16.088   6.401  14.735  1.00  0.00    -0.310 N 
HETATM   11  N4  UNL     1      15.229   6.969  15.580  1.00  0.00    -0.310 N 
ATOM     12  H3  UNL     1      16.921   6.856  14.361  1.00  0.00     0.186 HD
HETATM   13  C6  UNL     1      14.267   6.044  15.834  1.00  0.00     0.138 A 
ATOM     14  H4  UNL     1      15.283   7.913  15.961  1.00  0.00     0.186 HD
ENDBRANCH   6   8
TORSDOF 1
ENDMDL
MODEL 4
REMARK VINA RESULT: -6.083973003      0.812      1.793
REMARK  1 active torsions:
REMARK  status: ('A' for Active; 'I' for Inactive)
REMARK    1  A    between atoms: N2_6  and  C4_7 
ROOT
HETATM    1  C1  UNL     1      13.150   1.573  14.245  1.00  0.00     0.035 A 
HETATM    2  C2  UNL     1      12.235   1.367  15.179  1.00  0.00     0.090 A 
HETATM    3  N1  UNL     1      12.061   2.384  16.160  1.00  0.00    -0.362 N 
ATOM      4  H1  UNL     1      11.363   2.254  16.892  1.00  0.00     0.166 HD
HETATM    5  C3  UNL     1      12.769   3.472  16.146  1.00  0.00     0.188 A 
HETATM    6  N2  UNL     1      13.754   3.700  15.145  1.00  0.00    -0.316 N 
HETATM    7  C7  UNL     1      13.955   2.811  14.229  1.00  0.00     0.099 A 
ENDROOT
BRANCH   6   8
HETATM    8  C4  UNL     1      14.517   4.901  15.153  1.00  0.00     0.073 A 
HETATM    9  C5  UNL     1      14.253   6.056  15.834  1.00  0.00     0.138 A 
HETATM   10  N3  UNL     1      15.229   6.925  15.554  1.00  0.00    -0.310 N 
HETATM   11  N4  UNL     1      16.116   6.386  14.718  1.00  0.00    -0.310 N 
ATOM     12  H3  UNL     1      15.286   7.872  15.928  1.00  0.00     0.186 HD
HETATM   13  C6  UNL     1      15.685   5.123  14.458  1.00  0.00     0.138 A 
ATOM     14  H4  UNL     1      16.954   6.833  14.347  1.00  0.00     0.186 HD
ENDBRANCH   6   8
TORSDOF 1
ENDMDL
MODEL 5
REMARK VINA RESULT: -5.875091920      1.407      1.805
REMARK  1 active torsions:
REMARK  status: ('A' for Active; 'I' for Inactive)
REMARK    1  A    between atoms: N2_6  and  C4_7 
ROOT
HETATM    1  C1  UNL     1      14.231   1.257  14.404  1.00  0.00     0.035 A 
HETATM    2  C2  UNL     1      14.109   0.655  15.576  1.00  0.00     0.090 A 
HETATM    3  N1  UNL     1      14.146   1.473  16.740  1.00  0.00    -0.362 N 
ATOM      4  H1  UNL     1      14.054   1.037  17.657  1.00  0.00     0.166 HD
HETATM    5  C3  UNL     1      14.295   2.760  16.664  1.00  0.00     0.188 A 
HETATM    6  N2  UNL     1      14.427   3.415  15.407  1.00  0.00    -0.316 N 
HETATM    7  C7  UNL     1      14.400   2.722  14.317  1.00  0.00     0.099 A 
ENDROOT
BRANCH   6   8
HETATM    8  C4  UNL     1      14.589   4.828  15.350  1.00  0.00     0.073 A 
HETATM    9  C5  UNL     1      15.592   5.531  14.745  1.00  0.00     0.138 A 
HETATM   10  N3  UNL     1      15.349   6.831  14.938  1.00  0.00    -0.310 N 
HETATM   11  N4  UNL     1      14.231   7.004  15.642  1.00  0.00    -0.310 N 
ATOM     12  H3  UNL     1      15.938   7.588  14.592  1.00  0.00     0.186 HD
HETATM   13  C6  UNL     1      13.745   5.763  15.908  1.00  0.00     0.138 A 
ATOM     14  H4  UNL     1      13.820   7.893  15.927  1.00  0.00     0.186 HD
ENDBRANCH   6   8
TORSDOF 1
ENDMDL
