MODEL 1
REMARK VINA RESULT: -5.983833733      0.000      0.000
REMARK  2 active torsions:
REMARK  status: ('A' for Active; 'I' for Inactive)
REMARK    1  A    between atoms: C1_2  and  N1_3 
REMARK    2  A    between atoms: N1_3  and  C2_5 
ROOT
HETATM    1  C2  UNL     1      15.620  18.852  11.793  1.00  0.00     0.036 A 
HETATM    2  C3  UNL     1      15.142  20.114  12.073  1.00  0.00     0.046 A 
HETATM    3  C4  UNL     1      13.882  20.324  12.598  1.00  0.00     0.090 A 
HETATM    4  N2  UNL     1      13.106  19.253  12.840  1.00  0.00    -0.375 N 
ATOM      5  H2  UNL     1      12.174  19.400  13.228  1.00  0.00     0.164 HD
HETATM    6  C5  UNL     1      13.513  18.000  12.590  1.00  0.00     0.090 A 
HETATM    7  C6  UNL     1      14.774  17.795  12.064  1.00  0.00     0.046 A 
ENDROOT
BRANCH   1   8
HETATM    8  N1  UNL     1      16.794  18.638  11.302  1.00  0.00    -0.334 N 
ATOM      9  H1  UNL     1      17.597  19.151  11.665  1.00  0.00     0.168 HD
BRANCH   8  10
HETATM   10  C1  UNL     1      16.972  17.697  10.264  1.00  0.00     0.353 C 
HETATM   11  O1  UNL     1      16.720  17.974   9.072  1.00  0.00    -0.283 OA
ENDBRANCH   8  10
ENDBRANCH   1   8
TORSDOF 2
ENDMDL
MODEL 2
REMARK VINA RESULT: -5.918573749      1.324      1.324
REMARK  2 active torsions:
REMARK  status: ('A' for Active; 'I' for Inactive)
REMARK    1  A    between atoms: C1_2  and  N1_3 
REMARK    2  A    between atoms: N1_3  and  C2_5 
ROOT
HETATM    1  C2  UNL     1      15.441  18.337  11.402  1.00  0.00     0.036 A 
HETATM    2  C3  UNL     1      16.000  18.900  12.530  1.00  0.00     0.046 A 
HETATM    3  C4  UNL     1      15.313  18.990  13.724  1.00  0.00     0.090 A 
HETATM    4  N2  UNL     1      14.059  18.508  13.777  1.00  0.00    -0.375 N 
ATOM      5  H2  UNL     1      13.546  18.570  14.656  1.00  0.00     0.164 HD
HETATM    6  C5  UNL     1      13.460  17.949  12.716  1.00  0.00     0.090 A 
HETATM    7  C6  UNL     1      14.150  17.862  11.522  1.00  0.00     0.046 A 
ENDROOT
BRANCH   1   8
HETATM    8  N1  UNL     1      16.067  18.246  10.278  1.00  0.00    -0.334 N 
ATOM      9  H1  UNL     1      15.581  18.460   9.407  1.00  0.00     0.168 HD
BRANCH   8  10
HETATM   10  C1  UNL     1      17.422  17.851  10.246  1.00  0.00     0.353 C 
HETATM   11  O1  UNL     1      18.262  18.432   9.526  1.00  0.00    -0.283 OA
ENDBRANCH   8  10
ENDBRANCH   1   8
TORSDOF 2
ENDMDL
MODEL 3
REMARK VINA RESULT: -5.902326132      1.322      1.774
REMARK  2 active torsions:
REMARK  status: ('A' for Active; 'I' for Inactive)
REMARK    1  A    between atoms: C1_2  and  N1_3 
REMARK    2  A    between atoms: N1_3  and  C2_5 
ROOT
HETATM    1  C2  UNL     1      15.408  18.329  11.393  1.00  0.00     0.036 A 
HETATM    2  C3  UNL     1      14.124  17.855  11.552  1.00  0.00     0.046 A 
HETATM    3  C4  UNL     1      13.449  17.947  12.752  1.00  0.00     0.090 A 
HETATM    4  N2  UNL     1      14.075  18.522  13.794  1.00  0.00    -0.375 N 
ATOM      5  H2  UNL     1      13.583  18.594  14.684  1.00  0.00     0.164 HD
HETATM    6  C5  UNL     1      15.324  19.003  13.704  1.00  0.00     0.090 A 
HETATM    7  C6  UNL     1      15.996  18.908  12.501  1.00  0.00     0.046 A 
ENDROOT
BRANCH   1   8
HETATM    8  N1  UNL     1      16.055  18.250  10.279  1.00  0.00    -0.334 N 
ATOM      9  H1  UNL     1      15.582  18.469   9.402  1.00  0.00     0.168 HD
BRANCH   8  10
HETATM   10  C1  UNL     1      17.412  17.862  10.267  1.00  0.00     0.353 C 
HETATM   11  O1  UNL     1      18.253  18.426   9.536  1.00  0.00    -0.283 OA
ENDBRANCH   8  10
ENDBRANCH   1   8
TORSDOF 2
ENDMDL
MODEL 4
REMARK VINA RESULT: -5.777854245      0.745      1.614
REMARK  2 active torsions:
REMARK  status: ('A' for Active; 'I' for Inactive)
REMARK    1  A    between atoms: C1_2  and  N1_3 
REMARK    2  A    between atoms: N1_3  and  C2_5 
ROOT
HETATM    1  C2  UNL     1      15.404  18.276  11.856  1.00  0.00     0.036 A 
HETATM    2  C3  UNL     1      14.093  17.855  11.911  1.00  0.00     0.046 A 
HETATM    3  C4  UNL     1      13.065  18.697  12.285  1.00  0.00     0.090 A 
HETATM    4  N2  UNL     1      13.366  19.969  12.603  1.00  0.00    -0.375 N 
ATOM      5  H2  UNL     1      12.612  20.598  12.880  1.00  0.00     0.164 HD
HETATM    6  C5  UNL     1      14.621  20.439  12.568  1.00  0.00     0.090 A 
HETATM    7  C6  UNL     1      15.647  19.593  12.194  1.00  0.00     0.046 A 
ENDROOT
BRANCH   1   8
HETATM    8  N1  UNL     1      16.377  17.503  11.509  1.00  0.00    -0.334 N 
ATOM      9  H1  UNL     1      16.572  16.659  12.049  1.00  0.00     0.168 HD
BRANCH   8  10
HETATM   10  C1  UNL     1      17.175  17.818  10.388  1.00  0.00     0.353 C 
HETATM   11  O1  UNL     1      16.683  17.970   9.250  1.00  0.00    -0.283 OA
ENDBRANCH   8  10
ENDBRANCH   1   8
TORSDOF 2
ENDMDL
MODEL 5
REMARK VINA RESULT: -5.748999999      1.317      1.342
REMARK  2 active torsions:
REMARK  status: ('A' for Active; 'I' for Inactive)
REMARK    1  A    between atoms: C1_2  and  N1_3 
REMARK    2  A    between atoms: N1_3  and  C2_5 
ROOT
HETATM    1  C2  UNL     1      15.409  18.746  11.686  1.00  0.00     0.036 A 
HETATM    2  C3  UNL     1      14.882  20.019  11.726  1.00  0.00     0.046 A 
HETATM    3  C4  UNL     1      14.541  20.637  12.912  1.00  0.00     0.090 A 
HETATM    4  N2  UNL     1      14.736  19.965  14.061  1.00  0.00    -0.375 N 
ATOM      5  H2  UNL     1      14.488  20.415  14.941  1.00  0.00     0.164 HD
HETATM    6  C5  UNL     1      15.246  18.725  14.089  1.00  0.00     0.090 A 
HETATM    7  C6  UNL     1      15.585  18.110  12.899  1.00  0.00     0.046 A 
ENDROOT
BRANCH   1   8
HETATM    8  N1  UNL     1      15.732  18.153  10.587  1.00  0.00    -0.334 N 
ATOM      9  H1  UNL     1      15.006  17.880   9.924  1.00  0.00     0.168 HD
BRANCH   8  10
HETATM   10  C1  UNL     1      17.086  17.878  10.295  1.00  0.00     0.353 C 
HETATM   11  O1  UNL     1      17.731  18.549   9.461  1.00  0.00    -0.283 OA
ENDBRANCH   8  10
ENDBRANCH   1   8
TORSDOF 2
ENDMDL
