MODEL 1
REMARK VINA RESULT: -5.614599622      0.000      0.000
REMARK  5 active torsions:
REMARK  status: ('A' for Active; 'I' for Inactive)
REMARK    1  A    between atoms: C3_3  and  O1_4 
REMARK    2  A    between atoms: O1_4  and  C4_5 
REMARK    3  A    between atoms: C6_7  and  C7_8 
REMARK    4  A    between atoms: C7_8  and  N1_9 
REMARK       I    between atoms: N1_9  and  C8_11 
REMARK    5  A    between atoms: C11_18  and  N4_19 
ROOT
HETATM    1  C1  UNL     1       8.356 -16.431  24.606  1.00  0.00     0.099 C 
HETATM    2  C2  UNL     1       9.284 -15.715  24.954  1.00  0.00    -0.161 C 
HETATM    3  C3  UNL     1      10.379 -14.845  25.383  1.00  0.00     0.255 C 
ENDROOT
BRANCH   3   4
HETATM    4  O1  UNL     1      10.974 -14.232  24.290  1.00  0.00    -0.338 OA
BRANCH   4   5
HETATM    5  C4  UNL     1      10.745 -13.004  23.753  1.00  0.00     0.097 A 
HETATM    6  C5  UNL     1       9.555 -12.328  23.912  1.00  0.00     0.048 A 
HETATM    7  C6  UNL     1       9.311 -11.069  23.365  1.00  0.00    -0.038 A 
HETATM    8  C9  UNL     1      10.345 -10.520  22.640  1.00  0.00     0.011 A 
HETATM    9  C10 UNL     1      11.544 -11.188  22.474  1.00  0.00     0.033 A 
HETATM   10  C11 UNL     1      11.778 -12.431  23.017  1.00  0.00     0.063 A 
BRANCH   7  11
HETATM   11  C7  UNL     1       8.002 -10.388  23.579  1.00  0.00     0.161 C 
BRANCH  11  12
HETATM   12  N1  UNL     1       8.091  -9.374  24.580  1.00  0.00    -0.361 N 
HETATM   13  C8  UNL     1       6.917  -8.746  25.101  1.00  0.00     0.182 C 
HETATM   14  N2  UNL     1       5.749  -9.313  25.054  1.00  0.00    -0.374 N 
HETATM   15  N3  UNL     1       6.971  -7.461  25.702  1.00  0.00    -0.064 NA
ATOM     16  H22 UNL     1       5.709 -10.237  24.622  1.00  0.00     0.158 HD
ATOM     17  H21 UNL     1       4.911  -8.866  25.425  1.00  0.00     0.158 HD
ATOM     18  H1  UNL     1       9.007  -9.092  24.929  1.00  0.00     0.162 HD
ENDBRANCH  11  12
ENDBRANCH   7  11
BRANCH  10  19
HETATM   19  N4  UNL     1      13.028 -13.075  22.817  1.00  0.00    -0.387 N 
HETATM   20  C12 UNL     1      13.907 -13.428  23.919  1.00  0.00     0.149 C 
HETATM   21  C13 UNL     1      13.510 -13.424  21.482  1.00  0.00     0.149 C 
ENDBRANCH  10  19
ENDBRANCH   4   5
ENDBRANCH   3   4
TORSDOF 5
ENDMDL
MODEL 2
REMARK VINA RESULT: -5.532492107      3.010      5.276
REMARK  5 active torsions:
REMARK  status: ('A' for Active; 'I' for Inactive)
REMARK    1  A    between atoms: C3_3  and  O1_4 
REMARK    2  A    between atoms: O1_4  and  C4_5 
REMARK    3  A    between atoms: C6_7  and  C7_8 
REMARK    4  A    between atoms: C7_8  and  N1_9 
REMARK       I    between atoms: N1_9  and  C8_11 
REMARK    5  A    between atoms: C11_18  and  N4_19 
ROOT
HETATM    1  C1  UNL     1      14.576 -11.995  24.260  1.00  0.00     0.099 C 
HETATM    2  C2  UNL     1      14.180 -12.881  23.517  1.00  0.00    -0.161 C 
HETATM    3  C3  UNL     1      13.722 -13.936  22.611  1.00  0.00     0.255 C 
ENDROOT
BRANCH   3   4
HETATM    4  O1  UNL     1      12.397 -13.733  22.256  1.00  0.00    -0.338 OA
BRANCH   4   5
HETATM    5  C4  UNL     1      11.285 -13.695  23.038  1.00  0.00     0.097 A 
HETATM    6  C5  UNL     1      10.894 -14.748  23.835  1.00  0.00     0.048 A 
HETATM    7  C6  UNL     1       9.756 -14.717  24.640  1.00  0.00    -0.038 A 
HETATM    8  C9  UNL     1       9.023 -13.552  24.599  1.00  0.00     0.011 A 
HETATM    9  C10 UNL     1       9.406 -12.488  23.804  1.00  0.00     0.033 A 
HETATM   10  C11 UNL     1      10.531 -12.525  23.012  1.00  0.00     0.063 A 
BRANCH   7  11
HETATM   11  C7  UNL     1       9.390 -15.891  25.484  1.00  0.00     0.161 C 
BRANCH  11  12
HETATM   12  N1  UNL     1       8.011 -16.236  25.341  1.00  0.00    -0.361 N 
HETATM   13  C8  UNL     1       7.444 -16.491  24.053  1.00  0.00     0.182 C 
HETATM   14  N2  UNL     1       8.167 -16.854  23.037  1.00  0.00    -0.374 N 
HETATM   15  N3  UNL     1       6.049 -16.359  23.822  1.00  0.00    -0.064 NA
ATOM     16  H22 UNL     1       9.169 -16.948  23.203  1.00  0.00     0.158 HD
ATOM     17  H21 UNL     1       7.763 -17.036  22.119  1.00  0.00     0.158 HD
ATOM     18  H1  UNL     1       7.422 -16.300  26.170  1.00  0.00     0.162 HD
ENDBRANCH  11  12
ENDBRANCH   7  11
BRANCH  10  19
HETATM   19  N4  UNL     1      10.881 -11.403  22.212  1.00  0.00    -0.387 N 
HETATM   20  C12 UNL     1      11.934 -10.477  22.590  1.00  0.00     0.149 C 
HETATM   21  C13 UNL     1      10.197 -11.111  20.954  1.00  0.00     0.149 C 
ENDBRANCH  10  19
ENDBRANCH   4   5
ENDBRANCH   3   4
TORSDOF 5
ENDMDL
MODEL 3
REMARK VINA RESULT: -5.110904131      3.474      5.450
REMARK  5 active torsions:
REMARK  status: ('A' for Active; 'I' for Inactive)
REMARK    1  A    between atoms: C3_3  and  O1_4 
REMARK    2  A    between atoms: O1_4  and  C4_5 
REMARK    3  A    between atoms: C6_7  and  C7_8 
REMARK    4  A    between atoms: C7_8  and  N1_9 
REMARK       I    between atoms: N1_9  and  C8_11 
REMARK    5  A    between atoms: C11_18  and  N4_19 
ROOT
HETATM    1  C1  UNL     1       7.348  -8.938  24.749  1.00  0.00     0.099 C 
HETATM    2  C2  UNL     1       8.059  -9.695  24.105  1.00  0.00    -0.161 C 
HETATM    3  C3  UNL     1       8.891 -10.609  23.321  1.00  0.00     0.255 C 
ENDROOT
BRANCH   3   4
HETATM    4  O1  UNL     1       9.470 -11.567  24.140  1.00  0.00    -0.338 OA
BRANCH   4   5
HETATM    5  C4  UNL     1       9.627 -12.902  23.936  1.00  0.00     0.097 A 
HETATM    6  C5  UNL     1       8.623 -13.818  24.166  1.00  0.00     0.048 A 
HETATM    7  C6  UNL     1       8.776 -15.188  23.960  1.00  0.00    -0.038 A 
HETATM    8  C9  UNL     1      10.011 -15.592  23.502  1.00  0.00     0.011 A 
HETATM    9  C10 UNL     1      11.025 -14.683  23.268  1.00  0.00     0.033 A 
HETATM   10  C11 UNL     1      10.868 -13.332  23.473  1.00  0.00     0.063 A 
BRANCH   7  11
HETATM   11  C7  UNL     1       7.648 -16.126  24.223  1.00  0.00     0.161 C 
BRANCH  11  12
HETATM   12  N1  UNL     1       7.007 -16.535  23.014  1.00  0.00    -0.361 N 
HETATM   13  C8  UNL     1       5.603 -16.808  22.978  1.00  0.00     0.182 C 
HETATM   14  N2  UNL     1       4.778 -16.308  23.848  1.00  0.00    -0.374 N 
HETATM   15  N3  UNL     1       5.040 -17.646  21.980  1.00  0.00    -0.064 NA
ATOM     16  H22 UNL     1       5.183 -15.706  24.565  1.00  0.00     0.158 HD
ATOM     17  H21 UNL     1       3.777 -16.502  23.822  1.00  0.00     0.158 HD
ATOM     18  H1  UNL     1       7.559 -16.634  22.162  1.00  0.00     0.162 HD
ENDBRANCH  11  12
ENDBRANCH   7  11
BRANCH  10  19
HETATM   19  N4  UNL     1      11.943 -12.439  23.216  1.00  0.00    -0.387 N 
HETATM   20  C12 UNL     1      12.960 -12.139  24.209  1.00  0.00     0.149 C 
HETATM   21  C13 UNL     1      12.092 -11.761  21.928  1.00  0.00     0.149 C 
ENDBRANCH  10  19
ENDBRANCH   4   5
ENDBRANCH   3   4
TORSDOF 5
ENDMDL
MODEL 4
REMARK VINA RESULT: -5.107588402      8.688     10.882
REMARK  5 active torsions:
REMARK  status: ('A' for Active; 'I' for Inactive)
REMARK    1  A    between atoms: C3_3  and  O1_4 
REMARK    2  A    between atoms: O1_4  and  C4_5 
REMARK    3  A    between atoms: C6_7  and  C7_8 
REMARK    4  A    between atoms: C7_8  and  N1_9 
REMARK       I    between atoms: N1_9  and  C8_11 
REMARK    5  A    between atoms: C11_18  and  N4_19 
ROOT
HETATM    1  C1  UNL     1       2.253  -6.904  20.257  1.00  0.00     0.099 C 
HETATM    2  C2  UNL     1       2.164  -8.112  20.091  1.00  0.00    -0.161 C 
HETATM    3  C3  UNL     1       2.067  -9.561  19.912  1.00  0.00     0.255 C 
ENDROOT
BRANCH   3   4
HETATM    4  O1  UNL     1       2.810  -9.969  18.815  1.00  0.00    -0.338 OA
BRANCH   4   5
HETATM    5  C4  UNL     1       2.698 -11.095  18.061  1.00  0.00     0.097 A 
HETATM    6  C5  UNL     1       3.002 -12.350  18.541  1.00  0.00     0.048 A 
HETATM    7  C6  UNL     1       2.890 -13.510  17.775  1.00  0.00    -0.038 A 
HETATM    8  C9  UNL     1       2.449 -13.335  16.482  1.00  0.00     0.011 A 
HETATM    9  C10 UNL     1       2.141 -12.081  15.990  1.00  0.00     0.033 A 
HETATM   10  C11 UNL     1       2.253 -10.940  16.751  1.00  0.00     0.063 A 
BRANCH   7  11
HETATM   11  C7  UNL     1       3.231 -14.840  18.357  1.00  0.00     0.161 C 
BRANCH  11  12
HETATM   12  N1  UNL     1       3.752 -14.720  19.681  1.00  0.00    -0.361 N 
HETATM   13  C8  UNL     1       3.225 -15.503  20.755  1.00  0.00     0.182 C 
HETATM   14  N2  UNL     1       2.600 -16.624  20.554  1.00  0.00    -0.374 N 
HETATM   15  N3  UNL     1       3.362 -15.089  22.106  1.00  0.00    -0.064 NA
ATOM     16  H22 UNL     1       2.502 -16.921  19.583  1.00  0.00     0.158 HD
ATOM     17  H21 UNL     1       2.224 -17.182  21.320  1.00  0.00     0.158 HD
ATOM     18  H1  UNL     1       4.512 -14.065  19.864  1.00  0.00     0.162 HD
ENDBRANCH  11  12
ENDBRANCH   7  11
BRANCH  10  19
HETATM   19  N4  UNL     1       1.923  -9.674  16.196  1.00  0.00    -0.387 N 
HETATM   20  C12 UNL     1       0.670  -9.000  16.489  1.00  0.00     0.149 C 
HETATM   21  C13 UNL     1       2.830  -8.969  15.291  1.00  0.00     0.149 C 
ENDBRANCH  10  19
ENDBRANCH   4   5
ENDBRANCH   3   4
TORSDOF 5
ENDMDL
MODEL 5
REMARK VINA RESULT: -4.979981865      3.583      5.340
REMARK  5 active torsions:
REMARK  status: ('A' for Active; 'I' for Inactive)
REMARK    1  A    between atoms: C3_3  and  O1_4 
REMARK    2  A    between atoms: O1_4  and  C4_5 
REMARK    3  A    between atoms: C6_7  and  C7_8 
REMARK    4  A    between atoms: C7_8  and  N1_9 
REMARK       I    between atoms: N1_9  and  C8_11 
REMARK    5  A    between atoms: C11_18  and  N4_19 
ROOT
HETATM    1  C1  UNL     1      10.134 -11.354  21.585  1.00  0.00     0.099 C 
HETATM    2  C2  UNL     1      11.077 -12.108  21.393  1.00  0.00    -0.161 C 
HETATM    3  C3  UNL     1      12.200 -13.011  21.140  1.00  0.00     0.255 C 
ENDROOT
BRANCH   3   4
HETATM    4  O1  UNL     1      12.039 -14.199  21.838  1.00  0.00    -0.338 OA
BRANCH   4   5
HETATM    5  C4  UNL     1      11.332 -14.450  22.972  1.00  0.00     0.097 A 
HETATM    6  C5  UNL     1      10.217 -15.259  22.995  1.00  0.00     0.048 A 
HETATM    7  C6  UNL     1       9.487 -15.522  24.152  1.00  0.00    -0.038 A 
HETATM    8  C9  UNL     1       9.946 -14.919  25.302  1.00  0.00     0.011 A 
HETATM    9  C10 UNL     1      11.064 -14.105  25.291  1.00  0.00     0.033 A 
HETATM   10  C11 UNL     1      11.781 -13.850  24.145  1.00  0.00     0.063 A 
BRANCH   7  11
HETATM   11  C7  UNL     1       8.291 -16.412  24.111  1.00  0.00     0.161 C 
BRANCH  11  12
HETATM   12  N1  UNL     1       7.603 -16.315  22.862  1.00  0.00    -0.361 N 
HETATM   13  C8  UNL     1       6.212 -16.628  22.760  1.00  0.00     0.182 C 
HETATM   14  N2  UNL     1       5.415 -16.586  23.784  1.00  0.00    -0.374 N 
HETATM   15  N3  UNL     1       5.630 -17.005  21.521  1.00  0.00    -0.064 NA
ATOM     16  H22 UNL     1       5.833 -16.315  24.674  1.00  0.00     0.158 HD
ATOM     17  H21 UNL     1       4.423 -16.810  23.711  1.00  0.00     0.158 HD
ATOM     18  H1  UNL     1       8.113 -16.018  22.030  1.00  0.00     0.162 HD
ENDBRANCH  11  12
ENDBRANCH   7  11
BRANCH  10  19
HETATM   19  N4  UNL     1      12.923 -13.006  24.188  1.00  0.00    -0.387 N 
HETATM   20  C12 UNL     1      14.277 -13.531  24.232  1.00  0.00     0.149 C 
HETATM   21  C13 UNL     1      12.805 -11.548  24.192  1.00  0.00     0.149 C 
ENDBRANCH  10  19
ENDBRANCH   4   5
ENDBRANCH   3   4
TORSDOF 5
ENDMDL
