MODEL 1
REMARK VINA RESULT: -5.318660057      0.000      0.000
REMARK  8 active torsions:
REMARK  status: ('A' for Active; 'I' for Inactive)
REMARK    1  A    between atoms: N1_2  and  C4_5 
REMARK    2  A    between atoms: C4_5  and  C5_6 
REMARK    3  A    between atoms: C6_7  and  C7_8 
REMARK    4  A    between atoms: C7_8  and  N2_9 
REMARK    5  A    between atoms: C9_11  and  O1_12 
REMARK    6  A    between atoms: C10_14  and  O2_15 
REMARK    7  A    between atoms: C11_17  and  C12_18 
REMARK    8  A    between atoms: C12_18  and  O3_19 
ROOT
HETATM    1  N2  UNL     1      20.530  13.891  21.788  1.00  0.00    -0.371 N 
HETATM    2  C8  UNL     1      19.835  13.863  20.537  1.00  0.00     0.157 C 
HETATM    3  C9  UNL     1      20.841  14.326  19.514  1.00  0.00     0.166 C 
HETATM    4  C10 UNL     1      21.791  15.171  20.337  1.00  0.00     0.173 C 
HETATM    5  C11 UNL     1      21.807  14.377  21.644  1.00  0.00     0.139 C 
ENDROOT
BRANCH   1   6
HETATM    6  C7  UNL     1      19.747  13.986  22.932  1.00  0.00     0.151 C 
BRANCH   6   7
HETATM    7  C6  UNL     1      18.883  15.196  22.814  1.00  0.00    -0.060 C 
HETATM    8  C5  UNL     1      18.163  16.178  22.692  1.00  0.00    -0.072 C 
BRANCH   8   9
HETATM    9  C4  UNL     1      17.312  17.330  22.524  1.00  0.00     0.329 C 
BRANCH   9  10
HETATM   10  N1  UNL     1      16.484  17.596  23.665  1.00  0.00    -0.069 N 
HETATM   11  C1  UNL     1      15.527  18.636  23.237  1.00  0.00     0.272 C 
HETATM   12  C2  UNL     1      17.213  18.183  24.773  1.00  0.00     0.272 C 
HETATM   13  C3  UNL     1      15.719  16.494  24.144  1.00  0.00     0.272 C 
ENDBRANCH   9  10
ENDBRANCH   8   9
ENDBRANCH   6   7
ENDBRANCH   1   6
BRANCH   5  14
HETATM   14  C12 UNL     1      22.496  15.128  22.707  1.00  0.00     0.192 C 
BRANCH  14  15
HETATM   15  O3  UNL     1      23.842  14.772  22.767  1.00  0.00    -0.399 OA
ATOM     16  H3  UNL     1      24.391  15.546  22.799  1.00  0.00     0.209 HD
ENDBRANCH  14  15
ENDBRANCH   5  14
BRANCH   3  17
HETATM   17  O1  UNL     1      20.224  15.032  18.510  1.00  0.00    -0.391 OA
ATOM     18  H1  UNL     1      20.867  15.445  17.945  1.00  0.00     0.210 HD
ENDBRANCH   3  17
BRANCH   4  19
HETATM   19  O2  UNL     1      23.081  15.141  19.801  1.00  0.00    -0.391 OA
ATOM     20  H2  UNL     1      23.594  15.880  20.106  1.00  0.00     0.210 HD
ENDBRANCH   4  19
TORSDOF 8
ENDMDL
MODEL 2
REMARK VINA RESULT: -5.052568195      2.326      3.464
REMARK  8 active torsions:
REMARK  status: ('A' for Active; 'I' for Inactive)
REMARK    1  A    between atoms: N1_2  and  C4_5 
REMARK    2  A    between atoms: C4_5  and  C5_6 
REMARK    3  A    between atoms: C6_7  and  C7_8 
REMARK    4  A    between atoms: C7_8  and  N2_9 
REMARK    5  A    between atoms: C9_11  and  O1_12 
REMARK    6  A    between atoms: C10_14  and  O2_15 
REMARK    7  A    between atoms: C11_17  and  C12_18 
REMARK    8  A    between atoms: C12_18  and  O3_19 
ROOT
HETATM    1  N2  UNL     1      20.938  14.375  23.830  1.00  0.00    -0.371 N 
HETATM    2  C8  UNL     1      21.018  13.008  24.245  1.00  0.00     0.157 C 
HETATM    3  C9  UNL     1      22.105  12.972  25.288  1.00  0.00     0.166 C 
HETATM    4  C10 UNL     1      22.966  14.162  24.915  1.00  0.00     0.173 C 
HETATM    5  C11 UNL     1      21.890  15.146  24.450  1.00  0.00     0.139 C 
ENDROOT
BRANCH   1   6
HETATM    6  C7  UNL     1      20.389  14.614  22.576  1.00  0.00     0.151 C 
BRANCH   6   7
HETATM    7  C6  UNL     1      19.170  15.458  22.747  1.00  0.00    -0.060 C 
HETATM    8  C5  UNL     1      18.164  16.144  22.860  1.00  0.00    -0.072 C 
BRANCH   8   9
HETATM    9  C4  UNL     1      16.977  16.955  22.967  1.00  0.00     0.329 C 
BRANCH   9  10
HETATM   10  N1  UNL     1      17.084  17.992  23.953  1.00  0.00    -0.069 N 
HETATM   11  C1  UNL     1      16.192  19.077  23.498  1.00  0.00     0.272 C 
HETATM   12  C2  UNL     1      18.407  18.587  24.013  1.00  0.00     0.272 C 
HETATM   13  C3  UNL     1      16.675  17.637  25.271  1.00  0.00     0.272 C 
ENDBRANCH   9  10
ENDBRANCH   8   9
ENDBRANCH   6   7
ENDBRANCH   1   6
BRANCH   5  14
HETATM   14  C12 UNL     1      22.499  16.325  23.811  1.00  0.00     0.192 C 
BRANCH  14  15
HETATM   15  O3  UNL     1      23.782  16.028  23.353  1.00  0.00    -0.399 OA
ATOM     16  H3  UNL     1      23.759  15.299  22.745  1.00  0.00     0.209 HD
ENDBRANCH  14  15
ENDBRANCH   5  14
BRANCH   3  17
HETATM   17  O1  UNL     1      22.786  11.780  25.240  1.00  0.00    -0.391 OA
ATOM     18  H1  UNL     1      22.248  11.072  25.578  1.00  0.00     0.210 HD
ENDBRANCH   3  17
BRANCH   4  19
HETATM   19  O2  UNL     1      23.585  14.704  26.043  1.00  0.00    -0.391 OA
ATOM     20  H2  UNL     1      24.501  14.893  25.871  1.00  0.00     0.210 HD
ENDBRANCH   4  19
TORSDOF 8
ENDMDL
MODEL 3
REMARK VINA RESULT: -4.984050421      3.995      6.986
REMARK  8 active torsions:
REMARK  status: ('A' for Active; 'I' for Inactive)
REMARK    1  A    between atoms: N1_2  and  C4_5 
REMARK    2  A    between atoms: C4_5  and  C5_6 
REMARK    3  A    between atoms: C6_7  and  C7_8 
REMARK    4  A    between atoms: C7_8  and  N2_9 
REMARK    5  A    between atoms: C9_11  and  O1_12 
REMARK    6  A    between atoms: C10_14  and  O2_15 
REMARK    7  A    between atoms: C11_17  and  C12_18 
REMARK    8  A    between atoms: C12_18  and  O3_19 
ROOT
HETATM    1  N2  UNL     1      17.274  17.605  23.724  1.00  0.00    -0.371 N 
HETATM    2  C8  UNL     1      18.213  18.613  24.111  1.00  0.00     0.157 C 
HETATM    3  C9  UNL     1      17.454  19.526  25.041  1.00  0.00     0.166 C 
HETATM    4  C10 UNL     1      16.018  19.335  24.600  1.00  0.00     0.173 C 
HETATM    5  C11 UNL     1      16.030  17.844  24.257  1.00  0.00     0.139 C 
ENDROOT
BRANCH   1   6
HETATM    6  C7  UNL     1      17.534  16.937  22.534  1.00  0.00     0.151 C 
BRANCH   6   7
HETATM    7  C6  UNL     1      18.594  15.918  22.786  1.00  0.00    -0.060 C 
HETATM    8  C5  UNL     1      19.483  15.102  22.987  1.00  0.00    -0.072 C 
BRANCH   8   9
HETATM    9  C4  UNL     1      20.547  14.155  23.209  1.00  0.00     0.329 C 
BRANCH   9  10
HETATM   10  N1  UNL     1      21.710  14.739  23.812  1.00  0.00    -0.069 N 
HETATM   11  C1  UNL     1      22.696  14.895  22.724  1.00  0.00     0.272 C 
HETATM   12  C2  UNL     1      22.349  13.867  24.781  1.00  0.00     0.272 C 
HETATM   13  C3  UNL     1      21.524  16.025  24.397  1.00  0.00     0.272 C 
ENDBRANCH   9  10
ENDBRANCH   8   9
ENDBRANCH   6   7
ENDBRANCH   1   6
BRANCH   5  14
HETATM   14  C12 UNL     1      14.785  17.451  23.576  1.00  0.00     0.192 C 
BRANCH  14  15
HETATM   15  O3  UNL     1      14.393  16.173  23.968  1.00  0.00    -0.399 OA
ATOM     16  H3  UNL     1      13.582  16.208  24.462  1.00  0.00     0.209 HD
ENDBRANCH  14  15
ENDBRANCH   5  14
BRANCH   3  17
HETATM   17  O1  UNL     1      17.889  20.823  24.910  1.00  0.00    -0.391 OA
ATOM     18  H1  UNL     1      18.043  21.213  25.763  1.00  0.00     0.210 HD
ENDBRANCH   3  17
BRANCH   4  19
HETATM   19  O2  UNL     1      15.137  19.522  25.668  1.00  0.00    -0.391 OA
ATOM     20  H2  UNL     1      14.915  18.693  26.075  1.00  0.00     0.210 HD
ENDBRANCH   4  19
TORSDOF 8
ENDMDL
MODEL 4
REMARK VINA RESULT: -4.879637601      1.912      2.615
REMARK  8 active torsions:
REMARK  status: ('A' for Active; 'I' for Inactive)
REMARK    1  A    between atoms: N1_2  and  C4_5 
REMARK    2  A    between atoms: C4_5  and  C5_6 
REMARK    3  A    between atoms: C6_7  and  C7_8 
REMARK    4  A    between atoms: C7_8  and  N2_9 
REMARK    5  A    between atoms: C9_11  and  O1_12 
REMARK    6  A    between atoms: C10_14  and  O2_15 
REMARK    7  A    between atoms: C11_17  and  C12_18 
REMARK    8  A    between atoms: C12_18  and  O3_19 
ROOT
HETATM    1  N2  UNL     1      19.478  14.281  21.759  1.00  0.00    -0.371 N 
HETATM    2  C8  UNL     1      20.101  14.648  20.524  1.00  0.00     0.157 C 
HETATM    3  C9  UNL     1      20.337  13.348  19.797  1.00  0.00     0.166 C 
HETATM    4  C10 UNL     1      20.420  12.343  20.927  1.00  0.00     0.173 C 
HETATM    5  C11 UNL     1      19.374  12.917  21.885  1.00  0.00     0.139 C 
ENDROOT
BRANCH   1   6
HETATM    6  C7  UNL     1      19.588  15.188  22.805  1.00  0.00     0.151 C 
BRANCH   6   7
HETATM    7  C6  UNL     1      18.392  16.080  22.785  1.00  0.00    -0.060 C 
HETATM    8  C5  UNL     1      17.417  16.817  22.741  1.00  0.00    -0.072 C 
BRANCH   8   9
HETATM    9  C4  UNL     1      16.278  17.698  22.667  1.00  0.00     0.329 C 
BRANCH   9  10
HETATM   10  N1  UNL     1      15.558  17.801  23.904  1.00  0.00    -0.069 N 
HETATM   11  C1  UNL     1      15.071  16.439  24.203  1.00  0.00     0.272 C 
HETATM   12  C2  UNL     1      14.364  18.618  23.802  1.00  0.00     0.272 C 
HETATM   13  C3  UNL     1      16.320  18.230  25.029  1.00  0.00     0.272 C 
ENDBRANCH   9  10
ENDBRANCH   8   9
ENDBRANCH   6   7
ENDBRANCH   1   6
BRANCH   5  14
HETATM   14  C12 UNL     1      19.425  12.232  23.188  1.00  0.00     0.192 C 
BRANCH  14  15
HETATM   15  O3  UNL     1      20.658  11.608  23.367  1.00  0.00    -0.399 OA
ATOM     16  H3  UNL     1      20.653  11.077  24.155  1.00  0.00     0.209 HD
ENDBRANCH  14  15
ENDBRANCH   5  14
BRANCH   3  17
HETATM   17  O1  UNL     1      21.487  13.413  19.049  1.00  0.00    -0.391 OA
ATOM     18  H1  UNL     1      21.940  12.577  19.054  1.00  0.00     0.210 HD
ENDBRANCH   3  17
BRANCH   4  19
HETATM   19  O2  UNL     1      19.977  11.085  20.511  1.00  0.00    -0.391 OA
ATOM     20  H2  UNL     1      19.403  10.695  21.160  1.00  0.00     0.210 HD
ENDBRANCH   4  19
TORSDOF 8
ENDMDL
MODEL 5
REMARK VINA RESULT: -4.762911471      4.176      7.010
REMARK  8 active torsions:
REMARK  status: ('A' for Active; 'I' for Inactive)
REMARK    1  A    between atoms: N1_2  and  C4_5 
REMARK    2  A    between atoms: C4_5  and  C5_6 
REMARK    3  A    between atoms: C6_7  and  C7_8 
REMARK    4  A    between atoms: C7_8  and  N2_9 
REMARK    5  A    between atoms: C9_11  and  O1_12 
REMARK    6  A    between atoms: C10_14  and  O2_15 
REMARK    7  A    between atoms: C11_17  and  C12_18 
REMARK    8  A    between atoms: C12_18  and  O3_19 
ROOT
HETATM    1  N2  UNL     1      17.685  18.247  24.162  1.00  0.00    -0.371 N 
HETATM    2  C8  UNL     1      18.982  18.847  24.075  1.00  0.00     0.157 C 
HETATM    3  C9  UNL     1      18.904  20.087  24.928  1.00  0.00     0.166 C 
HETATM    4  C10 UNL     1      17.427  20.421  24.900  1.00  0.00     0.173 C 
HETATM    5  C11 UNL     1      16.825  19.014  24.910  1.00  0.00     0.139 C 
ENDROOT
BRANCH   1   6
HETATM    6  C7  UNL     1      17.323  17.393  23.128  1.00  0.00     0.151 C 
BRANCH   6   7
HETATM    7  C6  UNL     1      18.333  16.298  23.044  1.00  0.00    -0.060 C 
HETATM    8  C5  UNL     1      19.181  15.419  22.977  1.00  0.00    -0.072 C 
BRANCH   8   9
HETATM    9  C4  UNL     1      20.198  14.401  22.892  1.00  0.00     0.329 C 
BRANCH   9  10
HETATM   10  N1  UNL     1      21.395  14.733  23.610  1.00  0.00    -0.069 N 
HETATM   11  C1  UNL     1      22.477  14.754  22.605  1.00  0.00     0.272 C 
HETATM   12  C2  UNL     1      21.786  13.715  24.568  1.00  0.00     0.272 C 
HETATM   13  C3  UNL     1      21.397  16.003  24.255  1.00  0.00     0.272 C 
ENDBRANCH   9  10
ENDBRANCH   8   9
ENDBRANCH   6   7
ENDBRANCH   1   6
BRANCH   5  14
HETATM   14  C12 UNL     1      15.375  19.061  24.655  1.00  0.00     0.192 C 
BRANCH  14  15
HETATM   15  O3  UNL     1      14.676  19.297  25.837  1.00  0.00    -0.399 OA
ATOM     16  H3  UNL     1      14.181  20.106  25.777  1.00  0.00     0.209 HD
ENDBRANCH  14  15
ENDBRANCH   5  14
BRANCH   3  17
HETATM   17  O1  UNL     1      19.691  21.085  24.408  1.00  0.00    -0.391 OA
ATOM     18  H1  UNL     1      20.311  20.732  23.780  1.00  0.00     0.210 HD
ENDBRANCH   3  17
BRANCH   4  19
HETATM   19  O2  UNL     1      17.036  21.063  26.077  1.00  0.00    -0.391 OA
ATOM     20  H2  UNL     1      16.245  21.571  25.941  1.00  0.00     0.210 HD
ENDBRANCH   4  19
TORSDOF 8
ENDMDL
