MODEL 1
REMARK VINA RESULT: -8.627991612      0.000      0.000
REMARK  15 active torsions:
REMARK  status: ('A' for Active; 'I' for Inactive)
REMARK    1  A    between atoms: O1_2  and  C2_3 
REMARK    2  A    between atoms: C2_3  and  C3_4 
REMARK       I    between atoms: C3_4  and  N1_6 
REMARK    3  A    between atoms: C4_7  and  O3_8 
REMARK    4  A    between atoms: C5_10  and  C6_11 
REMARK    5  A    between atoms: C6_11  and  O4_12 
REMARK    6  A    between atoms: O4_12  and  S1_13 
REMARK    7  A    between atoms: S1_13  and  N2_16 
REMARK    8  A    between atoms: N2_16  and  O7_18 
REMARK    9  A    between atoms: O7_18  and  C7_19 
REMARK   10  A    between atoms: C8_22  and  C9_23 
REMARK   11  A    between atoms: C11_29  and  N5_30 
REMARK   12  A    between atoms: C12_35  and  N7_36 
REMARK   13  A    between atoms: N9_42  and  O10_43 
REMARK   14  A    between atoms: C15_47  and  N10_48 
REMARK   15  A    between atoms: N10_48  and  O12_50 
ROOT
HETATM    1  N2  UNL     1      -5.395  38.275 -45.156  1.00  0.00    -0.161 N 
ATOM      2  H2  UNL     1      -4.550  38.049 -44.631  1.00  0.00     0.210 HD
ENDROOT
BRANCH   1   3
HETATM    3  S1  UNL     1      -5.476  39.459 -46.172  1.00  0.00     0.381 S 
HETATM    4  O5  UNL     1      -5.730  40.680 -45.259  1.00  0.00    -0.174 OA
HETATM    5  O6  UNL     1      -3.981  39.690 -46.858  1.00  0.00    -0.174 OA
BRANCH   3   6
HETATM    6  O4  UNL     1      -6.668  39.352 -47.307  1.00  0.00    -0.252 OA
BRANCH   6   7
HETATM    7  C6  UNL     1      -7.666  40.222 -47.101  1.00  0.00     0.256 C 
BRANCH   7   8
HETATM    8  C5  UNL     1      -8.803  39.879 -46.237  1.00  0.00     0.120 A 
HETATM    9  C4  UNL     1      -9.155  40.852 -45.282  1.00  0.00     0.179 A 
HETATM   10  N1  UNL     1     -10.112  40.664 -44.382  1.00  0.00    -0.237 N 
HETATM   11  C3  UNL     1     -10.477  41.636 -43.408  1.00  0.00     0.255 C 
HETATM   12  C15 UNL     1     -10.802  39.470 -44.369  1.00  0.00     0.208 A 
HETATM   13  O2  UNL     1     -11.422  41.362 -42.604  1.00  0.00    -0.270 OA
HETATM   14  C14 UNL     1     -10.484  38.505 -45.281  1.00  0.00     0.318 A 
HETATM   15  N9  UNL     1      -9.489  38.749 -46.184  1.00  0.00    -0.182 N 
HETATM   16  O11 UNL     1     -11.083  37.381 -45.322  1.00  0.00    -0.261 OA
BRANCH   9  17
HETATM   17  O3  UNL     1      -8.429  42.045 -45.336  1.00  0.00    -0.344 OA
ATOM     18  H3  UNL     1      -7.792  42.207 -46.022  1.00  0.00     0.219 HD
ENDBRANCH   9  17
BRANCH  11  19
HETATM   19  C2  UNL     1      -9.830  42.942 -43.267  1.00  0.00     0.270 C 
BRANCH  19  20
HETATM   20  O1  UNL     1     -10.359  43.976 -43.987  1.00  0.00    -0.387 OA
HETATM   21  C1  UNL     1      -9.582  45.048 -44.277  1.00  0.00     0.202 C 
ENDBRANCH  19  20
ENDBRANCH  11  19
BRANCH  12  22
HETATM   22  N10 UNL     1     -11.735  39.284 -43.499  1.00  0.00    -0.248 N 
ATOM     23  H10 UNL     1     -11.521  39.231 -42.504  1.00  0.00     0.196 HD
BRANCH  22  24
HETATM   24  O12 UNL     1     -13.022  39.161 -43.952  1.00  0.00    -0.288 OA
ATOM     25  H12 UNL     1     -13.469  39.947 -44.245  1.00  0.00     0.244 HD
ENDBRANCH  22  24
ENDBRANCH  12  22
BRANCH  15  26
HETATM   26  O10 UNL     1      -9.130  37.701 -47.023  1.00  0.00    -0.280 OA
ATOM     27  H10 UNL     1      -9.404  36.818 -46.803  1.00  0.00     0.245 HD
ENDBRANCH  15  26
ENDBRANCH   7   8
ENDBRANCH   6   7
ENDBRANCH   3   6
ENDBRANCH   1   3
BRANCH   1  28
HETATM   28  O7  UNL     1      -6.584  37.553 -45.029  1.00  0.00    -0.206 OA
BRANCH  28  29
HETATM   29  C7  UNL     1      -6.551  36.178 -45.243  1.00  0.00     0.202 A 
HETATM   30  N3  UNL     1      -6.496  35.293 -44.240  1.00  0.00    -0.314 N 
HETATM   31  C8  UNL     1      -6.463  33.968 -44.402  1.00  0.00     0.186 A 
ATOM     32  H3  UNL     1      -6.477  35.655 -43.286  1.00  0.00     0.170 HD
HETATM   33  N4  UNL     1      -6.487  33.512 -45.669  1.00  0.00    -0.332 N 
HETATM   34  C10 UNL     1      -6.541  34.345 -46.731  1.00  0.00     0.110 A 
ATOM     35  H4  UNL     1      -6.463  32.505 -45.832  1.00  0.00     0.168 HD
HETATM   36  C11 UNL     1      -6.566  33.897 -48.028  1.00  0.00     0.144 A 
HETATM   37  C13 UNL     1      -6.575  35.724 -46.542  1.00  0.00     0.133 A 
HETATM   38  N6  UNL     1      -6.621  34.787 -49.031  1.00  0.00    -0.175 N 
HETATM   39  C12 UNL     1      -6.653  36.124 -48.842  1.00  0.00     0.678 A 
ATOM     40  H6  UNL     1      -6.639  34.435 -49.988  1.00  0.00     0.186 HD
HETATM   41  N8  UNL     1      -6.630  36.570 -47.588  1.00  0.00    -0.185 N 
ATOM     42  H8  UNL     1      -6.654  37.575 -47.415  1.00  0.00     0.184 HD
BRANCH  31  43
HETATM   43  C9  UNL     1      -6.400  33.050 -43.258  1.00  0.00     0.245 C 
HETATM   44  O8  UNL     1      -7.332  33.018 -42.444  1.00  0.00    -0.642 OA
HETATM   45  O9  UNL     1      -5.295  32.227 -43.096  1.00  0.00    -0.642 OA
ENDBRANCH  31  43
BRANCH  36  46
HETATM   46  N5  UNL     1      -6.534  32.627 -48.251  1.00  0.00    -0.383 N 
ATOM     47  H52 UNL     1      -7.384  32.063 -48.257  1.00  0.00     0.157 HD
ATOM     48  H51 UNL     1      -5.635  32.179 -48.426  1.00  0.00     0.157 HD
ENDBRANCH  36  46
BRANCH  39  49
HETATM   49  N7  UNL     1      -6.706  36.957 -49.808  1.00  0.00    -0.234 N 
ATOM     50  H72 UNL     1      -7.394  37.710 -49.788  1.00  0.00     0.174 HD
ATOM     51  H71 UNL     1      -6.085  36.906 -50.616  1.00  0.00     0.174 HD
ENDBRANCH  39  49
ENDBRANCH  28  29
ENDBRANCH   1  28
TORSDOF 15
ENDMDL
MODEL 2
REMARK VINA RESULT: -8.348773638      2.023      3.083
REMARK  15 active torsions:
REMARK  status: ('A' for Active; 'I' for Inactive)
REMARK    1  A    between atoms: O1_2  and  C2_3 
REMARK    2  A    between atoms: C2_3  and  C3_4 
REMARK       I    between atoms: C3_4  and  N1_6 
REMARK    3  A    between atoms: C4_7  and  O3_8 
REMARK    4  A    between atoms: C5_10  and  C6_11 
REMARK    5  A    between atoms: C6_11  and  O4_12 
REMARK    6  A    between atoms: O4_12  and  S1_13 
REMARK    7  A    between atoms: S1_13  and  N2_16 
REMARK    8  A    between atoms: N2_16  and  O7_18 
REMARK    9  A    between atoms: O7_18  and  C7_19 
REMARK   10  A    between atoms: C8_22  and  C9_23 
REMARK   11  A    between atoms: C11_29  and  N5_30 
REMARK   12  A    between atoms: C12_35  and  N7_36 
REMARK   13  A    between atoms: N9_42  and  O10_43 
REMARK   14  A    between atoms: C15_47  and  N10_48 
REMARK   15  A    between atoms: N10_48  and  O12_50 
ROOT
HETATM    1  N2  UNL     1      -4.642  36.465 -47.933  1.00  0.00    -0.161 N 
ATOM      2  H2  UNL     1      -3.855  35.870 -48.192  1.00  0.00     0.210 HD
ENDROOT
BRANCH   1   3
HETATM    3  S1  UNL     1      -4.473  37.947 -47.468  1.00  0.00     0.381 S 
HETATM    4  O5  UNL     1      -4.146  37.800 -45.964  1.00  0.00    -0.174 OA
HETATM    5  O6  UNL     1      -3.117  38.589 -48.180  1.00  0.00    -0.174 OA
BRANCH   3   6
HETATM    6  O4  UNL     1      -5.792  38.916 -47.662  1.00  0.00    -0.252 OA
BRANCH   6   7
HETATM    7  C6  UNL     1      -6.211  39.467 -46.514  1.00  0.00     0.256 C 
BRANCH   7   8
HETATM    8  C5  UNL     1      -7.606  39.332 -46.074  1.00  0.00     0.120 A 
HETATM    9  C4  UNL     1      -7.987  40.161 -45.002  1.00  0.00     0.179 A 
HETATM   10  N1  UNL     1      -9.190  40.108 -44.445  1.00  0.00    -0.237 N 
HETATM   11  C3  UNL     1      -9.590  40.937 -43.358  1.00  0.00     0.255 C 
HETATM   12  C15 UNL     1     -10.118  39.208 -44.925  1.00  0.00     0.208 A 
HETATM   13  O2  UNL     1     -10.773  40.819 -42.910  1.00  0.00    -0.270 OA
HETATM   14  C14 UNL     1      -9.780  38.388 -45.962  1.00  0.00     0.318 A 
HETATM   15  N9  UNL     1      -8.527  38.483 -46.499  1.00  0.00    -0.182 N 
HETATM   16  O11 UNL     1     -10.590  37.536 -46.452  1.00  0.00    -0.261 OA
BRANCH   9  17
HETATM   17  O3  UNL     1      -7.014  41.057 -44.553  1.00  0.00    -0.344 OA
ATOM     18  H3  UNL     1      -6.540  40.910 -43.742  1.00  0.00     0.219 HD
ENDBRANCH   9  17
BRANCH  11  19
HETATM   19  C2  UNL     1      -8.722  41.924 -42.715  1.00  0.00     0.270 C 
BRANCH  19  20
HETATM   20  O1  UNL     1      -8.517  43.099 -43.383  1.00  0.00    -0.387 OA
HETATM   21  C1  UNL     1      -9.563  43.704 -43.996  1.00  0.00     0.202 C 
ENDBRANCH  19  20
ENDBRANCH  11  19
BRANCH  12  22
HETATM   22  N10 UNL     1     -11.289  39.156 -44.388  1.00  0.00    -0.248 N 
ATOM     23  H10 UNL     1     -11.413  38.827 -43.431  1.00  0.00     0.196 HD
BRANCH  22  24
HETATM   24  O12 UNL     1     -12.361  39.554 -45.142  1.00  0.00    -0.288 OA
ATOM     25  H12 UNL     1     -12.745  40.404 -44.957  1.00  0.00     0.244 HD
ENDBRANCH  22  24
ENDBRANCH  12  22
BRANCH  15  26
HETATM   26  O10 UNL     1      -8.192  37.559 -47.481  1.00  0.00    -0.280 OA
ATOM     27  H10 UNL     1      -8.119  36.641 -47.246  1.00  0.00     0.245 HD
ENDBRANCH  15  26
ENDBRANCH   7   8
ENDBRANCH   6   7
ENDBRANCH   3   6
ENDBRANCH   1   3
BRANCH   1  28
HETATM   28  O7  UNL     1      -5.967  36.028 -47.963  1.00  0.00    -0.206 OA
BRANCH  28  29
HETATM   29  C7  UNL     1      -6.302  34.878 -47.254  1.00  0.00     0.202 A 
HETATM   30  N3  UNL     1      -6.480  33.690 -47.847  1.00  0.00    -0.314 N 
HETATM   31  C8  UNL     1      -6.800  32.565 -47.204  1.00  0.00     0.186 A 
ATOM     32  H3  UNL     1      -6.364  33.642 -48.859  1.00  0.00     0.170 HD
HETATM   33  N4  UNL     1      -6.951  32.652 -45.868  1.00  0.00    -0.332 N 
HETATM   34  C10 UNL     1      -6.789  33.816 -45.202  1.00  0.00     0.110 A 
ATOM     35  H4  UNL     1      -7.196  31.813 -45.343  1.00  0.00     0.168 HD
HETATM   36  C11 UNL     1      -6.939  33.923 -43.842  1.00  0.00     0.144 A 
HETATM   37  C13 UNL     1      -6.454  34.980 -45.890  1.00  0.00     0.133 A 
HETATM   38  N6  UNL     1      -6.760  35.115 -43.252  1.00  0.00    -0.175 N 
HETATM   39  C12 UNL     1      -6.435  36.240 -43.923  1.00  0.00     0.678 A 
ATOM     40  H6  UNL     1      -6.875  35.174 -42.240  1.00  0.00     0.186 HD
HETATM   41  N8  UNL     1      -6.287  36.148 -45.244  1.00  0.00    -0.185 N 
ATOM     42  H8  UNL     1      -6.041  36.982 -45.777  1.00  0.00     0.184 HD
BRANCH  31  43
HETATM   43  C9  UNL     1      -6.985  31.293 -47.914  1.00  0.00     0.245 C 
HETATM   44  O8  UNL     1      -6.503  31.147 -49.045  1.00  0.00    -0.642 OA
HETATM   45  O9  UNL     1      -7.700  30.267 -47.315  1.00  0.00    -0.642 OA
ENDBRANCH  31  43
BRANCH  36  46
HETATM   46  N5  UNL     1      -7.251  32.871 -43.164  1.00  0.00    -0.383 N 
ATOM     47  H52 UNL     1      -7.721  32.075 -43.596  1.00  0.00     0.157 HD
ATOM     48  H51 UNL     1      -7.019  32.836 -42.172  1.00  0.00     0.157 HD
ENDBRANCH  36  46
BRANCH  39  49
HETATM   49  N7  UNL     1      -6.268  37.366 -43.345  1.00  0.00    -0.234 N 
ATOM     50  H72 UNL     1      -6.596  37.495 -42.389  1.00  0.00     0.174 HD
ATOM     51  H71 UNL     1      -5.815  38.158 -43.801  1.00  0.00     0.174 HD
ENDBRANCH  39  49
ENDBRANCH  28  29
ENDBRANCH   1  28
TORSDOF 15
ENDMDL
MODEL 3
REMARK VINA RESULT: -8.316955870      2.160      8.144
REMARK  15 active torsions:
REMARK  status: ('A' for Active; 'I' for Inactive)
REMARK    1  A    between atoms: O1_2  and  C2_3 
REMARK    2  A    between atoms: C2_3  and  C3_4 
REMARK       I    between atoms: C3_4  and  N1_6 
REMARK    3  A    between atoms: C4_7  and  O3_8 
REMARK    4  A    between atoms: C5_10  and  C6_11 
REMARK    5  A    between atoms: C6_11  and  O4_12 
REMARK    6  A    between atoms: O4_12  and  S1_13 
REMARK    7  A    between atoms: S1_13  and  N2_16 
REMARK    8  A    between atoms: N2_16  and  O7_18 
REMARK    9  A    between atoms: O7_18  and  C7_19 
REMARK   10  A    between atoms: C8_22  and  C9_23 
REMARK   11  A    between atoms: C11_29  and  N5_30 
REMARK   12  A    between atoms: C12_35  and  N7_36 
REMARK   13  A    between atoms: N9_42  and  O10_43 
REMARK   14  A    between atoms: C15_47  and  N10_48 
REMARK   15  A    between atoms: N10_48  and  O12_50 
ROOT
HETATM    1  N2  UNL     1      -9.060  38.147 -46.221  1.00  0.00    -0.161 N 
ATOM      2  H2  UNL     1      -8.936  37.160 -45.993  1.00  0.00     0.210 HD
ENDROOT
BRANCH   1   3
HETATM    3  S1  UNL     1      -7.880  39.077 -46.648  1.00  0.00     0.381 S 
HETATM    4  O5  UNL     1      -8.582  40.145 -47.519  1.00  0.00    -0.174 OA
HETATM    5  O6  UNL     1      -7.301  39.872 -45.310  1.00  0.00    -0.174 OA
BRANCH   3   6
HETATM    6  O4  UNL     1      -6.673  38.357 -47.511  1.00  0.00    -0.252 OA
BRANCH   6   7
HETATM    7  C6  UNL     1      -5.729  37.809 -46.733  1.00  0.00     0.256 C 
BRANCH   7   8
HETATM    8  C5  UNL     1      -6.014  36.619 -45.922  1.00  0.00     0.120 A 
HETATM    9  C4  UNL     1      -6.241  35.432 -46.644  1.00  0.00     0.179 A 
HETATM   10  N1  UNL     1      -6.581  34.289 -46.061  1.00  0.00    -0.237 N 
HETATM   11  C3  UNL     1      -6.817  33.081 -46.778  1.00  0.00     0.255 C 
HETATM   12  C15 UNL     1      -6.720  34.245 -44.690  1.00  0.00     0.208 A 
HETATM   13  O2  UNL     1      -7.118  32.036 -46.121  1.00  0.00    -0.270 OA
HETATM   14  C14 UNL     1      -6.509  35.379 -43.960  1.00  0.00     0.318 A 
HETATM   15  N9  UNL     1      -6.163  36.530 -44.610  1.00  0.00    -0.182 N 
HETATM   16  O11 UNL     1      -6.621  35.405 -42.691  1.00  0.00    -0.261 OA
BRANCH   9  17
HETATM   17  O3  UNL     1      -6.086  35.526 -48.029  1.00  0.00    -0.344 OA
ATOM     18  H3  UNL     1      -5.469  36.135 -48.419  1.00  0.00     0.219 HD
ENDBRANCH   9  17
BRANCH  11  19
HETATM   19  C2  UNL     1      -6.737  32.961 -48.235  1.00  0.00     0.270 C 
BRANCH  19  20
HETATM   20  O1  UNL     1      -7.741  32.273 -48.856  1.00  0.00    -0.387 OA
HETATM   21  C1  UNL     1      -7.473  31.068 -49.414  1.00  0.00     0.202 C 
ENDBRANCH  19  20
ENDBRANCH  11  19
BRANCH  12  22
HETATM   22  N10 UNL     1      -7.047  33.136 -44.120  1.00  0.00    -0.248 N 
ATOM     23  H10 UNL     1      -7.935  32.680 -44.328  1.00  0.00     0.196 HD
BRANCH  22  24
HETATM   24  O12 UNL     1      -6.165  32.588 -43.226  1.00  0.00    -0.288 OA
ATOM     25  H12 UNL     1      -5.694  31.804 -43.487  1.00  0.00     0.244 HD
ENDBRANCH  22  24
ENDBRANCH  12  22
BRANCH  15  26
HETATM   26  O10 UNL     1      -6.061  37.681 -43.839  1.00  0.00    -0.280 OA
ATOM     27  H10 UNL     1      -5.451  37.697 -43.110  1.00  0.00     0.245 HD
ENDBRANCH  15  26
ENDBRANCH   7   8
ENDBRANCH   6   7
ENDBRANCH   3   6
ENDBRANCH   1   3
BRANCH   1  28
HETATM   28  O7  UNL     1     -10.300  38.787 -46.177  1.00  0.00    -0.206 OA
BRANCH  28  29
HETATM   29  C7  UNL     1     -10.618  39.540 -45.050  1.00  0.00     0.202 A 
HETATM   30  N3  UNL     1     -10.053  40.726 -44.791  1.00  0.00    -0.314 N 
HETATM   31  C8  UNL     1     -10.332  41.478 -43.724  1.00  0.00     0.186 A 
ATOM     32  H3  UNL     1      -9.364  41.079 -45.455  1.00  0.00     0.170 HD
HETATM   33  N4  UNL     1     -11.243  40.991 -42.860  1.00  0.00    -0.332 N 
HETATM   34  C10 UNL     1     -11.853  39.802 -43.055  1.00  0.00     0.110 A 
ATOM     35  H4  UNL     1     -11.481  41.539 -42.033  1.00  0.00     0.168 HD
HETATM   36  C11 UNL     1     -12.785  39.292 -42.185  1.00  0.00     0.144 A 
HETATM   37  C13 UNL     1     -11.551  39.032 -44.175  1.00  0.00     0.133 A 
HETATM   38  N6  UNL     1     -13.348  38.102 -42.448  1.00  0.00    -0.175 N 
HETATM   39  C12 UNL     1     -13.051  37.359 -43.536  1.00  0.00     0.678 A 
ATOM     40  H6  UNL     1     -14.038  37.740 -41.791  1.00  0.00     0.186 HD
HETATM   41  N8  UNL     1     -12.149  37.845 -44.387  1.00  0.00    -0.185 N 
ATOM     42  H8  UNL     1     -11.906  37.305 -45.217  1.00  0.00     0.184 HD
BRANCH  31  43
HETATM   43  C9  UNL     1      -9.673  42.771 -43.496  1.00  0.00     0.245 C 
HETATM   44  O8  UNL     1     -10.300  43.820 -43.690  1.00  0.00    -0.642 OA
HETATM   45  O9  UNL     1      -8.354  42.806 -43.068  1.00  0.00    -0.642 OA
ENDBRANCH  31  43
BRANCH  36  46
HETATM   46  N5  UNL     1     -13.094  39.971 -41.133  1.00  0.00    -0.383 N 
ATOM     47  H52 UNL     1     -12.417  40.145 -40.390  1.00  0.00     0.157 HD
ATOM     48  H51 UNL     1     -14.039  40.343 -41.046  1.00  0.00     0.157 HD
ENDBRANCH  36  46
BRANCH  39  49
HETATM   49  N7  UNL     1     -13.598  36.230 -43.770  1.00  0.00    -0.234 N 
ATOM     50  H72 UNL     1     -14.442  35.963 -43.265  1.00  0.00     0.174 HD
ATOM     51  H71 UNL     1     -13.225  35.567 -44.450  1.00  0.00     0.174 HD
ENDBRANCH  39  49
ENDBRANCH  28  29
ENDBRANCH   1  28
TORSDOF 15
ENDMDL
MODEL 4
REMARK VINA RESULT: -8.136387497      2.240      4.102
REMARK  15 active torsions:
REMARK  status: ('A' for Active; 'I' for Inactive)
REMARK    1  A    between atoms: O1_2  and  C2_3 
REMARK    2  A    between atoms: C2_3  and  C3_4 
REMARK       I    between atoms: C3_4  and  N1_6 
REMARK    3  A    between atoms: C4_7  and  O3_8 
REMARK    4  A    between atoms: C5_10  and  C6_11 
REMARK    5  A    between atoms: C6_11  and  O4_12 
REMARK    6  A    between atoms: O4_12  and  S1_13 
REMARK    7  A    between atoms: S1_13  and  N2_16 
REMARK    8  A    between atoms: N2_16  and  O7_18 
REMARK    9  A    between atoms: O7_18  and  C7_19 
REMARK   10  A    between atoms: C8_22  and  C9_23 
REMARK   11  A    between atoms: C11_29  and  N5_30 
REMARK   12  A    between atoms: C12_35  and  N7_36 
REMARK   13  A    between atoms: N9_42  and  O10_43 
REMARK   14  A    between atoms: C15_47  and  N10_48 
REMARK   15  A    between atoms: N10_48  and  O12_50 
ROOT
HETATM    1  N2  UNL     1      -5.961  37.479 -48.587  1.00  0.00    -0.161 N 
ATOM      2  H2  UNL     1      -6.555  37.263 -49.387  1.00  0.00     0.210 HD
ENDROOT
BRANCH   1   3
HETATM    3  S1  UNL     1      -5.830  38.916 -47.987  1.00  0.00     0.381 S 
HETATM    4  O5  UNL     1      -5.037  38.673 -46.681  1.00  0.00    -0.174 OA
HETATM    5  O6  UNL     1      -4.847  39.827 -48.968  1.00  0.00    -0.174 OA
BRANCH   3   6
HETATM    6  O4  UNL     1      -7.248  39.685 -47.645  1.00  0.00    -0.252 OA
BRANCH   6   7
HETATM    7  C6  UNL     1      -8.041  38.980 -46.825  1.00  0.00     0.256 C 
BRANCH   7   8
HETATM    8  C5  UNL     1      -8.539  39.560 -45.571  1.00  0.00     0.120 A 
HETATM    9  C4  UNL     1      -9.853  39.199 -45.215  1.00  0.00     0.179 A 
HETATM   10  N1  UNL     1     -10.470  39.694 -44.150  1.00  0.00    -0.237 N 
HETATM   11  C3  UNL     1     -11.799  39.342 -43.778  1.00  0.00     0.255 C 
HETATM   12  C15 UNL     1      -9.812  40.600 -43.347  1.00  0.00     0.208 A 
HETATM   13  O2  UNL     1     -12.291  39.859 -42.727  1.00  0.00    -0.270 OA
HETATM   14  C14 UNL     1      -8.538  40.973 -43.665  1.00  0.00     0.318 A 
HETATM   15  N9  UNL     1      -7.948  40.435 -44.774  1.00  0.00    -0.182 N 
HETATM   16  O11 UNL     1      -7.874  41.806 -42.965  1.00  0.00    -0.261 OA
BRANCH   9  17
HETATM   17  O3  UNL     1     -10.477  38.276 -46.057  1.00  0.00    -0.344 OA
ATOM     18  H3  UNL     1      -9.977  37.728 -46.651  1.00  0.00     0.219 HD
ENDBRANCH   9  17
BRANCH  11  19
HETATM   19  C2  UNL     1     -12.646  38.416 -44.533  1.00  0.00     0.270 C 
BRANCH  19  20
HETATM   20  O1  UNL     1     -12.460  37.081 -44.306  1.00  0.00    -0.387 OA
HETATM   21  C1  UNL     1     -13.197  36.461 -43.354  1.00  0.00     0.202 C 
ENDBRANCH  19  20
ENDBRANCH  11  19
BRANCH  12  22
HETATM   22  N10 UNL     1     -10.407  41.081 -42.310  1.00  0.00    -0.248 N 
ATOM     23  H10 UNL     1     -11.155  41.767 -42.405  1.00  0.00     0.196 HD
BRANCH  22  24
HETATM   24  O12 UNL     1     -10.005  40.642 -41.075  1.00  0.00    -0.288 OA
ATOM     25  H12 UNL     1     -10.543  39.995 -40.635  1.00  0.00     0.244 HD
ENDBRANCH  22  24
ENDBRANCH  12  22
BRANCH  15  26
HETATM   26  O10 UNL     1      -6.692  40.921 -45.118  1.00  0.00    -0.280 OA
ATOM     27  H10 UNL     1      -5.939  40.661 -44.601  1.00  0.00     0.245 HD
ENDBRANCH  15  26
ENDBRANCH   7   8
ENDBRANCH   6   7
ENDBRANCH   3   6
ENDBRANCH   1   3
BRANCH   1  28
HETATM   28  O7  UNL     1      -5.193  36.517 -47.929  1.00  0.00    -0.206 OA
BRANCH  28  29
HETATM   29  C7  UNL     1      -5.827  35.371 -47.457  1.00  0.00     0.202 A 
HETATM   30  N3  UNL     1      -6.058  34.303 -48.231  1.00  0.00    -0.314 N 
HETATM   31  C8  UNL     1      -6.661  33.187 -47.817  1.00  0.00     0.186 A 
ATOM     32  H3  UNL     1      -5.754  34.346 -49.203  1.00  0.00     0.170 HD
HETATM   33  N4  UNL     1      -7.057  33.153 -46.530  1.00  0.00    -0.332 N 
HETATM   34  C10 UNL     1      -6.859  34.192 -45.690  1.00  0.00     0.110 A 
ATOM     35  H4  UNL     1      -7.522  32.315 -46.178  1.00  0.00     0.168 HD
HETATM   36  C11 UNL     1      -7.255  34.174 -44.376  1.00  0.00     0.144 A 
HETATM   37  C13 UNL     1      -6.227  35.349 -46.140  1.00  0.00     0.133 A 
HETATM   38  N6  UNL     1      -7.021  35.246 -43.604  1.00  0.00    -0.175 N 
HETATM   39  C12 UNL     1      -6.408  36.365 -44.045  1.00  0.00     0.678 A 
ATOM     40  H6  UNL     1      -7.323  35.213 -42.630  1.00  0.00     0.186 HD
HETATM   41  N8  UNL     1      -6.019  36.394 -45.318  1.00  0.00    -0.185 N 
ATOM     42  H8  UNL     1      -5.553  37.226 -45.678  1.00  0.00     0.184 HD
BRANCH  31  43
HETATM   43  C9  UNL     1      -6.889  32.051 -48.719  1.00  0.00     0.245 C 
HETATM   44  O8  UNL     1      -8.033  31.809 -49.125  1.00  0.00    -0.642 OA
HETATM   45  O9  UNL     1      -5.820  31.256 -49.109  1.00  0.00    -0.642 OA
ENDBRANCH  31  43
BRANCH  36  46
HETATM   46  N5  UNL     1      -7.846  33.123 -43.917  1.00  0.00    -0.383 N 
ATOM     47  H52 UNL     1      -7.976  32.289 -44.489  1.00  0.00     0.157 HD
ATOM     48  H51 UNL     1      -8.190  33.130 -42.958  1.00  0.00     0.157 HD
ENDBRANCH  36  46
BRANCH  39  49
HETATM   49  N7  UNL     1      -6.193  37.376 -43.295  1.00  0.00    -0.234 N 
ATOM     50  H72 UNL     1      -5.317  37.890 -43.381  1.00  0.00     0.174 HD
ATOM     51  H71 UNL     1      -6.866  37.701 -42.601  1.00  0.00     0.174 HD
ENDBRANCH  39  49
ENDBRANCH  28  29
ENDBRANCH   1  28
TORSDOF 15
ENDMDL
MODEL 5
REMARK VINA RESULT: -8.080783147      1.732      2.510
REMARK  15 active torsions:
REMARK  status: ('A' for Active; 'I' for Inactive)
REMARK    1  A    between atoms: O1_2  and  C2_3 
REMARK    2  A    between atoms: C2_3  and  C3_4 
REMARK       I    between atoms: C3_4  and  N1_6 
REMARK    3  A    between atoms: C4_7  and  O3_8 
REMARK    4  A    between atoms: C5_10  and  C6_11 
REMARK    5  A    between atoms: C6_11  and  O4_12 
REMARK    6  A    between atoms: O4_12  and  S1_13 
REMARK    7  A    between atoms: S1_13  and  N2_16 
REMARK    8  A    between atoms: N2_16  and  O7_18 
REMARK    9  A    between atoms: O7_18  and  C7_19 
REMARK   10  A    between atoms: C8_22  and  C9_23 
REMARK   11  A    between atoms: C11_29  and  N5_30 
REMARK   12  A    between atoms: C12_35  and  N7_36 
REMARK   13  A    between atoms: N9_42  and  O10_43 
REMARK   14  A    between atoms: C15_47  and  N10_48 
REMARK   15  A    between atoms: N10_48  and  O12_50 
ROOT
HETATM    1  N2  UNL     1      -5.115  38.117 -45.377  1.00  0.00    -0.161 N 
ATOM      2  H2  UNL     1      -4.240  37.741 -45.009  1.00  0.00     0.210 HD
ENDROOT
BRANCH   1   3
HETATM    3  S1  UNL     1      -5.191  39.440 -46.204  1.00  0.00     0.381 S 
HETATM    4  O5  UNL     1      -3.715  39.689 -46.592  1.00  0.00    -0.174 OA
HETATM    5  O6  UNL     1      -6.004  39.149 -47.623  1.00  0.00    -0.174 OA
BRANCH   3   6
HETATM    6  O4  UNL     1      -5.789  40.753 -45.406  1.00  0.00    -0.252 OA
BRANCH   6   7
HETATM    7  C6  UNL     1      -6.877  40.471 -44.675  1.00  0.00     0.256 C 
BRANCH   7   8
HETATM    8  C5  UNL     1      -8.225  40.734 -45.193  1.00  0.00     0.120 A 
HETATM    9  C4  UNL     1      -9.282  40.448 -44.307  1.00  0.00     0.179 A 
HETATM   10  N1  UNL     1     -10.559  40.565 -44.649  1.00  0.00    -0.237 N 
HETATM   11  C3  UNL     1     -11.638  40.276 -43.766  1.00  0.00     0.255 C 
HETATM   12  C15 UNL     1     -10.881  40.983 -45.923  1.00  0.00     0.208 A 
HETATM   13  O2  UNL     1     -12.826  40.440 -44.188  1.00  0.00    -0.270 OA
HETATM   14  C14 UNL     1      -9.881  41.266 -46.807  1.00  0.00     0.318 A 
HETATM   15  N9  UNL     1      -8.583  41.128 -46.404  1.00  0.00    -0.182 N 
HETATM   16  O11 UNL     1     -10.112  41.656 -47.998  1.00  0.00    -0.261 OA
BRANCH   9  17
HETATM   17  O3  UNL     1      -8.905  40.031 -43.028  1.00  0.00    -0.344 OA
ATOM     18  H3  UNL     1      -9.216  40.476 -42.248  1.00  0.00     0.219 HD
ENDBRANCH   9  17
BRANCH  11  19
HETATM   19  C2  UNL     1     -11.472  39.799 -42.393  1.00  0.00     0.270 C 
BRANCH  19  20
HETATM   20  O1  UNL     1     -12.479  40.080 -41.512  1.00  0.00    -0.387 OA
HETATM   21  C1  UNL     1     -13.595  39.312 -41.514  1.00  0.00     0.202 C 
ENDBRANCH  19  20
ENDBRANCH  11  19
BRANCH  12  22
HETATM   22  N10 UNL     1     -12.121  41.100 -46.258  1.00  0.00    -0.248 N 
ATOM     23  H10 UNL     1     -12.694  41.860 -45.893  1.00  0.00     0.196 HD
BRANCH  22  24
HETATM   24  O12 UNL     1     -12.645  40.173 -47.120  1.00  0.00    -0.288 OA
ATOM     25  H12 UNL     1     -12.152  39.966 -47.906  1.00  0.00     0.244 HD
ENDBRANCH  22  24
ENDBRANCH  12  22
BRANCH  15  26
HETATM   26  O10 UNL     1      -7.601  41.325 -47.367  1.00  0.00    -0.280 OA
ATOM     27  H10 UNL     1      -7.719  42.012 -48.014  1.00  0.00     0.245 HD
ENDBRANCH  15  26
ENDBRANCH   7   8
ENDBRANCH   6   7
ENDBRANCH   3   6
ENDBRANCH   1   3
BRANCH   1  28
HETATM   28  O7  UNL     1      -6.350  37.495 -45.186  1.00  0.00    -0.206 OA
BRANCH  28  29
HETATM   29  C7  UNL     1      -6.426  36.112 -45.334  1.00  0.00     0.202 A 
HETATM   30  N3  UNL     1      -6.379  35.272 -44.292  1.00  0.00    -0.314 N 
HETATM   31  C8  UNL     1      -6.450  33.943 -44.391  1.00  0.00     0.186 A 
ATOM     32  H3  UNL     1      -6.283  35.675 -43.360  1.00  0.00     0.170 HD
HETATM   33  N4  UNL     1      -6.574  33.432 -45.631  1.00  0.00    -0.332 N 
HETATM   34  C10 UNL     1      -6.627  34.217 -46.728  1.00  0.00     0.110 A 
ATOM     35  H4  UNL     1      -6.631  32.420 -45.745  1.00  0.00     0.168 HD
HETATM   36  C11 UNL     1      -6.754  33.714 -47.999  1.00  0.00     0.144 A 
HETATM   37  C13 UNL     1      -6.553  35.603 -46.606  1.00  0.00     0.133 A 
HETATM   38  N6  UNL     1      -6.800  34.560 -49.040  1.00  0.00    -0.175 N 
HETATM   39  C12 UNL     1      -6.727  35.903 -48.916  1.00  0.00     0.678 A 
ATOM     40  H6  UNL     1      -6.895  34.167 -49.976  1.00  0.00     0.186 HD
HETATM   41  N8  UNL     1      -6.604  36.402 -47.688  1.00  0.00    -0.185 N 
ATOM     42  H8  UNL     1      -6.548  37.413 -47.563  1.00  0.00     0.184 HD
BRANCH  31  43
HETATM   43  C9  UNL     1      -6.389  33.075 -43.207  1.00  0.00     0.245 C 
HETATM   44  O8  UNL     1      -5.407  32.341 -43.035  1.00  0.00    -0.642 OA
HETATM   45  O9  UNL     1      -7.433  33.083 -42.293  1.00  0.00    -0.642 OA
ENDBRANCH  31  43
BRANCH  36  46
HETATM   46  N5  UNL     1      -6.824  32.437 -48.160  1.00  0.00    -0.383 N 
ATOM     47  H52 UNL     1      -6.884  32.016 -49.087  1.00  0.00     0.157 HD
ATOM     48  H51 UNL     1      -6.817  31.834 -47.338  1.00  0.00     0.157 HD
ENDBRANCH  36  46
BRANCH  39  49
HETATM   49  N7  UNL     1      -6.774  36.692 -49.917  1.00  0.00    -0.234 N 
ATOM     50  H72 UNL     1      -7.519  37.386 -49.979  1.00  0.00     0.174 HD
ATOM     51  H71 UNL     1      -6.091  36.664 -50.675  1.00  0.00     0.174 HD
ENDBRANCH  39  49
ENDBRANCH  28  29
ENDBRANCH   1  28
TORSDOF 15
ENDMDL
