MODEL 1
REMARK VINA RESULT: -8.946717100      0.000      0.000
REMARK  12 active torsions:
REMARK  status: ('A' for Active; 'I' for Inactive)
REMARK    1  A    between atoms: C2_2  and  C3_3 
REMARK    2  A    between atoms: C3_3  and  C4_4 
REMARK    3  A    between atoms: C4_4  and  C5_5 
REMARK    4  A    between atoms: C5_5  and  O1_6 
REMARK    5  A    between atoms: O1_6  and  C6_7 
REMARK    6  A    between atoms: C7_9  and  C8_10 
REMARK    7  A    between atoms: C10_12  and  C11_13 
REMARK    8  A    between atoms: C15_17  and  C17_19 
REMARK    9  A    between atoms: C27_31  and  C29_33 
REMARK   10  A    between atoms: C40_44  and  O4_45 
REMARK   11  A    between atoms: C41_47  and  O5_48 
REMARK   12  A    between atoms: C42_50  and  O6_51 
ROOT
HETATM    1  C11 UNL     1      -1.380  34.309  25.293  1.00  0.00    -0.031 C 
HETATM    2  C12 UNL     1      -2.260  34.384  26.579  1.00  0.00     0.016 C 
HETATM    3  C13 UNL     1      -0.062  33.773  25.740  1.00  0.00     0.011 C 
HETATM    4  C14 UNL     1       0.107  32.492  24.923  1.00  0.00     0.011 C 
HETATM    5  C15 UNL     1      -1.336  31.985  24.911  1.00  0.00    -0.030 C 
HETATM    6  C16 UNL     1      -1.602  31.534  26.301  1.00  0.00     0.016 C 
HETATM    7  C29 UNL     1      -4.028  32.266  21.251  1.00  0.00    -0.019 C 
HETATM    8  C30 UNL     1      -5.488  31.915  21.522  1.00  0.00     0.018 C 
HETATM    9  C31 UNL     1      -4.086  33.391  20.265  1.00  0.00    -0.004 C 
HETATM   10  C32 UNL     1      -5.169  33.410  19.245  1.00  0.00     0.011 C 
HETATM   11  C33 UNL     1      -4.462  34.172  21.560  1.00  0.00    -0.004 C 
HETATM   12  C34 UNL     1      -4.064  35.615  21.538  1.00  0.00     0.011 C 
HETATM   13  C35 UNL     1      -3.391  33.207  22.127  1.00  0.00    -0.019 A 
HETATM   14  C36 UNL     1      -2.107  33.804  22.180  1.00  0.00     0.022 A 
HETATM   15  C37 UNL     1      -2.761  33.209  23.293  1.00  0.00    -0.021 A 
HETATM   16  C38 UNL     1      -3.490  33.442  24.468  1.00  0.00     0.023 A 
HETATM   17  C39 UNL     1      -2.058  33.250  24.452  1.00  0.00    -0.016 A 
ENDROOT
BRANCH   1  18
HETATM   18  C10 UNL     1      -1.357  35.706  24.838  1.00  0.00     0.002 A 
HETATM   19  C8  UNL     1      -0.298  36.466  24.173  1.00  0.00     0.022 A 
HETATM   20  C9  UNL     1      -0.467  36.617  25.674  1.00  0.00     0.013 A 
BRANCH  19  21
HETATM   21  C7  UNL     1      -0.639  37.821  23.549  1.00  0.00     0.160 C 
HETATM   22  O2  UNL     1       0.380  38.051  22.542  1.00  0.00    -0.350 OA
HETATM   23  C6  UNL     1       0.499  39.445  22.490  1.00  0.00     0.291 C 
HETATM   24  C42 UNL     1      -0.821  40.134  22.493  1.00  0.00     0.204 C 
HETATM   25  C41 UNL     1      -2.006  39.276  22.192  1.00  0.00     0.183 C 
HETATM   26  C40 UNL     1      -1.885  37.854  22.732  1.00  0.00     0.178 C 
BRANCH  23  27
HETATM   27  O1  UNL     1       1.201  39.802  21.355  1.00  0.00    -0.359 OA
BRANCH  27  28
HETATM   28  C5  UNL     1       2.537  40.023  21.524  1.00  0.00     0.171 C 
BRANCH  28  29
HETATM   29  C4  UNL     1       3.079  39.799  22.891  1.00  0.00     0.026 C 
BRANCH  29  30
HETATM   30  C3  UNL     1       4.613  39.783  22.758  1.00  0.00     0.002 C 
BRANCH  30  31
HETATM   31  C2  UNL     1       5.158  39.461  24.130  1.00  0.00    -0.004 C 
HETATM   32  C1  UNL     1       6.615  39.085  24.076  1.00  0.00     0.005 C 
ENDBRANCH  30  31
ENDBRANCH  29  30
ENDBRANCH  28  29
ENDBRANCH  27  28
ENDBRANCH  23  27
BRANCH  24  33
HETATM   33  O6  UNL     1      -0.783  41.262  21.649  1.00  0.00    -0.388 OA
ATOM     34  H6  UNL     1      -1.284  41.097  20.859  1.00  0.00     0.210 HD
ENDBRANCH  24  33
BRANCH  25  35
HETATM   35  O5  UNL     1      -2.272  39.298  20.825  1.00  0.00    -0.390 OA
ATOM     36  H5  UNL     1      -1.477  39.322  20.306  1.00  0.00     0.210 HD
ENDBRANCH  25  35
BRANCH  26  37
HETATM   37  O4  UNL     1      -3.063  37.545  23.329  1.00  0.00    -0.390 OA
ATOM     38  H4  UNL     1      -3.500  38.211  23.847  1.00  0.00     0.210 HD
ENDBRANCH  26  37
ENDBRANCH  19  21
ENDBRANCH   1  18
BRANCH   5  39
HETATM   39  C17 UNL     1      -1.509  30.842  24.001  1.00  0.00     0.003 C 
HETATM   40  C18 UNL     1      -0.588  31.028  22.826  1.00  0.00     0.011 C 
HETATM   41  C19 UNL     1       0.379  29.890  22.663  1.00  0.00     0.054 C 
HETATM   42  C20 UNL     1       0.027  28.543  23.061  1.00  0.00     0.005 C 
HETATM   43  N1  UNL     1      -1.400  28.343  22.779  1.00  0.00    -0.303 N 
HETATM   44  C27 UNL     1       0.324  27.766  24.254  1.00  0.00     0.004 C 
HETATM   45  C21 UNL     1      -2.529  29.153  22.586  1.00  0.00     0.077 C 
HETATM   46  C24 UNL     1      -1.599  26.905  22.668  1.00  0.00     0.227 C 
HETATM   47  C22 UNL     1      -2.783  30.340  23.490  1.00  0.00     0.025 C 
HETATM   48  C23 UNL     1      -3.846  29.922  24.442  1.00  0.00     0.016 C 
HETATM   49  O3  UNL     1      -2.785  26.514  22.564  1.00  0.00    -0.273 OA
HETATM   50  C25 UNL     1      -0.402  26.032  22.686  1.00  0.00     0.105 C 
HETATM   51  C26 UNL     1       0.731  26.385  23.658  1.00  0.00     0.025 C 
HETATM   52  C28 UNL     1      -0.746  27.217  25.173  1.00  0.00     0.022 C 
ENDBRANCH   5  39
TORSDOF 12
ENDMDL
MODEL 2
REMARK VINA RESULT: -8.397473282      3.280      4.635
REMARK  12 active torsions:
REMARK  status: ('A' for Active; 'I' for Inactive)
REMARK    1  A    between atoms: C2_2  and  C3_3 
REMARK    2  A    between atoms: C3_3  and  C4_4 
REMARK    3  A    between atoms: C4_4  and  C5_5 
REMARK    4  A    between atoms: C5_5  and  O1_6 
REMARK    5  A    between atoms: O1_6  and  C6_7 
REMARK    6  A    between atoms: C7_9  and  C8_10 
REMARK    7  A    between atoms: C10_12  and  C11_13 
REMARK    8  A    between atoms: C15_17  and  C17_19 
REMARK    9  A    between atoms: C27_31  and  C29_33 
REMARK   10  A    between atoms: C40_44  and  O4_45 
REMARK   11  A    between atoms: C41_47  and  O5_48 
REMARK   12  A    between atoms: C42_50  and  O6_51 
ROOT
HETATM    1  C11 UNL     1      -2.171  34.256  27.854  1.00  0.00    -0.031 C 
HETATM    2  C12 UNL     1      -3.577  33.680  28.208  1.00  0.00     0.016 C 
HETATM    3  C13 UNL     1      -1.198  33.452  28.649  1.00  0.00     0.011 C 
HETATM    4  C14 UNL     1      -0.287  32.830  27.591  1.00  0.00     0.011 C 
HETATM    5  C15 UNL     1      -1.309  32.538  26.491  1.00  0.00    -0.030 C 
HETATM    6  C16 UNL     1      -2.134  31.418  27.011  1.00  0.00     0.016 C 
HETATM    7  C29 UNL     1      -1.634  35.027  22.692  1.00  0.00    -0.019 C 
HETATM    8  C30 UNL     1      -2.860  34.710  21.841  1.00  0.00     0.018 C 
HETATM    9  C31 UNL     1      -1.465  36.509  22.575  1.00  0.00    -0.004 C 
HETATM   10  C32 UNL     1      -1.807  37.182  21.292  1.00  0.00     0.011 C 
HETATM   11  C33 UNL     1      -2.659  36.471  23.575  1.00  0.00    -0.004 C 
HETATM   12  C34 UNL     1      -2.714  37.645  24.503  1.00  0.00     0.011 C 
HETATM   13  C35 UNL     1      -1.833  35.267  24.093  1.00  0.00    -0.019 A 
HETATM   14  C36 UNL     1      -0.985  35.623  25.171  1.00  0.00     0.022 A 
HETATM   15  C37 UNL     1      -1.938  34.570  25.215  1.00  0.00    -0.021 A 
HETATM   16  C38 UNL     1      -3.206  34.173  25.663  1.00  0.00     0.023 A 
HETATM   17  C39 UNL     1      -1.991  33.902  26.395  1.00  0.00    -0.016 A 
ENDROOT
BRANCH   1  18
HETATM   18  C10 UNL     1      -2.288  35.663  28.260  1.00  0.00     0.002 A 
HETATM   19  C8  UNL     1      -2.858  36.252  29.473  1.00  0.00     0.022 A 
HETATM   20  C9  UNL     1      -3.712  36.205  28.219  1.00  0.00     0.013 A 
BRANCH  19  21
HETATM   21  C7  UNL     1      -2.591  37.729  29.773  1.00  0.00     0.160 C 
HETATM   22  O2  UNL     1      -1.955  38.258  28.581  1.00  0.00    -0.350 OA
HETATM   23  C6  UNL     1      -1.133  39.285  29.059  1.00  0.00     0.291 C 
HETATM   24  C42 UNL     1      -1.812  40.138  30.073  1.00  0.00     0.204 C 
HETATM   25  C41 UNL     1      -3.299  40.006  30.147  1.00  0.00     0.183 C 
HETATM   26  C40 UNL     1      -3.801  38.590  29.878  1.00  0.00     0.178 C 
BRANCH  23  27
HETATM   27  O1  UNL     1      -0.720  40.071  28.001  1.00  0.00    -0.359 OA
BRANCH  27  28
HETATM   28  C5  UNL     1      -0.829  39.509  26.762  1.00  0.00     0.171 C 
BRANCH  28  29
HETATM   29  C4  UNL     1       0.436  39.046  26.129  1.00  0.00     0.026 C 
BRANCH  29  30
HETATM   30  C3  UNL     1       0.356  39.444  24.645  1.00  0.00     0.002 C 
BRANCH  30  31
HETATM   31  C2  UNL     1       1.409  38.632  23.926  1.00  0.00    -0.004 C 
HETATM   32  C1  UNL     1       2.646  39.445  23.649  1.00  0.00     0.005 C 
ENDBRANCH  30  31
ENDBRANCH  29  30
ENDBRANCH  28  29
ENDBRANCH  27  28
ENDBRANCH  23  27
BRANCH  24  33
HETATM   33  O6  UNL     1      -1.430  41.485  29.911  1.00  0.00    -0.388 OA
ATOM     34  H6  UNL     1      -0.587  41.638  30.320  1.00  0.00     0.210 HD
ENDBRANCH  24  33
BRANCH  25  35
HETATM   35  O5  UNL     1      -3.900  40.944  29.311  1.00  0.00    -0.390 OA
ATOM     36  H5  UNL     1      -3.295  41.287  28.664  1.00  0.00     0.210 HD
ENDBRANCH  25  35
BRANCH  26  37
HETATM   37  O4  UNL     1      -4.726  38.302  30.828  1.00  0.00    -0.390 OA
ATOM     38  H4  UNL     1      -5.042  37.409  30.901  1.00  0.00     0.210 HD
ENDBRANCH  26  37
ENDBRANCH  19  21
ENDBRANCH   1  18
BRANCH   5  39
HETATM   39  C17 UNL     1      -0.664  32.111  25.240  1.00  0.00     0.003 C 
HETATM   40  C18 UNL     1       0.555  32.964  25.020  1.00  0.00     0.011 C 
HETATM   41  C19 UNL     1       1.818  32.156  24.924  1.00  0.00     0.054 C 
HETATM   42  C20 UNL     1       1.810  30.810  24.391  1.00  0.00     0.005 C 
HETATM   43  N1  UNL     1       0.816  30.755  23.310  1.00  0.00    -0.303 N 
HETATM   44  C27 UNL     1       1.796  29.505  25.029  1.00  0.00     0.004 C 
HETATM   45  C21 UNL     1      -0.312  31.490  22.919  1.00  0.00     0.077 C 
HETATM   46  C24 UNL     1       1.189  29.630  22.466  1.00  0.00     0.227 C 
HETATM   47  C22 UNL     1      -1.326  31.943  23.948  1.00  0.00     0.025 C 
HETATM   48  C23 UNL     1      -2.486  31.020  23.829  1.00  0.00     0.016 C 
HETATM   49  O3  UNL     1       0.384  29.325  21.556  1.00  0.00    -0.273 OA
HETATM   50  C25 UNL     1       2.473  28.944  22.744  1.00  0.00     0.105 C 
HETATM   51  C26 UNL     1       2.867  28.723  24.211  1.00  0.00     0.025 C 
HETATM   52  C28 UNL     1       0.690  28.492  24.823  1.00  0.00     0.022 C 
ENDBRANCH   5  39
TORSDOF 12
ENDMDL
MODEL 3
REMARK VINA RESULT: -8.292384670      3.824      8.466
REMARK  12 active torsions:
REMARK  status: ('A' for Active; 'I' for Inactive)
REMARK    1  A    between atoms: C2_2  and  C3_3 
REMARK    2  A    between atoms: C3_3  and  C4_4 
REMARK    3  A    between atoms: C4_4  and  C5_5 
REMARK    4  A    between atoms: C5_5  and  O1_6 
REMARK    5  A    between atoms: O1_6  and  C6_7 
REMARK    6  A    between atoms: C7_9  and  C8_10 
REMARK    7  A    between atoms: C10_12  and  C11_13 
REMARK    8  A    between atoms: C15_17  and  C17_19 
REMARK    9  A    between atoms: C27_31  and  C29_33 
REMARK   10  A    between atoms: C40_44  and  O4_45 
REMARK   11  A    between atoms: C41_47  and  O5_48 
REMARK   12  A    between atoms: C42_50  and  O6_51 
ROOT
HETATM    1  C11 UNL     1      -2.367  30.109  23.219  1.00  0.00    -0.031 C 
HETATM    2  C12 UNL     1      -3.110  29.317  24.338  1.00  0.00     0.016 C 
HETATM    3  C13 UNL     1      -2.862  29.543  21.932  1.00  0.00     0.011 C 
HETATM    4  C14 UNL     1      -3.477  30.746  21.216  1.00  0.00     0.011 C 
HETATM    5  C15 UNL     1      -4.103  31.478  22.405  1.00  0.00    -0.030 C 
HETATM    6  C16 UNL     1      -5.253  30.635  22.820  1.00  0.00     0.016 C 
HETATM    7  C29 UNL     1      -2.320  35.264  24.198  1.00  0.00    -0.019 C 
HETATM    8  C30 UNL     1      -2.967  35.697  25.510  1.00  0.00     0.018 C 
HETATM    9  C31 UNL     1      -0.866  35.574  24.372  1.00  0.00    -0.004 C 
HETATM   10  C32 UNL     1      -0.467  36.769  25.163  1.00  0.00     0.011 C 
HETATM   11  C33 UNL     1      -0.952  34.280  25.234  1.00  0.00    -0.004 C 
HETATM   12  C34 UNL     1       0.325  33.498  25.288  1.00  0.00     0.011 C 
HETATM   13  C35 UNL     1      -1.904  33.896  24.075  1.00  0.00    -0.019 A 
HETATM   14  C36 UNL     1      -1.248  33.143  23.069  1.00  0.00     0.022 A 
HETATM   15  C37 UNL     1      -2.428  32.725  23.743  1.00  0.00    -0.021 A 
HETATM   16  C38 UNL     1      -2.959  31.899  24.744  1.00  0.00     0.023 A 
HETATM   17  C39 UNL     1      -2.906  31.516  23.352  1.00  0.00    -0.016 A 
ENDROOT
BRANCH   1  18
HETATM   18  C10 UNL     1      -0.954  29.832  23.514  1.00  0.00     0.002 A 
HETATM   19  C8  UNL     1       0.245  30.090  22.716  1.00  0.00     0.022 A 
HETATM   20  C9  UNL     1      -0.359  28.698  22.688  1.00  0.00     0.013 A 
BRANCH  19  21
HETATM   21  C7  UNL     1       1.617  29.966  23.383  1.00  0.00     0.160 C 
HETATM   22  O2  UNL     1       1.352  29.501  24.731  1.00  0.00    -0.350 OA
HETATM   23  C6  UNL     1       2.402  30.033  25.489  1.00  0.00     0.291 C 
HETATM   24  C42 UNL     1       3.724  29.888  24.818  1.00  0.00     0.204 C 
HETATM   25  C41 UNL     1       3.775  28.924  23.677  1.00  0.00     0.183 C 
HETATM   26  C40 UNL     1       2.490  28.880  22.855  1.00  0.00     0.178 C 
BRANCH  23  27
HETATM   27  O1  UNL     1       2.442  29.406  26.719  1.00  0.00    -0.359 OA
BRANCH  27  28
HETATM   28  C5  UNL     1       1.260  29.347  27.399  1.00  0.00     0.171 C 
BRANCH  28  29
HETATM   29  C4  UNL     1       0.683  30.646  27.839  1.00  0.00     0.026 C 
BRANCH  29  30
HETATM   30  C3  UNL     1      -0.782  30.658  27.368  1.00  0.00     0.002 C 
BRANCH  30  31
HETATM   31  C2  UNL     1      -1.448  31.821  28.066  1.00  0.00    -0.004 C 
HETATM   32  C1  UNL     1      -0.450  32.671  28.807  1.00  0.00     0.005 C 
ENDBRANCH  30  31
ENDBRANCH  29  30
ENDBRANCH  28  29
ENDBRANCH  27  28
ENDBRANCH  23  27
BRANCH  24  33
HETATM   33  O6  UNL     1       4.725  29.604  25.769  1.00  0.00    -0.388 OA
ATOM     34  H6  UNL     1       5.500  29.266  25.337  1.00  0.00     0.210 HD
ENDBRANCH  24  33
BRANCH  25  35
HETATM   35  O5  UNL     1       4.146  27.664  24.139  1.00  0.00    -0.390 OA
ATOM     36  H5  UNL     1       4.218  27.636  25.086  1.00  0.00     0.210 HD
ENDBRANCH  25  35
BRANCH  26  37
HETATM   37  O4  UNL     1       2.846  28.909  21.546  1.00  0.00    -0.390 OA
ATOM     38  H4  UNL     1       3.688  28.548  21.295  1.00  0.00     0.210 HD
ENDBRANCH  26  37
ENDBRANCH  19  21
ENDBRANCH   1  18
BRANCH   5  39
HETATM   39  C17 UNL     1      -4.602  32.810  22.029  1.00  0.00     0.003 C 
HETATM   40  C18 UNL     1      -3.688  33.380  20.981  1.00  0.00     0.011 C 
HETATM   41  C19 UNL     1      -4.407  33.713  19.704  1.00  0.00     0.054 C 
HETATM   42  C20 UNL     1      -5.795  34.122  19.709  1.00  0.00     0.005 C 
HETATM   43  N1  UNL     1      -6.029  34.926  20.917  1.00  0.00    -0.303 N 
HETATM   44  C27 UNL     1      -7.030  33.399  19.451  1.00  0.00     0.004 C 
HETATM   45  C21 UNL     1      -5.420  35.092  22.169  1.00  0.00     0.077 C 
HETATM   46  C24 UNL     1      -7.201  35.745  20.645  1.00  0.00     0.227 C 
HETATM   47  C22 UNL     1      -4.944  33.888  22.954  1.00  0.00     0.025 C 
HETATM   48  C23 UNL     1      -5.956  33.654  24.018  1.00  0.00     0.016 C 
HETATM   49  O3  UNL     1      -7.652  36.409  21.607  1.00  0.00    -0.273 OA
HETATM   50  C25 UNL     1      -7.760  35.730  19.273  1.00  0.00     0.105 C 
HETATM   51  C26 UNL     1      -7.808  34.387  18.531  1.00  0.00     0.025 C 
HETATM   52  C28 UNL     1      -8.136  33.256  20.475  1.00  0.00     0.022 C 
ENDBRANCH   5  39
TORSDOF 12
ENDMDL
MODEL 4
REMARK VINA RESULT: -8.278482554      3.790      8.314
REMARK  12 active torsions:
REMARK  status: ('A' for Active; 'I' for Inactive)
REMARK    1  A    between atoms: C2_2  and  C3_3 
REMARK    2  A    between atoms: C3_3  and  C4_4 
REMARK    3  A    between atoms: C4_4  and  C5_5 
REMARK    4  A    between atoms: C5_5  and  O1_6 
REMARK    5  A    between atoms: O1_6  and  C6_7 
REMARK    6  A    between atoms: C7_9  and  C8_10 
REMARK    7  A    between atoms: C10_12  and  C11_13 
REMARK    8  A    between atoms: C15_17  and  C17_19 
REMARK    9  A    between atoms: C27_31  and  C29_33 
REMARK   10  A    between atoms: C40_44  and  O4_45 
REMARK   11  A    between atoms: C41_47  and  O5_48 
REMARK   12  A    between atoms: C42_50  and  O6_51 
ROOT
HETATM    1  C11 UNL     1      -2.356  30.122  23.289  1.00  0.00    -0.031 C 
HETATM    2  C12 UNL     1      -3.103  29.362  24.428  1.00  0.00     0.016 C 
HETATM    3  C13 UNL     1      -2.860  29.531  22.016  1.00  0.00     0.011 C 
HETATM    4  C14 UNL     1      -3.467  30.723  21.275  1.00  0.00     0.011 C 
HETATM    5  C15 UNL     1      -4.083  31.487  22.448  1.00  0.00    -0.030 C 
HETATM    6  C16 UNL     1      -5.239  30.664  22.885  1.00  0.00     0.016 C 
HETATM    7  C29 UNL     1      -2.263  35.297  24.149  1.00  0.00    -0.019 C 
HETATM    8  C30 UNL     1      -2.902  35.766  25.452  1.00  0.00     0.018 C 
HETATM    9  C31 UNL     1      -0.806  35.599  24.312  1.00  0.00    -0.004 C 
HETATM   10  C32 UNL     1      -0.394  36.809  25.074  1.00  0.00     0.011 C 
HETATM   11  C33 UNL     1      -0.900  34.326  25.204  1.00  0.00    -0.004 C 
HETATM   12  C34 UNL     1       0.371  33.535  25.272  1.00  0.00     0.011 C 
HETATM   13  C35 UNL     1      -1.859  33.924  24.056  1.00  0.00    -0.019 A 
HETATM   14  C36 UNL     1      -1.212  33.142  23.067  1.00  0.00     0.022 A 
HETATM   15  C37 UNL     1      -2.393  32.750  23.752  1.00  0.00    -0.021 A 
HETATM   16  C38 UNL     1      -2.929  31.952  24.774  1.00  0.00     0.023 A 
HETATM   17  C39 UNL     1      -2.882  31.537  23.391  1.00  0.00    -0.016 A 
ENDROOT
BRANCH   1  18
HETATM   18  C10 UNL     1      -0.945  29.840  23.586  1.00  0.00     0.002 A 
HETATM   19  C8  UNL     1       0.256  30.078  22.783  1.00  0.00     0.022 A 
HETATM   20  C9  UNL     1      -0.358  28.690  22.777  1.00  0.00     0.013 A 
BRANCH  19  21
HETATM   21  C7  UNL     1       1.627  29.954  23.450  1.00  0.00     0.160 C 
HETATM   22  O2  UNL     1       1.363  29.468  24.792  1.00  0.00    -0.350 OA
HETATM   23  C6  UNL     1       2.409  29.996  25.558  1.00  0.00     0.291 C 
HETATM   24  C42 UNL     1       3.732  29.872  24.887  1.00  0.00     0.204 C 
HETATM   25  C41 UNL     1       3.792  28.924  23.733  1.00  0.00     0.183 C 
HETATM   26  C40 UNL     1       2.509  28.883  22.908  1.00  0.00     0.178 C 
BRANCH  23  27
HETATM   27  O1  UNL     1       2.452  29.352  26.780  1.00  0.00    -0.359 OA
BRANCH  27  28
HETATM   28  C5  UNL     1       1.400  29.590  27.617  1.00  0.00     0.171 C 
BRANCH  28  29
HETATM   29  C4  UNL     1       0.964  31.006  27.748  1.00  0.00     0.026 C 
BRANCH  29  30
HETATM   30  C3  UNL     1       1.786  31.615  28.898  1.00  0.00     0.002 C 
BRANCH  30  31
HETATM   31  C2  UNL     1       2.720  32.623  28.269  1.00  0.00    -0.004 C 
HETATM   32  C1  UNL     1       4.148  32.145  28.285  1.00  0.00     0.005 C 
ENDBRANCH  30  31
ENDBRANCH  29  30
ENDBRANCH  28  29
ENDBRANCH  27  28
ENDBRANCH  23  27
BRANCH  24  33
HETATM   33  O6  UNL     1       4.734  29.581  25.835  1.00  0.00    -0.388 OA
ATOM     34  H6  UNL     1       5.581  29.867  25.515  1.00  0.00     0.210 HD
ENDBRANCH  24  33
BRANCH  25  35
HETATM   35  O5  UNL     1       4.172  27.661  24.177  1.00  0.00    -0.390 OA
ATOM     36  H5  UNL     1       3.482  27.231  24.669  1.00  0.00     0.210 HD
ENDBRANCH  25  35
BRANCH  26  37
HETATM   37  O4  UNL     1       2.867  28.934  21.600  1.00  0.00    -0.390 OA
ATOM     38  H4  UNL     1       3.776  29.098  21.383  1.00  0.00     0.210 HD
ENDBRANCH  26  37
ENDBRANCH  19  21
ENDBRANCH   1  18
BRANCH   5  39
HETATM   39  C17 UNL     1      -4.572  32.814  22.043  1.00  0.00     0.003 C 
HETATM   40  C18 UNL     1      -3.654  33.354  20.982  1.00  0.00     0.011 C 
HETATM   41  C19 UNL     1      -4.371  33.664  19.698  1.00  0.00     0.054 C 
HETATM   42  C20 UNL     1      -5.756  34.085  19.695  1.00  0.00     0.005 C 
HETATM   43  N1  UNL     1      -5.982  34.917  20.885  1.00  0.00    -0.303 N 
HETATM   44  C27 UNL     1      -6.996  33.366  19.454  1.00  0.00     0.004 C 
HETATM   45  C21 UNL     1      -5.372  35.105  22.133  1.00  0.00     0.077 C 
HETATM   46  C24 UNL     1      -7.148  35.738  20.595  1.00  0.00     0.227 C 
HETATM   47  C22 UNL     1      -4.904  33.915  22.944  1.00  0.00     0.025 C 
HETATM   48  C23 UNL     1      -5.918  33.713  24.013  1.00  0.00     0.016 C 
HETATM   49  O3  UNL     1      -7.593  36.427  21.543  1.00  0.00    -0.273 OA
HETATM   50  C25 UNL     1      -7.708  35.697  19.224  1.00  0.00     0.105 C 
HETATM   51  C26 UNL     1      -7.767  34.339  18.512  1.00  0.00     0.025 C 
HETATM   52  C28 UNL     1      -8.103  33.254  20.481  1.00  0.00     0.022 C 
ENDBRANCH   5  39
TORSDOF 12
ENDMDL
MODEL 5
REMARK VINA RESULT: -8.259464148      3.989      6.535
REMARK  12 active torsions:
REMARK  status: ('A' for Active; 'I' for Inactive)
REMARK    1  A    between atoms: C2_2  and  C3_3 
REMARK    2  A    between atoms: C3_3  and  C4_4 
REMARK    3  A    between atoms: C4_4  and  C5_5 
REMARK    4  A    between atoms: C5_5  and  O1_6 
REMARK    5  A    between atoms: O1_6  and  C6_7 
REMARK    6  A    between atoms: C7_9  and  C8_10 
REMARK    7  A    between atoms: C10_12  and  C11_13 
REMARK    8  A    between atoms: C15_17  and  C17_19 
REMARK    9  A    between atoms: C27_31  and  C29_33 
REMARK   10  A    between atoms: C40_44  and  O4_45 
REMARK   11  A    between atoms: C41_47  and  O5_48 
REMARK   12  A    between atoms: C42_50  and  O6_51 
ROOT
HETATM    1  C11 UNL     1       0.938  32.398  26.901  1.00  0.00    -0.031 C 
HETATM    2  C12 UNL     1      -0.259  32.070  27.845  1.00  0.00     0.016 C 
HETATM    3  C13 UNL     1       2.003  32.957  27.783  1.00  0.00     0.011 C 
HETATM    4  C14 UNL     1       3.184  32.007  27.576  1.00  0.00     0.011 C 
HETATM    5  C15 UNL     1       2.443  30.674  27.461  1.00  0.00    -0.030 C 
HETATM    6  C16 UNL     1       1.940  30.388  28.829  1.00  0.00     0.016 C 
HETATM    7  C29 UNL     1       1.849  28.506  23.502  1.00  0.00    -0.019 C 
HETATM    8  C30 UNL     1       0.892  27.320  23.578  1.00  0.00     0.018 C 
HETATM    9  C31 UNL     1       1.572  29.131  22.171  1.00  0.00    -0.004 C 
HETATM   10  C32 UNL     1       1.203  28.262  21.021  1.00  0.00     0.011 C 
HETATM   11  C33 UNL     1       0.333  29.654  22.956  1.00  0.00    -0.004 C 
HETATM   12  C34 UNL     1      -0.191  30.967  22.463  1.00  0.00     0.011 C 
HETATM   13  C35 UNL     1       1.415  29.755  24.060  1.00  0.00    -0.019 A 
HETATM   14  C36 UNL     1       1.974  31.054  24.145  1.00  0.00     0.022 A 
HETATM   15  C37 UNL     1       1.389  30.360  25.238  1.00  0.00    -0.021 A 
HETATM   16  C38 UNL     1       0.256  30.230  26.055  1.00  0.00     0.023 A 
HETATM   17  C39 UNL     1       1.396  31.042  26.411  1.00  0.00    -0.016 A 
ENDROOT
BRANCH   1  18
HETATM   18  C10 UNL     1       0.349  33.359  25.958  1.00  0.00     0.002 A 
HETATM   19  C8  UNL     1      -0.215  34.689  26.194  1.00  0.00     0.022 A 
HETATM   20  C9  UNL     1      -1.162  33.507  26.084  1.00  0.00     0.013 A 
BRANCH  19  21
HETATM   21  C7  UNL     1      -0.497  35.596  24.993  1.00  0.00     0.160 C 
HETATM   22  O2  UNL     1      -1.930  35.523  24.781  1.00  0.00    -0.350 OA
HETATM   23  C6  UNL     1      -2.082  35.727  23.404  1.00  0.00     0.291 C 
HETATM   24  C42 UNL     1      -1.233  36.838  22.892  1.00  0.00     0.204 C 
HETATM   25  C41 UNL     1      -0.663  37.754  23.925  1.00  0.00     0.183 C 
HETATM   26  C40 UNL     1      -0.299  37.053  25.231  1.00  0.00     0.178 C 
BRANCH  23  27
HETATM   27  O1  UNL     1      -3.408  35.997  23.125  1.00  0.00    -0.359 OA
BRANCH  27  28
HETATM   28  C5  UNL     1      -4.105  34.996  22.512  1.00  0.00     0.171 C 
BRANCH  28  29
HETATM   29  C4  UNL     1      -3.300  33.895  21.917  1.00  0.00     0.026 C 
BRANCH  29  30
HETATM   30  C3  UNL     1      -3.826  33.691  20.485  1.00  0.00     0.002 C 
BRANCH  30  31
HETATM   31  C2  UNL     1      -3.580  34.987  19.750  1.00  0.00    -0.004 C 
HETATM   32  C1  UNL     1      -2.288  34.953  18.977  1.00  0.00     0.005 C 
ENDBRANCH  30  31
ENDBRANCH  29  30
ENDBRANCH  28  29
ENDBRANCH  27  28
ENDBRANCH  23  27
BRANCH  24  33
HETATM   33  O6  UNL     1      -1.924  37.560  21.898  1.00  0.00    -0.388 OA
ATOM     34  H6  UNL     1      -1.394  38.287  21.594  1.00  0.00     0.210 HD
ENDBRANCH  24  33
BRANCH  25  35
HETATM   35  O5  UNL     1      -1.522  38.831  24.129  1.00  0.00    -0.390 OA
ATOM     36  H5  UNL     1      -2.215  38.865  23.479  1.00  0.00     0.210 HD
ENDBRANCH  25  35
BRANCH  26  37
HETATM   37  O4  UNL     1       0.930  37.492  25.597  1.00  0.00    -0.390 OA
ATOM     38  H4  UNL     1       1.005  38.060  26.355  1.00  0.00     0.210 HD
ENDBRANCH  26  37
ENDBRANCH  19  21
ENDBRANCH   1  18
BRANCH   5  39
HETATM   39  C17 UNL     1       3.337  29.582  27.047  1.00  0.00     0.003 C 
HETATM   40  C18 UNL     1       4.335  30.134  26.066  1.00  0.00     0.011 C 
HETATM   41  C19 UNL     1       5.756  29.951  26.521  1.00  0.00     0.054 C 
HETATM   42  C20 UNL     1       6.142  28.823  27.342  1.00  0.00     0.005 C 
HETATM   43  N1  UNL     1       5.348  27.660  26.921  1.00  0.00    -0.303 N 
HETATM   44  C27 UNL     1       6.352  28.680  28.773  1.00  0.00     0.004 C 
HETATM   45  C21 UNL     1       4.141  27.437  26.242  1.00  0.00     0.077 C 
HETATM   46  C24 UNL     1       6.091  26.482  27.341  1.00  0.00     0.227 C 
HETATM   47  C22 UNL     1       2.918  28.270  26.561  1.00  0.00     0.025 C 
HETATM   48  C23 UNL     1       2.039  27.417  27.405  1.00  0.00     0.016 C 
HETATM   49  O3  UNL     1       5.514  25.378  27.196  1.00  0.00    -0.273 OA
HETATM   50  C25 UNL     1       7.451  26.675  27.897  1.00  0.00     0.105 C 
HETATM   51  C26 UNL     1       7.681  27.868  28.835  1.00  0.00     0.025 C 
HETATM   52  C28 UNL     1       5.559  27.724  29.637  1.00  0.00     0.022 C 
ENDBRANCH   5  39
TORSDOF 12
ENDMDL
