MODEL 1
REMARK VINA RESULT: -7.695895527      0.000      0.000
REMARK  9 active torsions:
REMARK  status: ('A' for Active; 'I' for Inactive)
REMARK    1  A    between atoms: N1_2  and  S1_4 
REMARK    2  A    between atoms: S1_4  and  O2_7 
REMARK    3  A    between atoms: O2_7  and  C3_8 
REMARK    4  A    between atoms: C16_21  and  C17_22 
REMARK    5  A    between atoms: C23_29  and  C24_30 
REMARK       I    between atoms: C24_30  and  N2_32 
REMARK    6  A    between atoms: N2_32  and  C25_34 
REMARK    7  A    between atoms: C25_34  and  C27_36 
REMARK    8  A    between atoms: C27_36  and  N3_37 
REMARK    9  A    between atoms: C36_47  and  O5_48 
ROOT
HETATM    1  C3  UNL     1      10.743  75.809   6.554  1.00  0.00     0.152 C 
HETATM    2  C4  UNL     1      10.753  74.311   6.478  1.00  0.00     0.044 C 
HETATM    3  C5  UNL     1      11.194  73.650   5.182  1.00  0.00    -0.030 C 
HETATM    4  C6  UNL     1      12.598  73.187   5.418  1.00  0.00     0.016 C 
HETATM    5  C7  UNL     1      11.196  74.762   4.193  1.00  0.00    -0.001 C 
HETATM    6  C8  UNL     1      11.639  74.233   2.893  1.00  0.00     0.006 C 
HETATM    7  C9  UNL     1      11.421  72.756   2.733  1.00  0.00     0.011 C 
HETATM    8  C10 UNL     1      10.106  72.244   3.359  1.00  0.00    -0.028 C 
HETATM    9  C11 UNL     1       9.030  73.150   2.735  1.00  0.00     0.016 C 
HETATM   10  C12 UNL     1       9.831  70.968   2.689  1.00  0.00    -0.032 C 
HETATM   11  C13 UNL     1       8.478  70.316   2.914  1.00  0.00     0.016 C 
HETATM   12  C14 UNL     1       9.687  71.305   1.187  1.00  0.00     0.011 C 
HETATM   13  C15 UNL     1      10.514  70.421   0.395  1.00  0.00     0.006 C 
HETATM   14  C16 UNL     1      11.624  69.953   1.319  1.00  0.00    -0.006 C 
HETATM   15  C20 UNL     1      10.813  69.866   2.579  1.00  0.00     0.001 C 
HETATM   16  C21 UNL     1      11.546  69.413   3.786  1.00  0.00     0.041 C 
HETATM   17  C22 UNL     1      10.775  68.670   4.809  1.00  0.00     0.168 A 
HETATM   18  O3  UNL     1      11.607  68.746   6.068  1.00  0.00    -0.359 OA
HETATM   19  C23 UNL     1      10.277  69.010   6.015  1.00  0.00     0.167 A 
HETATM   20  C29 UNL     1       9.728  70.413   6.332  1.00  0.00     0.052 C 
HETATM   21  C30 UNL     1      10.625  71.508   5.842  1.00  0.00     0.014 C 
HETATM   22  C31 UNL     1      10.236  72.470   4.819  1.00  0.00    -0.028 C 
HETATM   23  C32 UNL     1       8.810  72.824   5.310  1.00  0.00     0.016 C 
HETATM   24  C33 UNL     1      11.852  76.012   4.531  1.00  0.00     0.003 C 
HETATM   25  C34 UNL     1      13.124  76.515   4.039  1.00  0.00     0.008 C 
HETATM   26  C35 UNL     1      13.133  77.911   4.705  1.00  0.00     0.033 C 
HETATM   27  C36 UNL     1      11.960  77.916   5.718  1.00  0.00     0.129 C 
HETATM   28  C37 UNL     1      11.932  76.421   5.975  1.00  0.00     0.013 C 
HETATM   29  C38 UNL     1      13.192  76.252   6.740  1.00  0.00     0.021 C 
ENDROOT
BRANCH  19  30
HETATM   30  C24 UNL     1       9.455  67.999   6.763  1.00  0.00     0.255 C 
HETATM   31  O4  UNL     1       9.227  66.863   6.285  1.00  0.00    -0.270 OA
HETATM   32  N2  UNL     1       8.918  68.305   8.029  1.00  0.00    -0.353 N 
ATOM     33  H2  UNL     1       9.103  69.229   8.418  1.00  0.00     0.163 HD
BRANCH  32  34
HETATM   34  C25 UNL     1       8.117  67.386   8.811  1.00  0.00     0.097 C 
HETATM   35  C26 UNL     1       6.927  67.994   9.462  1.00  0.00     0.034 C 
BRANCH  34  36
HETATM   36  C27 UNL     1       8.995  66.610   9.747  1.00  0.00     0.138 C 
BRANCH  36  37
HETATM   37  N3  UNL     1      10.124  67.287  10.268  1.00  0.00    -0.423 N 
HETATM   38  C28 UNL     1       9.958  68.019  11.474  1.00  0.00     0.139 C 
ATOM     39  H3  UNL     1      11.026  67.250   9.793  1.00  0.00     0.152 HD
ENDBRANCH  36  37
ENDBRANCH  34  36
ENDBRANCH  32  34
ENDBRANCH  19  30
BRANCH  14  40
HETATM   40  C17 UNL     1      12.011  68.586   0.711  1.00  0.00    -0.018 C 
HETATM   41  C18 UNL     1      12.448  68.874  -0.767  1.00  0.00     0.010 C 
HETATM   42  C19 UNL     1      13.287  68.013   1.286  1.00  0.00     0.010 C 
ENDBRANCH  14  40
BRANCH   1  43
HETATM   43  O2  UNL     1       9.601  76.437   6.127  1.00  0.00    -0.285 OA
BRANCH  43  44
HETATM   44  S1  UNL     1       8.634  77.050   7.338  1.00  0.00     0.136 S 
HETATM   45  C2  UNL     1       9.402  76.855   8.941  1.00  0.00     0.168 C 
HETATM   46  O1  UNL     1       8.314  78.491   7.070  1.00  0.00    -0.222 OA
BRANCH  44  47
HETATM   47  N1  UNL     1       7.288  76.280   7.404  1.00  0.00    -0.336 N 
HETATM   48  C1  UNL     1       7.297  74.984   8.020  1.00  0.00     0.158 C 
ATOM     49  H1  UNL     1       6.429  76.680   7.024  1.00  0.00     0.170 HD
ENDBRANCH  44  47
ENDBRANCH  43  44
ENDBRANCH   1  43
BRANCH  27  50
HETATM   50  O5  UNL     1      10.829  78.435   5.169  1.00  0.00    -0.395 OA
ATOM     51  H5  UNL     1      10.564  79.234   5.609  1.00  0.00     0.210 HD
ENDBRANCH  27  50
TORSDOF 9
ENDMDL
MODEL 2
REMARK VINA RESULT: -7.684717099      0.957      1.144
REMARK  9 active torsions:
REMARK  status: ('A' for Active; 'I' for Inactive)
REMARK    1  A    between atoms: N1_2  and  S1_4 
REMARK    2  A    between atoms: S1_4  and  O2_7 
REMARK    3  A    between atoms: O2_7  and  C3_8 
REMARK    4  A    between atoms: C16_21  and  C17_22 
REMARK    5  A    between atoms: C23_29  and  C24_30 
REMARK       I    between atoms: C24_30  and  N2_32 
REMARK    6  A    between atoms: N2_32  and  C25_34 
REMARK    7  A    between atoms: C25_34  and  C27_36 
REMARK    8  A    between atoms: C27_36  and  N3_37 
REMARK    9  A    between atoms: C36_47  and  O5_48 
ROOT
HETATM    1  C3  UNL     1      10.901  76.340   5.920  1.00  0.00     0.152 C 
HETATM    2  C4  UNL     1      10.821  74.849   6.062  1.00  0.00     0.044 C 
HETATM    3  C5  UNL     1      11.365  73.980   4.940  1.00  0.00    -0.030 C 
HETATM    4  C6  UNL     1      12.698  73.490   5.413  1.00  0.00     0.016 C 
HETATM    5  C7  UNL     1      11.555  74.928   3.810  1.00  0.00    -0.001 C 
HETATM    6  C8  UNL     1      12.109  74.188   2.664  1.00  0.00     0.006 C 
HETATM    7  C9  UNL     1      11.814  72.716   2.692  1.00  0.00     0.011 C 
HETATM    8  C10 UNL     1      10.404  72.369   3.217  1.00  0.00    -0.028 C 
HETATM    9  C11 UNL     1       9.471  73.221   2.340  1.00  0.00     0.016 C 
HETATM   10  C12 UNL     1      10.125  71.021   2.709  1.00  0.00    -0.032 C 
HETATM   11  C13 UNL     1       8.715  70.476   2.856  1.00  0.00     0.016 C 
HETATM   12  C14 UNL     1      10.179  71.134   1.168  1.00  0.00     0.011 C 
HETATM   13  C15 UNL     1      11.032  70.102   0.621  1.00  0.00     0.006 C 
HETATM   14  C16 UNL     1      11.995  69.726   1.733  1.00  0.00    -0.006 C 
HETATM   15  C20 UNL     1      11.038  69.869   2.882  1.00  0.00     0.001 C 
HETATM   16  C21 UNL     1      11.596  69.568   4.223  1.00  0.00     0.041 C 
HETATM   17  C22 UNL     1      10.664  69.026   5.238  1.00  0.00     0.168 A 
HETATM   18  O3  UNL     1      11.348  69.251   6.567  1.00  0.00    -0.359 OA
HETATM   19  C23 UNL     1      10.053  69.568   6.311  1.00  0.00     0.167 A 
HETATM   20  C29 UNL     1       9.565  71.027   6.352  1.00  0.00     0.052 C 
HETATM   21  C30 UNL     1      10.583  71.991   5.825  1.00  0.00     0.014 C 
HETATM   22  C31 UNL     1      10.379  72.806   4.634  1.00  0.00    -0.028 C 
HETATM   23  C32 UNL     1       8.932  73.298   4.888  1.00  0.00     0.016 C 
HETATM   24  C33 UNL     1      12.248  76.182   4.043  1.00  0.00     0.003 C 
HETATM   25  C34 UNL     1      13.599  76.544   3.646  1.00  0.00     0.008 C 
HETATM   26  C35 UNL     1      13.622  78.021   4.100  1.00  0.00     0.033 C 
HETATM   27  C36 UNL     1      12.343  78.236   4.948  1.00  0.00     0.129 C 
HETATM   28  C37 UNL     1      12.187  76.800   5.411  1.00  0.00     0.013 C 
HETATM   29  C38 UNL     1      13.335  76.687   6.344  1.00  0.00     0.021 C 
ENDROOT
BRANCH  19  30
HETATM   30  C24 UNL     1       9.085  68.722   7.089  1.00  0.00     0.255 C 
HETATM   31  O4  UNL     1       8.723  67.596   6.672  1.00  0.00    -0.270 OA
HETATM   32  N2  UNL     1       8.558  69.176   8.314  1.00  0.00    -0.353 N 
ATOM     33  H2  UNL     1       8.852  70.091   8.653  1.00  0.00     0.163 HD
BRANCH  32  34
HETATM   34  C25 UNL     1       7.622  68.420   9.121  1.00  0.00     0.097 C 
HETATM   35  C26 UNL     1       6.786  69.239  10.038  1.00  0.00     0.034 C 
BRANCH  34  36
HETATM   36  C27 UNL     1       8.328  67.281   9.793  1.00  0.00     0.138 C 
BRANCH  36  37
HETATM   37  N3  UNL     1       7.973  65.977   9.373  1.00  0.00    -0.423 N 
HETATM   38  C28 UNL     1       6.716  65.807   8.731  1.00  0.00     0.139 C 
ATOM     39  H3  UNL     1       8.599  65.185   9.525  1.00  0.00     0.152 HD
ENDBRANCH  36  37
ENDBRANCH  34  36
ENDBRANCH  32  34
ENDBRANCH  19  30
BRANCH  14  40
HETATM   40  C17 UNL     1      12.358  68.265   1.381  1.00  0.00    -0.018 C 
HETATM   41  C18 UNL     1      12.848  68.286  -0.109  1.00  0.00     0.010 C 
HETATM   42  C19 UNL     1      13.598  67.769   2.089  1.00  0.00     0.010 C 
ENDBRANCH  14  40
BRANCH   1  43
HETATM   43  O2  UNL     1       9.860  76.950   5.268  1.00  0.00    -0.285 OA
BRANCH  43  44
HETATM   44  S1  UNL     1       8.799  77.780   6.250  1.00  0.00     0.136 S 
HETATM   45  C2  UNL     1       9.349  77.772   7.951  1.00  0.00     0.168 C 
HETATM   46  O1  UNL     1       8.618  79.183   5.753  1.00  0.00    -0.222 OA
BRANCH  44  47
HETATM   47  N1  UNL     1       7.402  77.101   6.241  1.00  0.00    -0.336 N 
HETATM   48  C1  UNL     1       7.238  75.917   7.034  1.00  0.00     0.158 C 
ATOM     49  H1  UNL     1       6.631  77.482   5.692  1.00  0.00     0.170 HD
ENDBRANCH  44  47
ENDBRANCH  43  44
ENDBRANCH   1  43
BRANCH  27  50
HETATM   50  O5  UNL     1      11.320  78.720   4.193  1.00  0.00    -0.395 OA
ATOM     51  H5  UNL     1      11.009  79.554   4.524  1.00  0.00     0.210 HD
ENDBRANCH  27  50
TORSDOF 9
ENDMDL
MODEL 3
REMARK VINA RESULT: -7.594890500      3.710      7.455
REMARK  9 active torsions:
REMARK  status: ('A' for Active; 'I' for Inactive)
REMARK    1  A    between atoms: N1_2  and  S1_4 
REMARK    2  A    between atoms: S1_4  and  O2_7 
REMARK    3  A    between atoms: O2_7  and  C3_8 
REMARK    4  A    between atoms: C16_21  and  C17_22 
REMARK    5  A    between atoms: C23_29  and  C24_30 
REMARK       I    between atoms: C24_30  and  N2_32 
REMARK    6  A    between atoms: N2_32  and  C25_34 
REMARK    7  A    between atoms: C25_34  and  C27_36 
REMARK    8  A    between atoms: C27_36  and  N3_37 
REMARK    9  A    between atoms: C36_47  and  O5_48 
ROOT
HETATM    1  C3  UNL     1      10.999  73.412   9.998  1.00  0.00     0.152 C 
HETATM    2  C4  UNL     1      10.678  73.778   8.579  1.00  0.00     0.044 C 
HETATM    3  C5  UNL     1      10.215  72.683   7.632  1.00  0.00    -0.030 C 
HETATM    4  C6  UNL     1       8.730  72.841   7.521  1.00  0.00     0.016 C 
HETATM    5  C7  UNL     1      10.529  71.423   8.356  1.00  0.00    -0.001 C 
HETATM    6  C8  UNL     1      10.093  70.285   7.530  1.00  0.00     0.006 C 
HETATM    7  C9  UNL     1      10.006  70.598   6.064  1.00  0.00     0.011 C 
HETATM    8  C10 UNL     1      11.127  71.527   5.554  1.00  0.00    -0.028 C 
HETATM    9  C11 UNL     1      12.417  70.826   6.012  1.00  0.00     0.016 C 
HETATM   10  C12 UNL     1      11.180  71.307   4.104  1.00  0.00    -0.032 C 
HETATM   11  C13 UNL     1      12.341  71.905   3.329  1.00  0.00     0.016 C 
HETATM   12  C14 UNL     1      11.514  69.810   3.919  1.00  0.00     0.011 C 
HETATM   13  C15 UNL     1      10.587  69.202   2.990  1.00  0.00     0.006 C 
HETATM   14  C16 UNL     1       9.331  70.053   3.041  1.00  0.00    -0.006 C 
HETATM   15  C20 UNL     1      10.000  71.386   3.214  1.00  0.00     0.001 C 
HETATM   16  C21 UNL     1       9.090  72.555   3.302  1.00  0.00     0.041 C 
HETATM   17  C22 UNL     1       9.601  73.849   2.796  1.00  0.00     0.168 A 
HETATM   18  O3  UNL     1       8.703  74.899   3.411  1.00  0.00    -0.359 OA
HETATM   19  C23 UNL     1      10.059  74.961   3.406  1.00  0.00     0.167 A 
HETATM   20  C29 UNL     1      10.864  74.928   4.718  1.00  0.00     0.052 C 
HETATM   21  C30 UNL     1      10.262  74.016   5.742  1.00  0.00     0.014 C 
HETATM   22  C31 UNL     1      10.928  72.823   6.248  1.00  0.00    -0.028 C 
HETATM   23  C32 UNL     1      12.352  73.388   6.482  1.00  0.00     0.016 C 
HETATM   24  C33 UNL     1      10.127  71.281   9.744  1.00  0.00     0.003 C 
HETATM   25  C34 UNL     1       9.035  70.487  10.282  1.00  0.00     0.008 C 
HETATM   26  C35 UNL     1       9.268  70.707  11.794  1.00  0.00     0.033 C 
HETATM   27  C36 UNL     1      10.327  71.831  11.913  1.00  0.00     0.129 C 
HETATM   28  C37 UNL     1      10.018  72.515  10.595  1.00  0.00     0.013 C 
HETATM   29  C38 UNL     1       8.692  73.108  10.900  1.00  0.00     0.021 C 
ENDROOT
BRANCH  19  30
HETATM   30  C24 UNL     1      10.584  76.082   2.555  1.00  0.00     0.255 C 
HETATM   31  O4  UNL     1      10.974  77.159   3.065  1.00  0.00    -0.270 OA
HETATM   32  N2  UNL     1      10.652  75.949   1.154  1.00  0.00    -0.353 N 
ATOM     33  H2  UNL     1      10.334  75.074   0.739  1.00  0.00     0.163 HD
BRANCH  32  34
HETATM   34  C25 UNL     1      11.145  76.982   0.267  1.00  0.00     0.097 C 
HETATM   35  C26 UNL     1      10.136  77.528  -0.678  1.00  0.00     0.034 C 
BRANCH  34  36
HETATM   36  C27 UNL     1      12.414  76.530  -0.391  1.00  0.00     0.138 C 
BRANCH  36  37
HETATM   37  N3  UNL     1      13.461  76.112   0.467  1.00  0.00    -0.423 N 
HETATM   38  C28 UNL     1      14.200  77.117   1.148  1.00  0.00     0.139 C 
ATOM     39  H3  UNL     1      13.677  75.123   0.591  1.00  0.00     0.152 HD
ENDBRANCH  36  37
ENDBRANCH  34  36
ENDBRANCH  32  34
ENDBRANCH  19  30
BRANCH  14  40
HETATM   40  C17 UNL     1       8.715  69.823   1.642  1.00  0.00    -0.018 C 
HETATM   41  C18 UNL     1       7.325  70.550   1.653  1.00  0.00     0.010 C 
HETATM   42  C19 UNL     1       9.429  70.577   0.542  1.00  0.00     0.010 C 
ENDBRANCH  14  40
BRANCH   1  43
HETATM   43  O2  UNL     1      12.279  72.988  10.248  1.00  0.00    -0.285 OA
BRANCH  43  44
HETATM   44  S1  UNL     1      13.220  74.051  11.121  1.00  0.00     0.136 S 
HETATM   45  C2  UNL     1      12.446  75.660  11.232  1.00  0.00     0.168 C 
HETATM   46  O1  UNL     1      13.503  73.498  12.485  1.00  0.00    -0.222 OA
BRANCH  44  47
HETATM   47  N1  UNL     1      14.587  74.274  10.418  1.00  0.00    -0.336 N 
HETATM   48  C1  UNL     1      14.833  73.546   9.206  1.00  0.00     0.158 C 
ATOM     49  H1  UNL     1      15.283  74.913  10.802  1.00  0.00     0.170 HD
ENDBRANCH  44  47
ENDBRANCH  43  44
ENDBRANCH   1  43
BRANCH  27  50
HETATM   50  O5  UNL     1      11.584  71.321  12.025  1.00  0.00    -0.395 OA
ATOM     51  H5  UNL     1      12.228  71.894  11.625  1.00  0.00     0.210 HD
ENDBRANCH  27  50
TORSDOF 9
ENDMDL
MODEL 4
REMARK VINA RESULT: -7.487781627      3.749      7.224
REMARK  9 active torsions:
REMARK  status: ('A' for Active; 'I' for Inactive)
REMARK    1  A    between atoms: N1_2  and  S1_4 
REMARK    2  A    between atoms: S1_4  and  O2_7 
REMARK    3  A    between atoms: O2_7  and  C3_8 
REMARK    4  A    between atoms: C16_21  and  C17_22 
REMARK    5  A    between atoms: C23_29  and  C24_30 
REMARK       I    between atoms: C24_30  and  N2_32 
REMARK    6  A    between atoms: N2_32  and  C25_34 
REMARK    7  A    between atoms: C25_34  and  C27_36 
REMARK    8  A    between atoms: C27_36  and  N3_37 
REMARK    9  A    between atoms: C36_47  and  O5_48 
ROOT
HETATM    1  C3  UNL     1      10.438  71.065  11.546  1.00  0.00     0.152 C 
HETATM    2  C4  UNL     1      10.798  70.975  10.091  1.00  0.00     0.044 C 
HETATM    3  C5  UNL     1      10.601  72.203   9.216  1.00  0.00    -0.030 C 
HETATM    4  C6  UNL     1      11.963  72.800   9.040  1.00  0.00     0.016 C 
HETATM    5  C7  UNL     1       9.765  73.109  10.048  1.00  0.00    -0.001 C 
HETATM    6  C8  UNL     1       9.533  74.354   9.298  1.00  0.00     0.006 C 
HETATM    7  C9  UNL     1       9.659  74.199   7.810  1.00  0.00     0.011 C 
HETATM    8  C10 UNL     1       9.100  72.866   7.269  1.00  0.00    -0.028 C 
HETATM    9  C11 UNL     1       7.667  72.819   7.827  1.00  0.00     0.016 C 
HETATM   10  C12 UNL     1       8.847  73.104   5.843  1.00  0.00    -0.032 C 
HETATM   11  C13 UNL     1       8.073  72.054   5.066  1.00  0.00     0.016 C 
HETATM   12  C14 UNL     1       7.813  74.253   5.788  1.00  0.00     0.011 C 
HETATM   13  C15 UNL     1       8.260  75.283   4.877  1.00  0.00     0.006 C 
HETATM   14  C16 UNL     1       9.772  75.156   4.816  1.00  0.00    -0.006 C 
HETATM   15  C20 UNL     1       9.851  73.660   4.909  1.00  0.00     0.001 C 
HETATM   16  C21 UNL     1      11.218  73.085   4.873  1.00  0.00     0.041 C 
HETATM   17  C22 UNL     1      11.369  71.734   4.286  1.00  0.00     0.168 A 
HETATM   18  O3  UNL     1      12.704  71.231   4.784  1.00  0.00    -0.359 OA
HETATM   19  C23 UNL     1      11.554  70.511   4.823  1.00  0.00     0.167 A 
HETATM   20  C29 UNL     1      10.928  70.078   6.161  1.00  0.00     0.052 C 
HETATM   21  C30 UNL     1      11.079  71.116   7.232  1.00  0.00     0.014 C 
HETATM   22  C31 UNL     1       9.952  71.801   7.852  1.00  0.00    -0.028 C 
HETATM   23  C32 UNL     1       9.005  70.599   8.093  1.00  0.00     0.016 C 
HETATM   24  C33 UNL     1      10.142  73.359  11.428  1.00  0.00     0.003 C 
HETATM   25  C34 UNL     1      10.743  74.558  11.986  1.00  0.00     0.008 C 
HETATM   26  C35 UNL     1      10.753  74.177  13.484  1.00  0.00     0.033 C 
HETATM   27  C36 UNL     1      10.386  72.673  13.553  1.00  0.00     0.129 C 
HETATM   28  C37 UNL     1      10.897  72.296  12.175  1.00  0.00     0.013 C 
HETATM   29  C38 UNL     1      12.361  72.415  12.385  1.00  0.00     0.021 C 
ENDROOT
BRANCH  19  30
HETATM   30  C24 UNL     1      11.583  69.322   3.907  1.00  0.00     0.255 C 
HETATM   31  O4  UNL     1      11.059  68.232   4.237  1.00  0.00    -0.270 OA
HETATM   32  N2  UNL     1      12.205  69.402   2.645  1.00  0.00    -0.353 N 
ATOM     33  H2  UNL     1      12.631  70.288   2.376  1.00  0.00     0.163 HD
BRANCH  32  34
HETATM   34  C25 UNL     1      12.274  68.301   1.706  1.00  0.00     0.097 C 
HETATM   35  C26 UNL     1      13.546  67.531   1.740  1.00  0.00     0.034 C 
BRANCH  34  36
HETATM   36  C27 UNL     1      11.881  68.769   0.337  1.00  0.00     0.138 C 
BRANCH  36  37
HETATM   37  N3  UNL     1      12.741  68.409  -0.729  1.00  0.00    -0.423 N 
HETATM   38  C28 UNL     1      12.558  69.063  -1.977  1.00  0.00     0.139 C 
ATOM     39  H3  UNL     1      13.468  67.704  -0.604  1.00  0.00     0.152 HD
ENDBRANCH  36  37
ENDBRANCH  34  36
ENDBRANCH  32  34
ENDBRANCH  19  30
BRANCH  14  40
HETATM   40  C17 UNL     1      10.099  75.729   3.418  1.00  0.00    -0.018 C 
HETATM   41  C18 UNL     1       9.204  74.937   2.403  1.00  0.00     0.010 C 
HETATM   42  C19 UNL     1       9.593  77.139   3.215  1.00  0.00     0.010 C 
ENDBRANCH  14  40
BRANCH   1  43
HETATM   43  O2  UNL     1       9.135  70.793  11.873  1.00  0.00    -0.285 OA
BRANCH  43  44
HETATM   44  S1  UNL     1       8.814  69.199  12.240  1.00  0.00     0.136 S 
HETATM   45  C2  UNL     1       7.679  69.067  13.616  1.00  0.00     0.168 C 
HETATM   46  O1  UNL     1       8.281  68.484  11.035  1.00  0.00    -0.222 OA
BRANCH  44  47
HETATM   47  N1  UNL     1      10.113  68.468  12.677  1.00  0.00    -0.336 N 
HETATM   48  C1  UNL     1      10.080  67.745  13.916  1.00  0.00     0.158 C 
ATOM     49  H1  UNL     1      10.957  68.500  12.105  1.00  0.00     0.170 HD
ENDBRANCH  44  47
ENDBRANCH  43  44
ENDBRANCH   1  43
BRANCH  27  50
HETATM   50  O5  UNL     1       9.052  72.494  13.749  1.00  0.00    -0.395 OA
ATOM     51  H5  UNL     1       8.863  71.627  14.087  1.00  0.00     0.210 HD
ENDBRANCH  27  50
TORSDOF 9
ENDMDL
MODEL 5
REMARK VINA RESULT: -7.481650314      3.613      7.406
REMARK  9 active torsions:
REMARK  status: ('A' for Active; 'I' for Inactive)
REMARK    1  A    between atoms: N1_2  and  S1_4 
REMARK    2  A    between atoms: S1_4  and  O2_7 
REMARK    3  A    between atoms: O2_7  and  C3_8 
REMARK    4  A    between atoms: C16_21  and  C17_22 
REMARK    5  A    between atoms: C23_29  and  C24_30 
REMARK       I    between atoms: C24_30  and  N2_32 
REMARK    6  A    between atoms: N2_32  and  C25_34 
REMARK    7  A    between atoms: C25_34  and  C27_36 
REMARK    8  A    between atoms: C27_36  and  N3_37 
REMARK    9  A    between atoms: C36_47  and  O5_48 
ROOT
HETATM    1  C3  UNL     1      11.039  73.443  10.005  1.00  0.00     0.152 C 
HETATM    2  C4  UNL     1      10.745  73.805   8.579  1.00  0.00     0.044 C 
HETATM    3  C5  UNL     1      10.252  72.718   7.638  1.00  0.00    -0.030 C 
HETATM    4  C6  UNL     1       8.775  72.927   7.511  1.00  0.00     0.016 C 
HETATM    5  C7  UNL     1      10.514  71.455   8.379  1.00  0.00    -0.001 C 
HETATM    6  C8  UNL     1      10.045  70.325   7.559  1.00  0.00     0.006 C 
HETATM    7  C9  UNL     1       9.984  70.625   6.090  1.00  0.00     0.011 C 
HETATM    8  C10 UNL     1      11.142  71.509   5.581  1.00  0.00    -0.028 C 
HETATM    9  C11 UNL     1      12.402  70.767   6.059  1.00  0.00     0.016 C 
HETATM   10  C12 UNL     1      11.201  71.273   4.134  1.00  0.00    -0.032 C 
HETATM   11  C13 UNL     1      12.390  71.821   3.365  1.00  0.00     0.016 C 
HETATM   12  C14 UNL     1      11.483  69.762   3.967  1.00  0.00     0.011 C 
HETATM   13  C15 UNL     1      10.544  69.178   3.035  1.00  0.00     0.006 C 
HETATM   14  C16 UNL     1       9.319  70.074   3.065  1.00  0.00    -0.006 C 
HETATM   15  C20 UNL     1      10.033  71.384   3.232  1.00  0.00     0.001 C 
HETATM   16  C21 UNL     1       9.165  72.585   3.299  1.00  0.00     0.041 C 
HETATM   17  C22 UNL     1       9.726  73.856   2.786  1.00  0.00     0.168 A 
HETATM   18  O3  UNL     1       8.860  74.943   3.381  1.00  0.00    -0.359 OA
HETATM   19  C23 UNL     1      10.218  74.957   3.389  1.00  0.00     0.167 A 
HETATM   20  C29 UNL     1      11.009  74.909   4.709  1.00  0.00     0.052 C 
HETATM   21  C30 UNL     1      10.365  74.029   5.737  1.00  0.00     0.014 C 
HETATM   22  C31 UNL     1      10.983  72.818   6.260  1.00  0.00    -0.028 C 
HETATM   23  C32 UNL     1      12.424  73.334   6.503  1.00  0.00     0.016 C 
HETATM   24  C33 UNL     1      10.094  71.342   9.764  1.00  0.00     0.003 C 
HETATM   25  C34 UNL     1       8.969  70.593  10.298  1.00  0.00     0.008 C 
HETATM   26  C35 UNL     1       9.195  70.819  11.811  1.00  0.00     0.033 C 
HETATM   27  C36 UNL     1      10.293  71.906  11.929  1.00  0.00     0.129 C 
HETATM   28  C37 UNL     1      10.021  72.588  10.601  1.00  0.00     0.013 C 
HETATM   29  C38 UNL     1       8.714  73.231  10.887  1.00  0.00     0.021 C 
ENDROOT
BRANCH  19  30
HETATM   30  C24 UNL     1      10.791  76.049   2.533  1.00  0.00     0.255 C 
HETATM   31  O4  UNL     1      10.074  76.985   2.105  1.00  0.00    -0.270 OA
HETATM   32  N2  UNL     1      12.157  76.049   2.187  1.00  0.00    -0.353 N 
ATOM     33  H2  UNL     1      12.740  75.288   2.534  1.00  0.00     0.163 HD
BRANCH  32  34
HETATM   34  C25 UNL     1      12.783  77.066   1.367  1.00  0.00     0.097 C 
HETATM   35  C26 UNL     1      13.484  76.550   0.161  1.00  0.00     0.034 C 
BRANCH  34  36
HETATM   36  C27 UNL     1      13.622  77.969   2.220  1.00  0.00     0.138 C 
BRANCH  36  37
HETATM   37  N3  UNL     1      14.514  77.341   3.123  1.00  0.00    -0.423 N 
HETATM   38  C28 UNL     1      15.700  78.040   3.475  1.00  0.00     0.139 C 
ATOM     39  H3  UNL     1      14.312  76.418   3.508  1.00  0.00     0.152 HD
ENDBRANCH  36  37
ENDBRANCH  34  36
ENDBRANCH  32  34
ENDBRANCH  19  30
BRANCH  14  40
HETATM   40  C17 UNL     1       8.708  69.852   1.663  1.00  0.00    -0.018 C 
HETATM   41  C18 UNL     1       7.328  70.597   1.665  1.00  0.00     0.010 C 
HETATM   42  C19 UNL     1       9.438  70.596   0.567  1.00  0.00     0.010 C 
ENDBRANCH  14  40
BRANCH   1  43
HETATM   43  O2  UNL     1      12.301  72.976  10.272  1.00  0.00    -0.285 OA
BRANCH  43  44
HETATM   44  S1  UNL     1      13.268  74.010  11.151  1.00  0.00     0.136 S 
HETATM   45  C2  UNL     1      12.514  75.625  11.308  1.00  0.00     0.168 C 
HETATM   46  O1  UNL     1      13.566  73.425  12.499  1.00  0.00    -0.222 OA
BRANCH  44  47
HETATM   47  N1  UNL     1      14.625  74.232  10.430  1.00  0.00    -0.336 N 
HETATM   48  C1  UNL     1      14.854  73.507   9.214  1.00  0.00     0.158 C 
ATOM     49  H1  UNL     1      15.328  74.869  10.807  1.00  0.00     0.170 HD
ENDBRANCH  44  47
ENDBRANCH  43  44
ENDBRANCH   1  43
BRANCH  27  50
HETATM   50  O5  UNL     1      11.529  71.353  12.058  1.00  0.00    -0.395 OA
ATOM     51  H5  UNL     1      11.493  70.528  12.528  1.00  0.00     0.210 HD
ENDBRANCH  27  50
TORSDOF 9
ENDMDL
