MODEL 1
REMARK VINA RESULT: -7.899015468      0.000      0.000
REMARK  11 active torsions:
REMARK  status: ('A' for Active; 'I' for Inactive)
REMARK    1  A    between atoms: C3_3  and  C4_4 
REMARK    2  A    between atoms: C4_4  and  C6_6 
REMARK    3  A    between atoms: C6_6  and  C7_7 
REMARK    4  A    between atoms: C6_6  and  N1_11 
REMARK    5  A    between atoms: C7_7  and  C8_8 
REMARK       I    between atoms: N1_11  and  C10_13 
REMARK    6  A    between atoms: C10_13  and  C11_15 
REMARK    7  A    between atoms: C11_15  and  N2_16 
REMARK    8  A    between atoms: N2_16  and  S1_18 
REMARK    9  A    between atoms: S1_18  and  N3_21 
REMARK   10  A    between atoms: N3_21  and  C12_23 
REMARK   11  A    between atoms: C12_23  and  C13_24 
ROOT
HETATM    1  C1  UNL     1      18.335 -17.766  27.405  1.00  0.00     0.112 C 
HETATM    2  C2  UNL     1      18.834 -16.557  26.733  1.00  0.00    -0.111 C 
HETATM    3  C3  UNL     1      19.246 -15.575  26.163  1.00  0.00    -0.101 C 
ENDROOT
BRANCH   3   4
HETATM    4  C4  UNL     1      19.764 -14.393  25.455  1.00  0.00     0.083 C 
HETATM    5  C5  UNL     1      20.709 -13.675  26.359  1.00  0.00     0.025 C 
BRANCH   4   6
HETATM    6  C6  UNL     1      20.396 -14.881  24.178  1.00  0.00     0.101 C 
BRANCH   6   7
HETATM    7  C7  UNL     1      21.908 -14.839  24.257  1.00  0.00     0.046 C 
BRANCH   7   8
HETATM    8  C8  UNL     1      22.434 -16.240  24.425  1.00  0.00     0.080 C 
HETATM    9  C9  UNL     1      21.446 -17.219  23.792  1.00  0.00     0.026 C 
HETATM   10 CL1  UNL     1      22.663 -16.618  26.154  1.00  0.00    -0.125 Cl
ENDBRANCH   7   8
ENDBRANCH   6   7
BRANCH   6  11
HETATM   11  N1  UNL     1      19.918 -14.210  23.023  1.00  0.00    -0.354 N 
HETATM   12  C10 UNL     1      18.688 -14.324  22.362  1.00  0.00     0.236 C 
HETATM   13  O1  UNL     1      17.778 -15.097  22.726  1.00  0.00    -0.272 OA
ATOM     14  H1  UNL     1      20.569 -13.542  22.611  1.00  0.00     0.163 HD
BRANCH  12  15
HETATM   15  C11 UNL     1      18.416 -13.497  21.163  1.00  0.00     0.236 C 
BRANCH  15  16
HETATM   16  N2  UNL     1      17.608 -12.349  21.450  1.00  0.00    -0.294 N 
ATOM     17  H2  UNL     1      17.843 -11.583  22.081  1.00  0.00     0.174 HD
BRANCH  16  18
HETATM   18  S1  UNL     1      16.145 -12.511  20.512  1.00  0.00     0.315 S 
HETATM   19  O2  UNL     1      15.642 -13.904  20.502  1.00  0.00    -0.183 OA
HETATM   20  O3  UNL     1      16.537 -12.155  19.087  1.00  0.00    -0.183 OA
BRANCH  18  21
HETATM   21  N3  UNL     1      15.022 -11.370  21.055  1.00  0.00    -0.299 N 
ATOM     22  H3  UNL     1      15.300 -10.484  21.478  1.00  0.00     0.174 HD
BRANCH  21  23
HETATM   23  C12 UNL     1      13.654 -11.739  20.875  1.00  0.00     0.172 C 
BRANCH  23  24
HETATM   24  C13 UNL     1      12.799 -11.555  22.036  1.00  0.00    -0.040 A 
HETATM   25  C14 UNL     1      11.958 -12.516  22.560  1.00  0.00     0.009 A 
HETATM   26  C15 UNL     1      11.184 -12.258  23.659  1.00  0.00     0.001 A 
HETATM   27  C16 UNL     1      11.201 -11.038  24.302  1.00  0.00     0.000 A 
HETATM   28  C17 UNL     1      12.039 -10.073  23.783  1.00  0.00     0.001 A 
HETATM   29  C18 UNL     1      12.822 -10.324  22.677  1.00  0.00     0.009 A 
ENDBRANCH  23  24
ENDBRANCH  21  23
ENDBRANCH  18  21
ENDBRANCH  16  18
ENDBRANCH  15  16
ENDBRANCH  12  15
ENDBRANCH   6  11
ENDBRANCH   4   6
ENDBRANCH   3   4
TORSDOF 11
ENDMDL
MODEL 2
REMARK VINA RESULT: -7.637736472      2.069      3.088
REMARK  11 active torsions:
REMARK  status: ('A' for Active; 'I' for Inactive)
REMARK    1  A    between atoms: C3_3  and  C4_4 
REMARK    2  A    between atoms: C4_4  and  C6_6 
REMARK    3  A    between atoms: C6_6  and  C7_7 
REMARK    4  A    between atoms: C6_6  and  N1_11 
REMARK    5  A    between atoms: C7_7  and  C8_8 
REMARK       I    between atoms: N1_11  and  C10_13 
REMARK    6  A    between atoms: C10_13  and  C11_15 
REMARK    7  A    between atoms: C11_15  and  N2_16 
REMARK    8  A    between atoms: N2_16  and  S1_18 
REMARK    9  A    between atoms: S1_18  and  N3_21 
REMARK   10  A    between atoms: N3_21  and  C12_23 
REMARK   11  A    between atoms: C12_23  and  C13_24 
ROOT
HETATM    1  C1  UNL     1      20.989 -13.592  27.110  1.00  0.00     0.112 C 
HETATM    2  C2  UNL     1      20.367 -14.000  25.842  1.00  0.00    -0.111 C 
HETATM    3  C3  UNL     1      19.856 -14.316  24.794  1.00  0.00    -0.101 C 
ENDROOT
BRANCH   3   4
HETATM    4  C4  UNL     1      19.221 -14.678  23.516  1.00  0.00     0.083 C 
HETATM    5  C5  UNL     1      20.176 -15.515  22.732  1.00  0.00     0.025 C 
BRANCH   4   6
HETATM    6  C6  UNL     1      17.928 -15.376  23.844  1.00  0.00     0.101 C 
BRANCH   6   7
HETATM    7  C7  UNL     1      17.941 -16.816  23.376  1.00  0.00     0.046 C 
BRANCH   7   8
HETATM    8  C8  UNL     1      17.645 -17.719  24.544  1.00  0.00     0.080 C 
HETATM    9  C9  UNL     1      16.228 -18.270  24.398  1.00  0.00     0.026 C 
HETATM   10 CL1  UNL     1      17.810 -16.827  26.081  1.00  0.00    -0.125 Cl
ENDBRANCH   7   8
ENDBRANCH   6   7
BRANCH   6  11
HETATM   11  N1  UNL     1      16.782 -14.687  23.370  1.00  0.00    -0.354 N 
HETATM   12  C10 UNL     1      16.352 -14.454  22.057  1.00  0.00     0.236 C 
HETATM   13  O1  UNL     1      16.972 -14.848  21.049  1.00  0.00    -0.272 OA
ATOM     14  H1  UNL     1      16.178 -14.301  24.097  1.00  0.00     0.163 HD
BRANCH  12  15
HETATM   15  C11 UNL     1      15.097 -13.704  21.815  1.00  0.00     0.236 C 
BRANCH  15  16
HETATM   16  N2  UNL     1      14.605 -13.862  20.478  1.00  0.00    -0.294 N 
ATOM     17  H2  UNL     1      14.265 -14.725  20.054  1.00  0.00     0.174 HD
BRANCH  16  18
HETATM   18  S1  UNL     1      14.695 -12.294  19.715  1.00  0.00     0.315 S 
HETATM   19  O2  UNL     1      14.956 -12.399  18.261  1.00  0.00    -0.183 OA
HETATM   20  O3  UNL     1      15.893 -11.605  20.349  1.00  0.00    -0.183 OA
BRANCH  18  21
HETATM   21  N3  UNL     1      13.305 -11.416  20.111  1.00  0.00    -0.299 N 
ATOM     22  H3  UNL     1      12.423 -11.530  19.612  1.00  0.00     0.174 HD
BRANCH  21  23
HETATM   23  C12 UNL     1      13.461 -10.503  21.198  1.00  0.00     0.172 C 
BRANCH  23  24
HETATM   24  C13 UNL     1      12.639 -10.775  22.365  1.00  0.00    -0.040 A 
HETATM   25  C14 UNL     1      12.428  -9.894  23.407  1.00  0.00     0.009 A 
HETATM   26  C15 UNL     1      11.637 -10.232  24.472  1.00  0.00     0.001 A 
HETATM   27  C16 UNL     1      11.010 -11.457  24.564  1.00  0.00     0.000 A 
HETATM   28  C17 UNL     1      11.217 -12.342  23.527  1.00  0.00     0.001 A 
HETATM   29  C18 UNL     1      12.012 -12.010  22.450  1.00  0.00     0.009 A 
ENDBRANCH  23  24
ENDBRANCH  21  23
ENDBRANCH  18  21
ENDBRANCH  16  18
ENDBRANCH  15  16
ENDBRANCH  12  15
ENDBRANCH   6  11
ENDBRANCH   4   6
ENDBRANCH   3   4
TORSDOF 11
ENDMDL
MODEL 3
REMARK VINA RESULT: -7.572379190      1.847      2.674
REMARK  11 active torsions:
REMARK  status: ('A' for Active; 'I' for Inactive)
REMARK    1  A    between atoms: C3_3  and  C4_4 
REMARK    2  A    between atoms: C4_4  and  C6_6 
REMARK    3  A    between atoms: C6_6  and  C7_7 
REMARK    4  A    between atoms: C6_6  and  N1_11 
REMARK    5  A    between atoms: C7_7  and  C8_8 
REMARK       I    between atoms: N1_11  and  C10_13 
REMARK    6  A    between atoms: C10_13  and  C11_15 
REMARK    7  A    between atoms: C11_15  and  N2_16 
REMARK    8  A    between atoms: N2_16  and  S1_18 
REMARK    9  A    between atoms: S1_18  and  N3_21 
REMARK   10  A    between atoms: N3_21  and  C12_23 
REMARK   11  A    between atoms: C12_23  and  C13_24 
ROOT
HETATM    1  C1  UNL     1      21.005 -13.754  27.294  1.00  0.00     0.112 C 
HETATM    2  C2  UNL     1      20.376 -13.986  25.985  1.00  0.00    -0.111 C 
HETATM    3  C3  UNL     1      19.874 -14.164  24.901  1.00  0.00    -0.101 C 
ENDROOT
BRANCH   3   4
HETATM    4  C4  UNL     1      19.267 -14.357  23.574  1.00  0.00     0.083 C 
HETATM    5  C5  UNL     1      20.284 -14.975  22.673  1.00  0.00     0.025 C 
BRANCH   4   6
HETATM    6  C6  UNL     1      18.033 -15.197  23.767  1.00  0.00     0.101 C 
BRANCH   6   7
HETATM    7  C7  UNL     1      18.236 -16.605  23.246  1.00  0.00     0.046 C 
BRANCH   7   8
HETATM    8  C8  UNL     1      18.379 -17.548  24.412  1.00  0.00     0.080 C 
HETATM    9  C9  UNL     1      17.661 -16.952  25.621  1.00  0.00     0.026 C 
HETATM   10 CL1  UNL     1      20.103 -17.822  24.785  1.00  0.00    -0.125 Cl
ENDBRANCH   7   8
ENDBRANCH   6   7
BRANCH   6  11
HETATM   11  N1  UNL     1      16.862 -14.607  23.225  1.00  0.00    -0.354 N 
HETATM   12  C10 UNL     1      16.562 -14.253  21.904  1.00  0.00     0.236 C 
HETATM   13  O1  UNL     1      17.351 -14.417  20.951  1.00  0.00    -0.272 OA
ATOM     14  H1  UNL     1      16.125 -14.411  23.903  1.00  0.00     0.163 HD
BRANCH  12  15
HETATM   15  C11 UNL     1      15.247 -13.651  21.582  1.00  0.00     0.236 C 
BRANCH  15  16
HETATM   16  N2  UNL     1      15.361 -12.430  20.841  1.00  0.00    -0.294 N 
ATOM     17  H2  UNL     1      16.103 -11.735  20.925  1.00  0.00     0.174 HD
BRANCH  16  18
HETATM   18  S1  UNL     1      13.986 -12.357  19.768  1.00  0.00     0.315 S 
HETATM   19  O2  UNL     1      13.194 -13.608  19.793  1.00  0.00    -0.183 OA
HETATM   20  O3  UNL     1      14.571 -12.213  18.372  1.00  0.00    -0.183 OA
BRANCH  18  21
HETATM   21  N3  UNL     1      13.096 -10.963  20.118  1.00  0.00    -0.299 N 
ATOM     22  H3  UNL     1      12.369 -10.606  19.498  1.00  0.00     0.174 HD
BRANCH  21  23
HETATM   23  C12 UNL     1      13.440 -10.323  21.348  1.00  0.00     0.172 C 
BRANCH  23  24
HETATM   24  C13 UNL     1      12.620 -10.687  22.491  1.00  0.00    -0.040 A 
HETATM   25  C14 UNL     1      11.979 -11.898  22.653  1.00  0.00     0.009 A 
HETATM   26  C15 UNL     1      11.223 -12.158  23.764  1.00  0.00     0.001 A 
HETATM   27  C16 UNL     1      11.061 -11.236  24.777  1.00  0.00     0.000 A 
HETATM   28  C17 UNL     1      11.699 -10.023  24.621  1.00  0.00     0.001 A 
HETATM   29  C18 UNL     1      12.462  -9.753  23.506  1.00  0.00     0.009 A 
ENDBRANCH  23  24
ENDBRANCH  21  23
ENDBRANCH  18  21
ENDBRANCH  16  18
ENDBRANCH  15  16
ENDBRANCH  12  15
ENDBRANCH   6  11
ENDBRANCH   4   6
ENDBRANCH   3   4
TORSDOF 11
ENDMDL
MODEL 4
REMARK VINA RESULT: -7.519629691      4.255      7.921
REMARK  11 active torsions:
REMARK  status: ('A' for Active; 'I' for Inactive)
REMARK    1  A    between atoms: C3_3  and  C4_4 
REMARK    2  A    between atoms: C4_4  and  C6_6 
REMARK    3  A    between atoms: C6_6  and  C7_7 
REMARK    4  A    between atoms: C6_6  and  N1_11 
REMARK    5  A    between atoms: C7_7  and  C8_8 
REMARK       I    between atoms: N1_11  and  C10_13 
REMARK    6  A    between atoms: C10_13  and  C11_15 
REMARK    7  A    between atoms: C11_15  and  N2_16 
REMARK    8  A    between atoms: N2_16  and  S1_18 
REMARK    9  A    between atoms: S1_18  and  N3_21 
REMARK   10  A    between atoms: N3_21  and  C12_23 
REMARK   11  A    between atoms: C12_23  and  C13_24 
ROOT
HETATM    1  C1  UNL     1      15.843 -12.861  17.387  1.00  0.00     0.112 C 
HETATM    2  C2  UNL     1      15.524 -14.106  18.101  1.00  0.00    -0.111 C 
HETATM    3  C3  UNL     1      15.268 -15.140  18.671  1.00  0.00    -0.101 C 
ENDROOT
BRANCH   3   4
HETATM    4  C4  UNL     1      14.950 -16.410  19.344  1.00  0.00     0.083 C 
HETATM    5  C5  UNL     1      15.835 -16.549  20.538  1.00  0.00     0.025 C 
BRANCH   4   6
HETATM    6  C6  UNL     1      13.482 -16.383  19.675  1.00  0.00     0.101 C 
BRANCH   6   7
HETATM    7  C7  UNL     1      12.648 -16.940  18.540  1.00  0.00     0.046 C 
BRANCH   7   8
HETATM    8  C8  UNL     1      11.706 -17.982  19.084  1.00  0.00     0.080 C 
HETATM    9  C9  UNL     1      10.270 -17.492  18.908  1.00  0.00     0.026 C 
HETATM   10 CL1  UNL     1      12.049 -18.297  20.806  1.00  0.00    -0.125 Cl
ENDBRANCH   7   8
ENDBRANCH   6   7
BRANCH   6  11
HETATM   11  N1  UNL     1      13.021 -15.102  20.077  1.00  0.00    -0.354 N 
HETATM   12  C10 UNL     1      12.828 -14.578  21.361  1.00  0.00     0.236 C 
HETATM   13  O1  UNL     1      13.047 -15.222  22.408  1.00  0.00    -0.272 OA
ATOM     14  H1  UNL     1      12.795 -14.465  19.312  1.00  0.00     0.163 HD
BRANCH  12  15
HETATM   15  C11 UNL     1      12.339 -13.190  21.526  1.00  0.00     0.236 C 
BRANCH  15  16
HETATM   16  N2  UNL     1      13.261 -12.356  22.238  1.00  0.00    -0.294 N 
ATOM     17  H2  UNL     1      13.422 -12.351  23.246  1.00  0.00     0.174 HD
BRANCH  16  18
HETATM   18  S1  UNL     1      14.056 -11.350  21.053  1.00  0.00     0.315 S 
HETATM   19  O2  UNL     1      13.764  -9.913  21.258  1.00  0.00    -0.183 OA
HETATM   20  O3  UNL     1      13.458 -11.753  19.715  1.00  0.00    -0.183 OA
BRANCH  18  21
HETATM   21  N3  UNL     1      15.704 -11.730  21.036  1.00  0.00    -0.299 N 
ATOM     22  H3  UNL     1      16.406 -11.108  20.633  1.00  0.00     0.174 HD
BRANCH  21  23
HETATM   23  C12 UNL     1      16.037 -12.986  21.628  1.00  0.00     0.172 C 
BRANCH  23  24
HETATM   24  C13 UNL     1      17.433 -13.376  21.520  1.00  0.00    -0.040 A 
HETATM   25  C14 UNL     1      18.109 -14.158  22.435  1.00  0.00     0.009 A 
HETATM   26  C15 UNL     1      19.428 -14.479  22.256  1.00  0.00     0.001 A 
HETATM   27  C16 UNL     1      20.149 -14.046  21.163  1.00  0.00     0.000 A 
HETATM   28  C17 UNL     1      19.480 -13.264  20.245  1.00  0.00     0.001 A 
HETATM   29  C18 UNL     1      18.152 -12.936  20.417  1.00  0.00     0.009 A 
ENDBRANCH  23  24
ENDBRANCH  21  23
ENDBRANCH  18  21
ENDBRANCH  16  18
ENDBRANCH  15  16
ENDBRANCH  12  15
ENDBRANCH   6  11
ENDBRANCH   4   6
ENDBRANCH   3   4
TORSDOF 11
ENDMDL
MODEL 5
REMARK VINA RESULT: -7.513500703      1.513      2.303
REMARK  11 active torsions:
REMARK  status: ('A' for Active; 'I' for Inactive)
REMARK    1  A    between atoms: C3_3  and  C4_4 
REMARK    2  A    between atoms: C4_4  and  C6_6 
REMARK    3  A    between atoms: C6_6  and  C7_7 
REMARK    4  A    between atoms: C6_6  and  N1_11 
REMARK    5  A    between atoms: C7_7  and  C8_8 
REMARK       I    between atoms: N1_11  and  C10_13 
REMARK    6  A    between atoms: C10_13  and  C11_15 
REMARK    7  A    between atoms: C11_15  and  N2_16 
REMARK    8  A    between atoms: N2_16  and  S1_18 
REMARK    9  A    between atoms: S1_18  and  N3_21 
REMARK   10  A    between atoms: N3_21  and  C12_23 
REMARK   11  A    between atoms: C12_23  and  C13_24 
ROOT
HETATM    1  C1  UNL     1      21.684 -18.872  26.273  1.00  0.00     0.112 C 
HETATM    2  C2  UNL     1      20.697 -18.159  25.449  1.00  0.00    -0.111 C 
HETATM    3  C3  UNL     1      19.900 -17.574  24.756  1.00  0.00    -0.101 C 
ENDROOT
BRANCH   3   4
HETATM    4  C4  UNL     1      18.947 -16.851  23.898  1.00  0.00     0.083 C 
HETATM    5  C5  UNL     1      17.578 -17.009  24.471  1.00  0.00     0.025 C 
BRANCH   4   6
HETATM    6  C6  UNL     1      19.413 -15.422  23.821  1.00  0.00     0.101 C 
BRANCH   6   7
HETATM    7  C7  UNL     1      19.320 -14.736  25.169  1.00  0.00     0.046 C 
BRANCH   7   8
HETATM    8  C8  UNL     1      20.529 -13.858  25.361  1.00  0.00     0.080 C 
HETATM    9  C9  UNL     1      21.736 -14.527  24.706  1.00  0.00     0.026 C 
HETATM   10 CL1  UNL     1      20.835 -13.588  27.098  1.00  0.00    -0.125 Cl
ENDBRANCH   7   8
ENDBRANCH   6   7
BRANCH   6  11
HETATM   11  N1  UNL     1      18.758 -14.671  22.811  1.00  0.00    -0.354 N 
HETATM   12  C10 UNL     1      19.291 -13.990  21.709  1.00  0.00     0.236 C 
HETATM   13  O1  UNL     1      20.512 -13.944  21.451  1.00  0.00    -0.272 OA
ATOM     14  H1  UNL     1      17.744 -14.618  22.901  1.00  0.00     0.163 HD
BRANCH  12  15
HETATM   15  C11 UNL     1      18.389 -13.275  20.776  1.00  0.00     0.236 C 
BRANCH  15  16
HETATM   16  N2  UNL     1      17.437 -12.443  21.451  1.00  0.00    -0.294 N 
ATOM     17  H2  UNL     1      17.590 -11.923  22.315  1.00  0.00     0.174 HD
BRANCH  16  18
HETATM   18  S1  UNL     1      15.966 -12.489  20.512  1.00  0.00     0.315 S 
HETATM   19  O2  UNL     1      15.369 -13.844  20.480  1.00  0.00    -0.183 OA
HETATM   20  O3  UNL     1      16.382 -12.138  19.092  1.00  0.00    -0.183 OA
BRANCH  18  21
HETATM   21  N3  UNL     1      14.924 -11.283  21.074  1.00  0.00    -0.299 N 
ATOM     22  H3  UNL     1      15.262 -10.402  21.463  1.00  0.00     0.174 HD
BRANCH  21  23
HETATM   23  C12 UNL     1      13.534 -11.589  20.963  1.00  0.00     0.172 C 
BRANCH  23  24
HETATM   24  C13 UNL     1      12.744 -11.352  22.160  1.00  0.00    -0.040 A 
HETATM   25  C14 UNL     1      12.724 -10.171  22.873  1.00  0.00     0.009 A 
HETATM   26  C15 UNL     1      11.949 -10.032  23.993  1.00  0.00     0.001 A 
HETATM   27  C16 UNL     1      11.151 -11.052  24.468  1.00  0.00     0.000 A 
HETATM   28  C17 UNL     1      11.166 -12.235  23.759  1.00  0.00     0.001 A 
HETATM   29  C18 UNL     1      11.943 -12.383  22.630  1.00  0.00     0.009 A 
ENDBRANCH  23  24
ENDBRANCH  21  23
ENDBRANCH  18  21
ENDBRANCH  16  18
ENDBRANCH  15  16
ENDBRANCH  12  15
ENDBRANCH   6  11
ENDBRANCH   4   6
ENDBRANCH   3   4
TORSDOF 11
ENDMDL
