MODEL 1
REMARK VINA RESULT: -8.519472290      0.000      0.000
REMARK  10 active torsions:
REMARK  status: ('A' for Active; 'I' for Inactive)
REMARK    1  A    between atoms: S1_2  and  N1_4 
REMARK    2  A    between atoms: S1_2  and  N2_14 
REMARK    3  A    between atoms: N1_4  and  C1_6 
REMARK    4  A    between atoms: C1_6  and  C2_7 
REMARK    5  A    between atoms: C2_7  and  C3_8 
REMARK    6  A    between atoms: N2_14  and  S2_16 
REMARK    7  A    between atoms: S2_16  and  N3_19 
REMARK    8  A    between atoms: N3_19  and  C9_21 
REMARK    9  A    between atoms: C9_21  and  C10_22 
REMARK   10  A    between atoms: C10_22  and  C11_23 
ROOT
HETATM    1  N2  UNL     1      15.667 -14.226  20.073  1.00  0.00    -0.177 N 
ATOM      2  H2  UNL     1      15.109 -14.721  19.378  1.00  0.00     0.195 HD
ENDROOT
BRANCH   1   3
HETATM    3  S1  UNL     1      16.265 -12.611  19.921  1.00  0.00     0.329 S 
HETATM    4  O1  UNL     1      16.097 -12.107  18.509  1.00  0.00    -0.182 OA
HETATM    5  O2  UNL     1      17.702 -12.561  20.336  1.00  0.00    -0.182 OA
BRANCH   3   6
HETATM    6  N1  UNL     1      15.344 -11.633  21.005  1.00  0.00    -0.302 N 
ATOM      7  H1  UNL     1      15.707 -11.068  21.772  1.00  0.00     0.173 HD
BRANCH   6   8
HETATM    8  C1  UNL     1      13.953 -11.770  20.614  1.00  0.00     0.138 C 
BRANCH   8   9
HETATM    9  C2  UNL     1      13.128 -10.578  21.038  1.00  0.00     0.059 C 
BRANCH   9  10
HETATM   10  C3  UNL     1      12.422 -10.860  22.307  1.00  0.00    -0.057 A 
HETATM   11  C4  UNL     1      11.807 -12.067  22.553  1.00  0.00     0.007 A 
HETATM   12  C5  UNL     1      11.147 -12.309  23.760  1.00  0.00     0.001 A 
HETATM   13  C6  UNL     1      11.111 -11.323  24.724  1.00  0.00     0.000 A 
HETATM   14  C7  UNL     1      11.719 -10.101  24.508  1.00  0.00     0.001 A 
HETATM   15  C8  UNL     1      12.355  -9.905  23.309  1.00  0.00     0.007 A 
ENDBRANCH   9  10
ENDBRANCH   8   9
ENDBRANCH   6   8
ENDBRANCH   3   6
ENDBRANCH   1   3
BRANCH   1  16
HETATM   16  S2  UNL     1      16.171 -14.857  21.593  1.00  0.00     0.329 S 
HETATM   17  O3  UNL     1      15.316 -16.083  21.882  1.00  0.00    -0.182 OA
HETATM   18  O4  UNL     1      15.852 -13.872  22.699  1.00  0.00    -0.182 OA
BRANCH  16  19
HETATM   19  N3  UNL     1      17.848 -15.262  21.605  1.00  0.00    -0.302 N 
ATOM     20  H3  UNL     1      18.366 -15.694  20.840  1.00  0.00     0.173 HD
BRANCH  19  21
HETATM   21  C9  UNL     1      18.392 -14.883  22.887  1.00  0.00     0.138 C 
BRANCH  21  22
HETATM   22  C10 UNL     1      19.903 -14.804  22.864  1.00  0.00     0.062 C 
BRANCH  22  23
HETATM   23  C11 UNL     1      20.390 -14.613  24.253  1.00  0.00    -0.018 A 
HETATM   24  C12 UNL     1      19.530 -14.771  25.342  1.00  0.00     0.010 A 
HETATM   25  C13 UNL     1      19.973 -14.596  26.634  1.00  0.00     0.001 A 
HETATM   26  C14 UNL     1      21.281 -14.259  26.900  1.00  0.00     0.003 A 
HETATM   27  C15 UNL     1      22.156 -14.095  25.835  1.00  0.00     0.043 A 
HETATM   28  C16 UNL     1      21.690 -14.276  24.540  1.00  0.00     0.122 A 
HETATM   29  F1  UNL     1      22.549 -14.115  23.502  1.00  0.00    -0.206 F 
ENDBRANCH  22  23
ENDBRANCH  21  22
ENDBRANCH  19  21
ENDBRANCH  16  19
ENDBRANCH   1  16
TORSDOF 10
ENDMDL
MODEL 2
REMARK VINA RESULT: -8.442163463      2.283      7.670
REMARK  10 active torsions:
REMARK  status: ('A' for Active; 'I' for Inactive)
REMARK    1  A    between atoms: S1_2  and  N1_4 
REMARK    2  A    between atoms: S1_2  and  N2_14 
REMARK    3  A    between atoms: N1_4  and  C1_6 
REMARK    4  A    between atoms: C1_6  and  C2_7 
REMARK    5  A    between atoms: C2_7  and  C3_8 
REMARK    6  A    between atoms: N2_14  and  S2_16 
REMARK    7  A    between atoms: S2_16  and  N3_19 
REMARK    8  A    between atoms: N3_19  and  C9_21 
REMARK    9  A    between atoms: C9_21  and  C10_22 
REMARK   10  A    between atoms: C10_22  and  C11_23 
ROOT
HETATM    1  N2  UNL     1      15.324 -14.124  19.898  1.00  0.00    -0.177 N 
ATOM      2  H2  UNL     1      14.759 -14.511  19.141  1.00  0.00     0.195 HD
ENDROOT
BRANCH   1   3
HETATM    3  S1  UNL     1      15.563 -14.848  21.449  1.00  0.00     0.329 S 
HETATM    4  O1  UNL     1      14.615 -16.003  21.654  1.00  0.00    -0.182 OA
HETATM    5  O2  UNL     1      15.387 -13.819  22.521  1.00  0.00    -0.182 OA
BRANCH   3   6
HETATM    6  N1  UNL     1      17.193 -15.414  21.490  1.00  0.00    -0.302 N 
ATOM      7  H1  UNL     1      17.748 -15.726  20.694  1.00  0.00     0.173 HD
BRANCH   6   8
HETATM    8  C1  UNL     1      17.621 -15.361  22.876  1.00  0.00     0.138 C 
BRANCH   8   9
HETATM    9  C2  UNL     1      18.863 -14.521  23.051  1.00  0.00     0.059 C 
BRANCH   9  10
HETATM   10  C3  UNL     1      19.333 -14.574  24.453  1.00  0.00    -0.057 A 
HETATM   11  C4  UNL     1      18.807 -15.456  25.371  1.00  0.00     0.007 A 
HETATM   12  C5  UNL     1      19.269 -15.487  26.689  1.00  0.00     0.001 A 
HETATM   13  C6  UNL     1      20.268 -14.619  27.079  1.00  0.00     0.000 A 
HETATM   14  C7  UNL     1      20.817 -13.723  26.182  1.00  0.00     0.001 A 
HETATM   15  C8  UNL     1      20.334 -13.726  24.898  1.00  0.00     0.007 A 
ENDBRANCH   9  10
ENDBRANCH   8   9
ENDBRANCH   6   8
ENDBRANCH   3   6
ENDBRANCH   1   3
BRANCH   1  16
HETATM   16  S2  UNL     1      16.197 -12.642  19.842  1.00  0.00     0.329 S 
HETATM   17  O3  UNL     1      16.108 -12.115  18.417  1.00  0.00    -0.182 OA
HETATM   18  O4  UNL     1      17.671 -12.895  20.088  1.00  0.00    -0.182 OA
BRANCH  16  19
HETATM   19  N3  UNL     1      15.584 -11.483  20.964  1.00  0.00    -0.302 N 
ATOM     20  H3  UNL     1      16.112 -11.044  21.720  1.00  0.00     0.173 HD
BRANCH  19  21
HETATM   21  C9  UNL     1      14.197 -11.242  20.649  1.00  0.00     0.138 C 
BRANCH  21  22
HETATM   22  C10 UNL     1      13.585 -10.185  21.543  1.00  0.00     0.062 C 
BRANCH  22  23
HETATM   23  C11 UNL     1      12.651 -10.845  22.488  1.00  0.00    -0.018 A 
HETATM   24  C12 UNL     1      12.110 -12.100  22.203  1.00  0.00     0.010 A 
HETATM   25  C13 UNL     1      11.243 -12.720  23.075  1.00  0.00     0.001 A 
HETATM   26  C14 UNL     1      10.878 -12.126  24.261  1.00  0.00     0.003 A 
HETATM   27  C15 UNL     1      11.402 -10.878  24.569  1.00  0.00     0.043 A 
HETATM   28  C16 UNL     1      12.274 -10.269  23.677  1.00  0.00     0.122 A 
HETATM   29  F1  UNL     1      12.784  -9.049  23.982  1.00  0.00    -0.206 F 
ENDBRANCH  22  23
ENDBRANCH  21  22
ENDBRANCH  19  21
ENDBRANCH  16  19
ENDBRANCH   1  16
TORSDOF 10
ENDMDL
MODEL 3
REMARK VINA RESULT: -8.365200712      2.200      8.043
REMARK  10 active torsions:
REMARK  status: ('A' for Active; 'I' for Inactive)
REMARK    1  A    between atoms: S1_2  and  N1_4 
REMARK    2  A    between atoms: S1_2  and  N2_14 
REMARK    3  A    between atoms: N1_4  and  C1_6 
REMARK    4  A    between atoms: C1_6  and  C2_7 
REMARK    5  A    between atoms: C2_7  and  C3_8 
REMARK    6  A    between atoms: N2_14  and  S2_16 
REMARK    7  A    between atoms: S2_16  and  N3_19 
REMARK    8  A    between atoms: N3_19  and  C9_21 
REMARK    9  A    between atoms: C9_21  and  C10_22 
REMARK   10  A    between atoms: C10_22  and  C11_23 
ROOT
HETATM    1  N2  UNL     1      15.940 -14.289  20.079  1.00  0.00    -0.177 N 
ATOM      2  H2  UNL     1      15.545 -14.790  19.283  1.00  0.00     0.195 HD
ENDROOT
BRANCH   1   3
HETATM    3  S1  UNL     1      16.247 -14.962  21.642  1.00  0.00     0.329 S 
HETATM    4  O1  UNL     1      15.379 -16.171  21.886  1.00  0.00    -0.182 OA
HETATM    5  O2  UNL     1      16.018 -13.923  22.694  1.00  0.00    -0.182 OA
BRANCH   3   6
HETATM    6  N1  UNL     1      17.911 -15.419  21.671  1.00  0.00    -0.302 N 
ATOM      7  H1  UNL     1      18.438 -15.841  20.907  1.00  0.00     0.173 HD
BRANCH   6   8
HETATM    8  C1  UNL     1      18.414 -15.088  22.991  1.00  0.00     0.138 C 
BRANCH   8   9
HETATM    9  C2  UNL     1      19.776 -14.442  22.930  1.00  0.00     0.059 C 
BRANCH   9  10
HETATM   10  C3  UNL     1      20.405 -14.426  24.270  1.00  0.00    -0.057 A 
HETATM   11  C4  UNL     1      19.663 -14.386  25.428  1.00  0.00     0.007 A 
HETATM   12  C5  UNL     1      20.280 -14.372  26.682  1.00  0.00     0.001 A 
HETATM   13  C6  UNL     1      21.657 -14.400  26.761  1.00  0.00     0.000 A 
HETATM   14  C7  UNL     1      22.430 -14.442  25.616  1.00  0.00     0.001 A 
HETATM   15  C8  UNL     1      21.784 -14.453  24.407  1.00  0.00     0.007 A 
ENDBRANCH   9  10
ENDBRANCH   8   9
ENDBRANCH   6   8
ENDBRANCH   3   6
ENDBRANCH   1   3
BRANCH   1  16
HETATM   16  S2  UNL     1      16.410 -12.634  20.091  1.00  0.00     0.329 S 
HETATM   17  O3  UNL     1      16.437 -12.159  18.645  1.00  0.00    -0.182 OA
HETATM   18  O4  UNL     1      17.836 -12.500  20.587  1.00  0.00    -0.182 OA
BRANCH  16  19
HETATM   19  N3  UNL     1      15.344 -11.661  21.037  1.00  0.00    -0.302 N 
ATOM     20  H3  UNL     1      15.624 -10.939  21.702  1.00  0.00     0.173 HD
BRANCH  19  21
HETATM   21  C9  UNL     1      13.989 -12.045  20.724  1.00  0.00     0.138 C 
BRANCH  21  22
HETATM   22  C10 UNL     1      13.017 -10.897  20.895  1.00  0.00     0.062 C 
BRANCH  22  23
HETATM   23  C11 UNL     1      12.377 -11.012  22.229  1.00  0.00    -0.018 A 
HETATM   24  C12 UNL     1      12.451  -9.968  23.152  1.00  0.00     0.010 A 
HETATM   25  C13 UNL     1      11.859 -10.066  24.392  1.00  0.00     0.001 A 
HETATM   26  C14 UNL     1      11.171 -11.198  24.766  1.00  0.00     0.003 A 
HETATM   27  C15 UNL     1      11.083 -12.251  23.867  1.00  0.00     0.043 A 
HETATM   28  C16 UNL     1      11.686 -12.132  22.622  1.00  0.00     0.122 A 
HETATM   29  F1  UNL     1      11.597 -13.164  21.745  1.00  0.00    -0.206 F 
ENDBRANCH  22  23
ENDBRANCH  21  22
ENDBRANCH  19  21
ENDBRANCH  16  19
ENDBRANCH   1  16
TORSDOF 10
ENDMDL
MODEL 4
REMARK VINA RESULT: -8.265884913      1.109      1.430
REMARK  10 active torsions:
REMARK  status: ('A' for Active; 'I' for Inactive)
REMARK    1  A    between atoms: S1_2  and  N1_4 
REMARK    2  A    between atoms: S1_2  and  N2_14 
REMARK    3  A    between atoms: N1_4  and  C1_6 
REMARK    4  A    between atoms: C1_6  and  C2_7 
REMARK    5  A    between atoms: C2_7  and  C3_8 
REMARK    6  A    between atoms: N2_14  and  S2_16 
REMARK    7  A    between atoms: S2_16  and  N3_19 
REMARK    8  A    between atoms: N3_19  and  C9_21 
REMARK    9  A    between atoms: C9_21  and  C10_22 
REMARK   10  A    between atoms: C10_22  and  C11_23 
ROOT
HETATM    1  N2  UNL     1      15.676 -14.225  20.054  1.00  0.00    -0.177 N 
ATOM      2  H2  UNL     1      15.132 -14.720  19.346  1.00  0.00     0.195 HD
ENDROOT
BRANCH   1   3
HETATM    3  S1  UNL     1      16.261 -12.604  19.924  1.00  0.00     0.329 S 
HETATM    4  O1  UNL     1      16.104 -12.088  18.516  1.00  0.00    -0.182 OA
HETATM    5  O2  UNL     1      17.693 -12.547  20.355  1.00  0.00    -0.182 OA
BRANCH   3   6
HETATM    6  N1  UNL     1      15.320 -11.645  21.008  1.00  0.00    -0.302 N 
ATOM      7  H1  UNL     1      15.670 -11.090  21.789  1.00  0.00     0.173 HD
BRANCH   6   8
HETATM    8  C1  UNL     1      13.936 -11.781  20.594  1.00  0.00     0.138 C 
BRANCH   8   9
HETATM    9  C2  UNL     1      13.102 -10.595  21.016  1.00  0.00     0.059 C 
BRANCH   9  10
HETATM   10  C3  UNL     1      12.405 -10.877  22.291  1.00  0.00    -0.057 A 
HETATM   11  C4  UNL     1      11.806 -12.089  22.547  1.00  0.00     0.007 A 
HETATM   12  C5  UNL     1      11.154 -12.331  23.759  1.00  0.00     0.001 A 
HETATM   13  C6  UNL     1      11.110 -11.339  24.716  1.00  0.00     0.000 A 
HETATM   14  C7  UNL     1      11.703 -10.111  24.490  1.00  0.00     0.001 A 
HETATM   15  C8  UNL     1      12.331  -9.917  23.286  1.00  0.00     0.007 A 
ENDBRANCH   9  10
ENDBRANCH   8   9
ENDBRANCH   6   8
ENDBRANCH   3   6
ENDBRANCH   1   3
BRANCH   1  16
HETATM   16  S2  UNL     1      16.162 -14.866  21.575  1.00  0.00     0.329 S 
HETATM   17  O3  UNL     1      15.400 -16.167  21.786  1.00  0.00    -0.182 OA
HETATM   18  O4  UNL     1      15.715 -13.949  22.696  1.00  0.00    -0.182 OA
BRANCH  16  19
HETATM   19  N3  UNL     1      17.865 -15.133  21.654  1.00  0.00    -0.302 N 
ATOM     20  H3  UNL     1      18.450 -15.500  20.902  1.00  0.00     0.173 HD
BRANCH  19  21
HETATM   21  C9  UNL     1      18.320 -14.748  22.968  1.00  0.00     0.138 C 
BRANCH  21  22
HETATM   22  C10 UNL     1      19.266 -15.768  23.565  1.00  0.00     0.062 C 
BRANCH  22  23
HETATM   23  C11 UNL     1      19.982 -15.142  24.704  1.00  0.00    -0.018 A 
HETATM   24  C12 UNL     1      21.229 -14.541  24.524  1.00  0.00     0.010 A 
HETATM   25  C13 UNL     1      21.900 -13.957  25.575  1.00  0.00     0.001 A 
HETATM   26  C14 UNL     1      21.366 -13.944  26.843  1.00  0.00     0.003 A 
HETATM   27  C15 UNL     1      20.127 -14.535  27.050  1.00  0.00     0.043 A 
HETATM   28  C16 UNL     1      19.466 -15.118  25.977  1.00  0.00     0.122 A 
HETATM   29  F1  UNL     1      18.255 -15.695  26.183  1.00  0.00    -0.206 F 
ENDBRANCH  22  23
ENDBRANCH  21  22
ENDBRANCH  19  21
ENDBRANCH  16  19
ENDBRANCH   1  16
TORSDOF 10
ENDMDL
MODEL 5
REMARK VINA RESULT: -8.243422645      2.400      7.892
REMARK  10 active torsions:
REMARK  status: ('A' for Active; 'I' for Inactive)
REMARK    1  A    between atoms: S1_2  and  N1_4 
REMARK    2  A    between atoms: S1_2  and  N2_14 
REMARK    3  A    between atoms: N1_4  and  C1_6 
REMARK    4  A    between atoms: C1_6  and  C2_7 
REMARK    5  A    between atoms: C2_7  and  C3_8 
REMARK    6  A    between atoms: N2_14  and  S2_16 
REMARK    7  A    between atoms: S2_16  and  N3_19 
REMARK    8  A    between atoms: N3_19  and  C9_21 
REMARK    9  A    between atoms: C9_21  and  C10_22 
REMARK   10  A    between atoms: C10_22  and  C11_23 
ROOT
HETATM    1  N2  UNL     1      16.926 -14.540  20.926  1.00  0.00    -0.177 N 
ATOM      2  H2  UNL     1      17.137 -15.523  21.098  1.00  0.00     0.195 HD
ENDROOT
BRANCH   1   3
HETATM    3  S1  UNL     1      18.068 -13.331  20.454  1.00  0.00     0.329 S 
HETATM    4  O1  UNL     1      18.035 -12.161  21.406  1.00  0.00    -0.182 OA
HETATM    5  O2  UNL     1      17.786 -12.886  19.054  1.00  0.00    -0.182 OA
BRANCH   3   6
HETATM    6  N1  UNL     1      19.626 -14.074  20.493  1.00  0.00    -0.302 N 
ATOM      7  H1  UNL     1      20.074 -14.586  19.734  1.00  0.00     0.173 HD
BRANCH   6   8
HETATM    8  C1  UNL     1      20.174 -13.830  21.814  1.00  0.00     0.138 C 
BRANCH   8   9
HETATM    9  C2  UNL     1      19.899 -14.975  22.759  1.00  0.00     0.059 C 
BRANCH   9  10
HETATM   10  C3  UNL     1      20.445 -14.682  24.103  1.00  0.00    -0.057 A 
HETATM   11  C4  UNL     1      19.642 -14.590  25.218  1.00  0.00     0.007 A 
HETATM   12  C5  UNL     1      20.181 -14.313  26.476  1.00  0.00     0.001 A 
HETATM   13  C6  UNL     1      21.542 -14.127  26.606  1.00  0.00     0.000 A 
HETATM   14  C7  UNL     1      22.375 -14.214  25.507  1.00  0.00     0.001 A 
HETATM   15  C8  UNL     1      21.804 -14.487  24.291  1.00  0.00     0.007 A 
ENDBRANCH   9  10
ENDBRANCH   8   9
ENDBRANCH   6   8
ENDBRANCH   3   6
ENDBRANCH   1   3
BRANCH   1  16
HETATM   16  S2  UNL     1      15.374 -13.809  21.056  1.00  0.00     0.329 S 
HETATM   17  O3  UNL     1      15.063 -13.662  22.539  1.00  0.00    -0.182 OA
HETATM   18  O4  UNL     1      14.310 -14.740  20.510  1.00  0.00    -0.182 OA
BRANCH  16  19
HETATM   19  N3  UNL     1      15.306 -12.278  20.261  1.00  0.00    -0.302 N 
ATOM     20  H3  UNL     1      15.673 -12.070  19.332  1.00  0.00     0.173 HD
BRANCH  19  21
HETATM   21  C9  UNL     1      14.642 -11.346  21.138  1.00  0.00     0.138 C 
BRANCH  21  22
HETATM   22  C10 UNL     1      13.152 -11.280  20.878  1.00  0.00     0.062 C 
BRANCH  22  23
HETATM   23  C11 UNL     1      12.442 -11.270  22.180  1.00  0.00    -0.018 A 
HETATM   24  C12 UNL     1      12.479 -10.146  23.008  1.00  0.00     0.010 A 
HETATM   25  C13 UNL     1      11.822 -10.128  24.218  1.00  0.00     0.001 A 
HETATM   26  C14 UNL     1      11.104 -11.217  24.657  1.00  0.00     0.003 A 
HETATM   27  C15 UNL     1      11.052 -12.347  23.853  1.00  0.00     0.043 A 
HETATM   28  C16 UNL     1      11.721 -12.346  22.637  1.00  0.00     0.122 A 
HETATM   29  F1  UNL     1      11.667 -13.453  21.854  1.00  0.00    -0.206 F 
ENDBRANCH  22  23
ENDBRANCH  21  22
ENDBRANCH  19  21
ENDBRANCH  16  19
ENDBRANCH   1  16
TORSDOF 10
ENDMDL
