MODEL 1
REMARK VINA RESULT: -5.695290101      0.000      0.000
REMARK  6 active torsions:
REMARK  status: ('A' for Active; 'I' for Inactive)
REMARK    1  A    between atoms: C1_4  and  C2_5 
REMARK    2  A    between atoms: C2_5  and  C3_6 
REMARK    3  A    between atoms: C4_10  and  N3_11 
REMARK    4  A    between atoms: C5_15  and  C6_16 
REMARK    5  A    between atoms: C6_16  and  N4_17 
REMARK    6  A    between atoms: N4_17  and  C7_18 
ROOT
HETATM    1  C3  UNL     1      83.567  44.482 -10.167  1.00  0.00     0.206 C 
HETATM    2  N2  UNL     1      82.529  43.741  -9.502  1.00  0.00    -0.040 N 
ATOM      3  H21 UNL     1      82.590  42.726  -9.423  1.00  0.00     0.280 HD
ATOM      4  H22 UNL     1      81.608  43.646  -9.931  1.00  0.00     0.280 HD
HETATM    5  C4  UNL     1      82.705  44.566  -8.349  1.00  0.00     0.392 C 
HETATM    6  C5  UNL     1      84.088  44.905  -8.829  1.00  0.00     0.127 C 
ENDROOT
BRANCH   1   7
HETATM    7  C2  UNL     1      83.031  45.527 -11.084  1.00  0.00     0.077 C 
BRANCH   7   8
HETATM    8  C1  UNL     1      82.632  44.840 -12.371  1.00  0.00     0.054 C 
HETATM    9  N1  UNL     1      81.403  44.767 -12.661  1.00  0.00    -0.411 N 
ATOM     10  H12 UNL     1      80.709  45.168 -12.030  1.00  0.00     0.155 HD
ATOM     11  H11 UNL     1      81.133  44.304 -13.528  1.00  0.00     0.155 HD
ENDBRANCH   7   8
ENDBRANCH   1   7
BRANCH   6  12
HETATM   12  C6  UNL     1      85.096  43.945  -8.219  1.00  0.00     0.169 C 
BRANCH  12  13
HETATM   13  N4  UNL     1      85.961  44.494  -7.269  1.00  0.00    -0.395 NA
BRANCH  13  14
HETATM   14  C7  UNL     1      86.782  45.014  -6.366  1.00  0.00     0.440 C 
HETATM   15  O1  UNL     1      87.928  45.507  -6.511  1.00  0.00    -0.268 OA
ENDBRANCH  13  14
ENDBRANCH  12  13
ENDBRANCH   6  12
BRANCH   5  16
HETATM   16  N3  UNL     1      81.782  45.652  -8.182  1.00  0.00    -0.049 N 
ATOM     17  H33 UNL     1      81.177  45.466  -7.381  1.00  0.00     0.276 HD
ATOM     18  H32 UNL     1      82.282  46.477  -7.853  1.00  0.00     0.276 HD
ATOM     19  H31 UNL     1      81.211  45.898  -8.990  1.00  0.00     0.276 HD
ENDBRANCH   5  16
TORSDOF 6
ENDMDL
MODEL 2
REMARK VINA RESULT: -5.317122971      3.092      6.168
REMARK  6 active torsions:
REMARK  status: ('A' for Active; 'I' for Inactive)
REMARK    1  A    between atoms: C1_4  and  C2_5 
REMARK    2  A    between atoms: C2_5  and  C3_6 
REMARK    3  A    between atoms: C4_10  and  N3_11 
REMARK    4  A    between atoms: C5_15  and  C6_16 
REMARK    5  A    between atoms: C6_16  and  N4_17 
REMARK    6  A    between atoms: N4_17  and  C7_18 
ROOT
HETATM    1  C3  UNL     1      87.578  43.315  -7.535  1.00  0.00     0.206 C 
HETATM    2  N2  UNL     1      88.247  44.573  -7.729  1.00  0.00    -0.040 N 
ATOM      3  H21 UNL     1      88.558  44.852  -8.660  1.00  0.00     0.280 HD
ATOM      4  H22 UNL     1      89.194  44.712  -7.377  1.00  0.00     0.280 HD
HETATM    5  C4  UNL     1      87.143  45.235  -7.109  1.00  0.00     0.392 C 
HETATM    6  C5  UNL     1      86.278  44.050  -7.435  1.00  0.00     0.127 C 
ENDROOT
BRANCH   1   7
HETATM    7  C2  UNL     1      88.073  42.579  -6.337  1.00  0.00     0.077 C 
BRANCH   7   8
HETATM    8  C1  UNL     1      88.879  41.399  -6.830  1.00  0.00     0.054 C 
HETATM    9  N1  UNL     1      89.417  40.636  -5.977  1.00  0.00    -0.411 N 
ATOM     10  H12 UNL     1      89.300  40.827  -4.982  1.00  0.00     0.155 HD
ATOM     11  H11 UNL     1      89.962  39.840  -6.309  1.00  0.00     0.155 HD
ENDBRANCH   7   8
ENDBRANCH   1   7
BRANCH   6  12
HETATM   12  C6  UNL     1      85.581  44.270  -8.767  1.00  0.00     0.169 C 
BRANCH  12  13
HETATM   13  N4  UNL     1      84.188  44.160  -8.751  1.00  0.00    -0.395 NA
BRANCH  13  14
HETATM   14  C7  UNL     1      82.865  44.056  -8.735  1.00  0.00     0.440 C 
HETATM   15  O1  UNL     1      82.069  44.073  -7.765  1.00  0.00    -0.268 OA
ENDBRANCH  13  14
ENDBRANCH  12  13
ENDBRANCH   6  12
BRANCH   5  16
HETATM   16  N3  UNL     1      87.290  45.581  -5.725  1.00  0.00    -0.049 N 
ATOM     17  H33 UNL     1      87.562  44.753  -5.193  1.00  0.00     0.276 HD
ATOM     18  H32 UNL     1      88.120  46.162  -5.604  1.00  0.00     0.276 HD
ATOM     19  H31 UNL     1      86.493  46.029  -5.275  1.00  0.00     0.276 HD
ENDBRANCH   5  16
TORSDOF 6
ENDMDL
MODEL 3
REMARK VINA RESULT: -5.310947843      2.946      4.134
REMARK  6 active torsions:
REMARK  status: ('A' for Active; 'I' for Inactive)
REMARK    1  A    between atoms: C1_4  and  C2_5 
REMARK    2  A    between atoms: C2_5  and  C3_6 
REMARK    3  A    between atoms: C4_10  and  N3_11 
REMARK    4  A    between atoms: C5_15  and  C6_16 
REMARK    5  A    between atoms: C6_16  and  N4_17 
REMARK    6  A    between atoms: N4_17  and  C7_18 
ROOT
HETATM    1  C3  UNL     1      82.874  45.239 -10.619  1.00  0.00     0.206 C 
HETATM    2  N2  UNL     1      82.041  45.745 -11.676  1.00  0.00    -0.040 N 
ATOM      3  H21 UNL     1      81.972  46.750 -11.841  1.00  0.00     0.280 HD
ATOM      4  H22 UNL     1      81.025  45.694 -11.600  1.00  0.00     0.280 HD
HETATM    5  C4  UNL     1      82.738  44.909 -12.601  1.00  0.00     0.392 C 
HETATM    6  C5  UNL     1      83.894  44.850 -11.642  1.00  0.00     0.127 C 
ENDROOT
BRANCH   1   7
HETATM    7  C2  UNL     1      82.212  44.163  -9.829  1.00  0.00     0.077 C 
BRANCH   7   8
HETATM    8  C1  UNL     1      82.127  44.638  -8.396  1.00  0.00     0.054 C 
HETATM    9  N1  UNL     1      81.748  45.823  -8.173  1.00  0.00    -0.411 N 
ATOM     10  H12 UNL     1      81.508  46.433  -8.954  1.00  0.00     0.155 HD
ATOM     11  H11 UNL     1      81.692  46.143  -7.206  1.00  0.00     0.155 HD
ENDBRANCH   7   8
ENDBRANCH   1   7
BRANCH   6  12
HETATM   12  C6  UNL     1      84.895  45.944 -11.974  1.00  0.00     0.169 C 
BRANCH  12  13
HETATM   13  N4  UNL     1      86.237  45.635 -11.730  1.00  0.00    -0.395 NA
BRANCH  13  14
HETATM   14  C7  UNL     1      87.510  45.344 -11.498  1.00  0.00     0.440 C 
HETATM   15  O1  UNL     1      88.458  45.182 -12.305  1.00  0.00    -0.268 OA
ENDBRANCH  13  14
ENDBRANCH  12  13
ENDBRANCH   6  12
BRANCH   5  16
HETATM   16  N3  UNL     1      82.110  43.667 -12.950  1.00  0.00    -0.049 N 
ATOM     17  H33 UNL     1      82.587  42.898 -12.478  1.00  0.00     0.276 HD
ATOM     18  H32 UNL     1      81.190  43.614 -12.513  1.00  0.00     0.276 HD
ATOM     19  H31 UNL     1      82.027  43.457 -13.944  1.00  0.00     0.276 HD
ENDBRANCH   5  16
TORSDOF 6
ENDMDL
MODEL 4
REMARK VINA RESULT: -5.287823611      2.222      2.291
REMARK  6 active torsions:
REMARK  status: ('A' for Active; 'I' for Inactive)
REMARK    1  A    between atoms: C1_4  and  C2_5 
REMARK    2  A    between atoms: C2_5  and  C3_6 
REMARK    3  A    between atoms: C4_10  and  N3_11 
REMARK    4  A    between atoms: C5_15  and  C6_16 
REMARK    5  A    between atoms: C6_16  and  N4_17 
REMARK    6  A    between atoms: N4_17  and  C7_18 
ROOT
HETATM    1  C3  UNL     1      83.359  44.711 -10.720  1.00  0.00     0.206 C 
HETATM    2  N2  UNL     1      82.780  43.936  -9.657  1.00  0.00    -0.040 N 
ATOM      3  H21 UNL     1      83.139  43.004  -9.444  1.00  0.00     0.280 HD
ATOM      4  H22 UNL     1      81.843  43.545  -9.756  1.00  0.00     0.280 HD
HETATM    5  C4  UNL     1      83.017  45.021  -8.759  1.00  0.00     0.392 C 
HETATM    6  C5  UNL     1      84.075  45.535  -9.695  1.00  0.00     0.127 C 
ENDROOT
BRANCH   1   7
HETATM    7  C2  UNL     1      82.334  45.374 -11.574  1.00  0.00     0.077 C 
BRANCH   7   8
HETATM    8  C1  UNL     1      82.014  44.431 -12.713  1.00  0.00     0.054 C 
HETATM    9  N1  UNL     1      81.061  43.613 -12.571  1.00  0.00    -0.411 N 
ATOM     10  H12 UNL     1      80.529  43.601 -11.700  1.00  0.00     0.155 HD
ATOM     11  H11 UNL     1      80.845  42.977 -13.338  1.00  0.00     0.155 HD
ENDBRANCH   7   8
ENDBRANCH   1   7
BRANCH   6  12
HETATM   12  C6  UNL     1      85.433  44.986  -9.290  1.00  0.00     0.169 C 
BRANCH  12  13
HETATM   13  N4  UNL     1      86.533  45.527  -9.961  1.00  0.00    -0.395 NA
BRANCH  13  14
HETATM   14  C7  UNL     1      87.577  46.040 -10.598  1.00  0.00     0.440 C 
HETATM   15  O1  UNL     1      88.059  45.746 -11.720  1.00  0.00    -0.268 OA
ENDBRANCH  13  14
ENDBRANCH  12  13
ENDBRANCH   6  12
BRANCH   5  16
HETATM   16  N3  UNL     1      81.906  45.887  -8.483  1.00  0.00    -0.049 N 
ATOM     17  H33 UNL     1      82.168  46.853  -8.686  1.00  0.00     0.276 HD
ATOM     18  H32 UNL     1      81.177  45.740  -9.181  1.00  0.00     0.276 HD
ATOM     19  H31 UNL     1      81.501  45.832  -7.550  1.00  0.00     0.276 HD
ENDBRANCH   5  16
TORSDOF 6
ENDMDL
MODEL 5
REMARK VINA RESULT: -5.167055188      3.211      5.021
REMARK  6 active torsions:
REMARK  status: ('A' for Active; 'I' for Inactive)
REMARK    1  A    between atoms: C1_4  and  C2_5 
REMARK    2  A    between atoms: C2_5  and  C3_6 
REMARK    3  A    between atoms: C4_10  and  N3_11 
REMARK    4  A    between atoms: C5_15  and  C6_16 
REMARK    5  A    between atoms: C6_16  and  N4_17 
REMARK    6  A    between atoms: N4_17  and  C7_18 
ROOT
HETATM    1  C3  UNL     1      83.706  44.341  -9.931  1.00  0.00     0.206 C 
HETATM    2  N2  UNL     1      84.898  43.559 -10.115  1.00  0.00    -0.040 N 
ATOM      3  H21 UNL     1      84.879  42.720 -10.694  1.00  0.00     0.280 HD
ATOM      4  H22 UNL     1      85.278  43.010  -9.343  1.00  0.00     0.280 HD
HETATM    5  C4  UNL     1      85.576  44.732 -10.567  1.00  0.00     0.392 C 
HETATM    6  C5  UNL     1      84.246  45.347 -10.899  1.00  0.00     0.127 C 
ENDROOT
BRANCH   1   7
HETATM    7  C2  UNL     1      83.503  44.757  -8.514  1.00  0.00     0.077 C 
BRANCH   7   8
HETATM    8  C1  UNL     1      82.016  44.726  -8.240  1.00  0.00     0.054 C 
HETATM    9  N1  UNL     1      81.268  44.088  -9.036  1.00  0.00    -0.411 N 
ATOM     10  H12 UNL     1      81.675  43.610  -9.840  1.00  0.00     0.155 HD
ATOM     11  H11 UNL     1      80.265  44.068  -8.851  1.00  0.00     0.155 HD
ENDBRANCH   7   8
ENDBRANCH   1   7
BRANCH   6  12
HETATM   12  C6  UNL     1      83.896  45.065 -12.351  1.00  0.00     0.169 C 
BRANCH  12  13
HETATM   13  N4  UNL     1      82.648  44.475 -12.573  1.00  0.00    -0.395 NA
BRANCH  13  14
HETATM   14  C7  UNL     1      81.464  43.916 -12.783  1.00  0.00     0.440 C 
HETATM   15  O1  UNL     1      80.824  43.098 -12.077  1.00  0.00    -0.268 OA
ENDBRANCH  13  14
ENDBRANCH  12  13
ENDBRANCH   6  12
BRANCH   5  16
HETATM   16  N3  UNL     1      86.395  45.417  -9.608  1.00  0.00    -0.049 N 
ATOM     17  H33 UNL     1      86.412  44.889  -8.735  1.00  0.00     0.276 HD
ATOM     18  H32 UNL     1      87.375  45.351  -9.886  1.00  0.00     0.276 HD
ATOM     19  H31 UNL     1      86.161  46.390  -9.414  1.00  0.00     0.276 HD
ENDBRANCH   5  16
TORSDOF 6
ENDMDL
