MODEL 1
REMARK VINA RESULT: -7.358958719      0.000      0.000
REMARK  3 active torsions:
REMARK  status: ('A' for Active; 'I' for Inactive)
REMARK    1  A    between atoms: C2_2  and  C3_3 
REMARK    2  A    between atoms: N3_8  and  N4_9 
REMARK    3  A    between atoms: N4_9  and  C4_11 
ROOT
HETATM    1  N4  UNL     1      10.914  16.005   2.811  1.00  0.00    -0.275 N 
ATOM      2  H4  UNL     1      10.696  16.783   3.434  1.00  0.00     0.189 HD
ENDROOT
BRANCH   1   3
HETATM    3  N3  UNL     1      12.044  16.171   2.030  1.00  0.00    -0.168 N 
HETATM    4  C3  UNL     1      12.142  16.541   0.714  1.00  0.00     0.138 A 
HETATM    5  N1  UNL     1      13.465  16.439   0.844  1.00  0.00    -0.270 N 
HETATM    6  N2  UNL     1      13.337  16.078   2.134  1.00  0.00    -0.218 N 
ATOM      7  H1  UNL     1      14.257  16.579   0.217  1.00  0.00     0.190 HD
ATOM      8  H2  UNL     1      13.985  15.833   2.882  1.00  0.00     0.210 HD
BRANCH   4   9
HETATM    9  C2  UNL     1      11.185  16.904  -0.394  1.00  0.00     0.077 C 
HETATM   10  C1  UNL     1      10.568  15.618  -0.886  1.00  0.00     0.013 C 
ENDBRANCH   4   9
ENDBRANCH   1   3
BRANCH   1  11
HETATM   11  C4  UNL     1      10.026  14.923   2.870  1.00  0.00     0.075 A 
HETATM   12  C5  UNL     1       8.872  14.857   2.165  1.00  0.00     0.056 A 
HETATM   13  C6  UNL     1       8.008  13.743   2.258  1.00  0.00     0.037 A 
HETATM   14 CL1  UNL     1       6.532  13.672   1.347  1.00  0.00    -0.084 Cl
HETATM   15  C7  UNL     1       8.341  12.692   3.086  1.00  0.00     0.049 A 
HETATM   16  C8  UNL     1       9.507  12.731   3.814  1.00  0.00     0.059 A 
HETATM   17 CL2  UNL     1       9.981  11.423   4.883  1.00  0.00    -0.082 Cl
HETATM   18  C9  UNL     1      10.321  13.836   3.694  1.00  0.00     0.084 A 
HETATM   19 CL3  UNL     1      11.801  13.891   4.615  1.00  0.00    -0.080 Cl
ENDBRANCH   1  11
TORSDOF 3
ENDMDL
MODEL 2
REMARK VINA RESULT: -7.140046746      1.920      2.293
REMARK  3 active torsions:
REMARK  status: ('A' for Active; 'I' for Inactive)
REMARK    1  A    between atoms: C2_2  and  C3_3 
REMARK    2  A    between atoms: N3_8  and  N4_9 
REMARK    3  A    between atoms: N4_9  and  C4_11 
ROOT
HETATM    1  N4  UNL     1      10.240  14.190   0.428  1.00  0.00    -0.275 N 
ATOM      2  H4  UNL     1      10.705  13.348   0.086  1.00  0.00     0.189 HD
ENDROOT
BRANCH   1   3
HETATM    3  N3  UNL     1      10.689  15.378  -0.121  1.00  0.00    -0.168 N 
HETATM    4  C3  UNL     1      11.565  16.296   0.399  1.00  0.00     0.138 A 
HETATM    5  N1  UNL     1      11.392  17.005  -0.717  1.00  0.00    -0.270 N 
HETATM    6  N2  UNL     1      10.535  16.087  -1.200  1.00  0.00    -0.218 N 
ATOM      7  H1  UNL     1      11.760  17.890  -1.065  1.00  0.00     0.190 HD
ATOM      8  H2  UNL     1       9.991  15.988  -2.057  1.00  0.00     0.210 HD
BRANCH   4   9
HETATM    9  C2  UNL     1      12.371  16.444   1.665  1.00  0.00     0.077 C 
HETATM   10  C1  UNL     1      11.411  16.851   2.756  1.00  0.00     0.013 C 
ENDBRANCH   4   9
ENDBRANCH   1   3
BRANCH   1  11
HETATM   11  C4  UNL     1       9.239  13.974   1.385  1.00  0.00     0.075 A 
HETATM   12  C5  UNL     1       7.931  14.254   1.181  1.00  0.00     0.056 A 
HETATM   13  C6  UNL     1       6.958  14.019   2.178  1.00  0.00     0.037 A 
HETATM   14 CL1  UNL     1       5.283  14.383   1.902  1.00  0.00    -0.084 Cl
HETATM   15  C7  UNL     1       7.342  13.491   3.392  1.00  0.00     0.049 A 
HETATM   16  C8  UNL     1       8.664  13.196   3.627  1.00  0.00     0.059 A 
HETATM   17 CL2  UNL     1       9.211  12.523   5.152  1.00  0.00    -0.082 Cl
HETATM   18  C9  UNL     1       9.581  13.441   2.628  1.00  0.00     0.084 A 
HETATM   19 CL3  UNL     1      11.260  13.070   2.921  1.00  0.00    -0.080 Cl
ENDBRANCH   1  11
TORSDOF 3
ENDMDL
MODEL 3
REMARK VINA RESULT: -7.047217044      1.890      3.512
REMARK  3 active torsions:
REMARK  status: ('A' for Active; 'I' for Inactive)
REMARK    1  A    between atoms: C2_2  and  C3_3 
REMARK    2  A    between atoms: N3_8  and  N4_9 
REMARK    3  A    between atoms: N4_9  and  C4_11 
ROOT
HETATM    1  N4  UNL     1      10.329  14.135   0.368  1.00  0.00    -0.275 N 
ATOM      2  H4  UNL     1      10.640  13.321  -0.164  1.00  0.00     0.189 HD
ENDROOT
BRANCH   1   3
HETATM    3  N3  UNL     1      10.805  15.353  -0.084  1.00  0.00    -0.168 N 
HETATM    4  C3  UNL     1      11.649  16.238   0.536  1.00  0.00     0.138 A 
HETATM    5  N1  UNL     1      11.536  17.012  -0.543  1.00  0.00    -0.270 N 
HETATM    6  N2  UNL     1      10.709  16.125  -1.126  1.00  0.00    -0.218 N 
ATOM      7  H1  UNL     1      11.921  17.916  -0.817  1.00  0.00     0.190 HD
ATOM      8  H2  UNL     1      10.214  16.077  -2.016  1.00  0.00     0.210 HD
BRANCH   4   9
HETATM    9  C2  UNL     1      12.384  16.310   1.851  1.00  0.00     0.077 C 
HETATM   10  C1  UNL     1      11.414  16.858   2.871  1.00  0.00     0.013 C 
ENDBRANCH   4   9
ENDBRANCH   1   3
BRANCH   1  11
HETATM   11  C4  UNL     1       9.482  13.857   1.448  1.00  0.00     0.075 A 
HETATM   12  C5  UNL     1       9.900  13.293   2.606  1.00  0.00     0.056 A 
HETATM   13  C6  UNL     1       9.007  13.031   3.669  1.00  0.00     0.037 A 
HETATM   14 CL1  UNL     1       9.557  12.308   5.147  1.00  0.00    -0.084 Cl
HETATM   15  C7  UNL     1       7.674  13.355   3.531  1.00  0.00     0.049 A 
HETATM   16  C8  UNL     1       7.221  13.930   2.368  1.00  0.00     0.059 A 
HETATM   17 CL2  UNL     1       5.536  14.364   2.137  1.00  0.00    -0.082 Cl
HETATM   18  C9  UNL     1       8.125  14.168   1.356  1.00  0.00     0.084 A 
HETATM   19 CL3  UNL     1       7.557  14.896  -0.124  1.00  0.00    -0.080 Cl
ENDBRANCH   1  11
TORSDOF 3
ENDMDL
MODEL 4
REMARK VINA RESULT: -6.975439565      1.567      3.054
REMARK  3 active torsions:
REMARK  status: ('A' for Active; 'I' for Inactive)
REMARK    1  A    between atoms: C2_2  and  C3_3 
REMARK    2  A    between atoms: N3_8  and  N4_9 
REMARK    3  A    between atoms: N4_9  and  C4_11 
ROOT
HETATM    1  N4  UNL     1      11.519  16.063   2.160  1.00  0.00    -0.275 N 
ATOM      2  H4  UNL     1      10.810  16.772   2.347  1.00  0.00     0.189 HD
ENDROOT
BRANCH   1   3
HETATM    3  N3  UNL     1      12.389  16.356   1.125  1.00  0.00    -0.168 N 
HETATM    4  C3  UNL     1      12.108  16.713  -0.168  1.00  0.00     0.138 A 
HETATM    5  N1  UNL     1      13.424  16.779  -0.374  1.00  0.00    -0.270 N 
HETATM    6  N2  UNL     1      13.668  16.425   0.901  1.00  0.00    -0.218 N 
ATOM      7  H1  UNL     1      14.010  17.005  -1.177  1.00  0.00     0.190 HD
ATOM      8  H2  UNL     1      14.508  16.275   1.460  1.00  0.00     0.210 HD
BRANCH   4   9
HETATM    9  C2  UNL     1      10.868  16.936  -0.997  1.00  0.00     0.077 C 
HETATM   10  C1  UNL     1      10.100  15.637  -1.003  1.00  0.00     0.013 C 
ENDBRANCH   4   9
ENDBRANCH   1   3
BRANCH   1  11
HETATM   11  C4  UNL     1      11.471  14.934   2.989  1.00  0.00     0.075 A 
HETATM   12  C5  UNL     1      12.554  14.410   3.610  1.00  0.00     0.056 A 
HETATM   13  C6  UNL     1      12.455  13.269   4.437  1.00  0.00     0.037 A 
HETATM   14 CL1  UNL     1      13.852  12.608   5.228  1.00  0.00    -0.084 Cl
HETATM   15  C7  UNL     1      11.228  12.668   4.622  1.00  0.00     0.049 A 
HETATM   16  C8  UNL     1      10.110  13.179   4.005  1.00  0.00     0.059 A 
HETATM   17 CL2  UNL     1       8.524  12.456   4.203  1.00  0.00    -0.082 Cl
HETATM   18  C9  UNL     1      10.251  14.293   3.206  1.00  0.00     0.084 A 
HETATM   19 CL3  UNL     1       8.838  14.945   2.419  1.00  0.00    -0.080 Cl
ENDBRANCH   1  11
TORSDOF 3
ENDMDL
MODEL 5
REMARK VINA RESULT: -6.955024478      1.210      2.894
REMARK  3 active torsions:
REMARK  status: ('A' for Active; 'I' for Inactive)
REMARK    1  A    between atoms: C2_2  and  C3_3 
REMARK    2  A    between atoms: N3_8  and  N4_9 
REMARK    3  A    between atoms: N4_9  and  C4_11 
ROOT
HETATM    1  N4  UNL     1      10.882  14.862   1.127  1.00  0.00    -0.275 N 
ATOM      2  H4  UNL     1      10.749  14.717   0.126  1.00  0.00     0.189 HD
ENDROOT
BRANCH   1   3
HETATM    3  N3  UNL     1      12.011  15.581   1.475  1.00  0.00    -0.168 N 
HETATM    4  C3  UNL     1      12.753  16.449   0.718  1.00  0.00     0.138 A 
HETATM    5  N1  UNL     1      13.536  16.618   1.784  1.00  0.00    -0.270 N 
HETATM    6  N2  UNL     1      12.788  15.761   2.502  1.00  0.00    -0.218 N 
ATOM      7  H1  UNL     1      14.369  17.174   1.977  1.00  0.00     0.190 HD
ATOM      8  H2  UNL     1      12.818  15.402   3.456  1.00  0.00     0.210 HD
BRANCH   4   9
HETATM    9  C2  UNL     1      12.711  16.982  -0.693  1.00  0.00     0.077 C 
HETATM   10  C1  UNL     1      11.261  17.239  -1.026  1.00  0.00     0.013 C 
ENDBRANCH   4   9
ENDBRANCH   1   3
BRANCH   1  11
HETATM   11  C4  UNL     1       9.894  14.304   1.949  1.00  0.00     0.075 A 
HETATM   12  C5  UNL     1      10.151  13.712   3.139  1.00  0.00     0.056 A 
HETATM   13  C6  UNL     1       9.120  13.163   3.933  1.00  0.00     0.037 A 
HETATM   14 CL1  UNL     1       9.466  12.408   5.458  1.00  0.00    -0.084 Cl
HETATM   15  C7  UNL     1       7.816  13.227   3.493  1.00  0.00     0.049 A 
HETATM   16  C8  UNL     1       7.524  13.823   2.289  1.00  0.00     0.059 A 
HETATM   17 CL2  UNL     1       5.882  13.933   1.678  1.00  0.00    -0.082 Cl
HETATM   18  C9  UNL     1       8.559  14.346   1.545  1.00  0.00     0.084 A 
HETATM   19 CL3  UNL     1       8.195  15.102   0.016  1.00  0.00    -0.080 Cl
ENDBRANCH   1  11
TORSDOF 3
ENDMDL
