MODEL 1
REMARK VINA RESULT: -6.786489610      0.000      0.000
REMARK  3 active torsions:
REMARK  status: ('A' for Active; 'I' for Inactive)
REMARK    1  A    between atoms: C4_4  and  N1_5 
REMARK       I    between atoms: N1_5  and  C5_7 
REMARK    2  A    between atoms: C5_7  and  C6_9 
REMARK       I    between atoms: N2_13  and  C10_14 
REMARK       I    between atoms: C10_14  and  N3_16 
REMARK    3  A    between atoms: N3_16  and  C11_18 
ROOT
HETATM    1  C6  UNL     1      15.647 -12.131 -52.448  1.00  0.00     0.096 C 
HETATM    2  C7  UNL     1      16.872 -12.950 -52.120  1.00  0.00     0.017 C 
HETATM    3  C8  UNL     1      16.756 -14.400 -52.466  1.00  0.00     0.021 C 
HETATM    4  C9  UNL     1      15.685 -14.636 -53.537  1.00  0.00     0.127 C 
HETATM    5  N2  UNL     1      15.771 -13.501 -54.418  1.00  0.00    -0.333 N 
HETATM    6  C10 UNL     1      16.320 -13.621 -55.710  1.00  0.00     0.318 C 
HETATM    7  O2  UNL     1      16.363 -12.574 -56.445  1.00  0.00    -0.247 OA
HETATM    8  N3  UNL     1      16.830 -14.814 -56.263  1.00  0.00    -0.338 N 
ATOM      9  H3  UNL     1      16.815 -15.672 -55.712  1.00  0.00     0.164 HD
HETATM   10  C15 UNL     1      15.272 -12.240 -53.911  1.00  0.00     0.141 C 
ENDROOT
BRANCH   8  11
HETATM   11  C11 UNL     1      17.375 -14.834 -57.607  1.00  0.00     0.091 C 
HETATM   12  C12 UNL     1      18.889 -14.963 -57.605  1.00  0.00     0.062 C 
HETATM   13  C13 UNL     1      18.670 -16.474 -57.482  1.00  0.00     0.174 C 
HETATM   14  F1  UNL     1      19.512 -17.232 -58.250  1.00  0.00    -0.249 F 
HETATM   15  C14 UNL     1      17.329 -16.235 -58.183  1.00  0.00     0.062 C 
ENDBRANCH   8  11
BRANCH   1  16
HETATM   16  C5  UNL     1      16.005 -10.704 -52.205  1.00  0.00     0.223 C 
HETATM   17  N1  UNL     1      15.101  -9.701 -52.632  1.00  0.00    -0.356 N 
ATOM     18  H1  UNL     1      14.234  -9.978 -53.091  1.00  0.00     0.162 HD
HETATM   19  O1  UNL     1      17.067 -10.345 -51.643  1.00  0.00    -0.273 OA
BRANCH  17  20
HETATM   20  C4  UNL     1      15.373  -8.295 -52.434  1.00  0.00     0.088 A 
HETATM   21  C2  UNL     1      15.398  -7.422 -53.614  1.00  0.00     0.006 A 
HETATM   22  C1  UNL     1      16.264  -6.183 -53.672  1.00  0.00     0.012 C 
HETATM   23  C3  UNL     1      14.233  -7.362 -52.687  1.00  0.00     0.031 A 
ENDBRANCH  17  20
ENDBRANCH   1  16
TORSDOF 3
ENDMDL
MODEL 2
REMARK VINA RESULT: -6.666115350      3.505      8.776
REMARK  3 active torsions:
REMARK  status: ('A' for Active; 'I' for Inactive)
REMARK    1  A    between atoms: C4_4  and  N1_5 
REMARK       I    between atoms: N1_5  and  C5_7 
REMARK    2  A    between atoms: C5_7  and  C6_9 
REMARK       I    between atoms: N2_13  and  C10_14 
REMARK       I    between atoms: C10_14  and  N3_16 
REMARK    3  A    between atoms: N3_16  and  C11_18 
ROOT
HETATM    1  C6  UNL     1      16.978 -15.724 -58.146  1.00  0.00     0.096 C 
HETATM    2  C7  UNL     1      17.661 -14.422 -58.491  1.00  0.00     0.017 C 
HETATM    3  C8  UNL     1      16.787 -13.216 -58.368  1.00  0.00     0.021 C 
HETATM    4  C9  UNL     1      15.602 -13.475 -57.431  1.00  0.00     0.127 C 
HETATM    5  N2  UNL     1      16.118 -14.326 -56.391  1.00  0.00    -0.333 N 
HETATM    6  C10 UNL     1      16.343 -13.833 -55.091  1.00  0.00     0.318 C 
HETATM    7  O2  UNL     1      16.799 -14.643 -54.211  1.00  0.00    -0.247 OA
HETATM    8  N3  UNL     1      16.103 -12.506 -54.677  1.00  0.00    -0.338 N 
ATOM      9  H3  UNL     1      15.739 -11.828 -55.346  1.00  0.00     0.164 HD
HETATM   10  C15 UNL     1      16.395 -15.701 -56.749  1.00  0.00     0.141 C 
ENDROOT
BRANCH   8  11
HETATM   11  C11 UNL     1      16.367 -12.096 -53.312  1.00  0.00     0.091 C 
HETATM   12  C12 UNL     1      16.916 -10.681 -53.239  1.00  0.00     0.062 C 
HETATM   13  C13 UNL     1      15.458 -10.210 -53.284  1.00  0.00     0.174 C 
HETATM   14  F1  UNL     1      15.173  -9.174 -52.437  1.00  0.00    -0.249 F 
HETATM   15  C14 UNL     1      15.108 -11.564 -52.658  1.00  0.00     0.062 C 
ENDBRANCH   8  11
BRANCH   1  16
HETATM   16  C5  UNL     1      18.033 -16.778 -58.151  1.00  0.00     0.223 C 
HETATM   17  N1  UNL     1      17.631 -18.134 -58.069  1.00  0.00    -0.356 N 
ATOM     18  H1  UNL     1      16.637 -18.353 -58.009  1.00  0.00     0.162 HD
HETATM   19  O1  UNL     1      19.260 -16.527 -58.222  1.00  0.00    -0.273 OA
BRANCH  17  20
HETATM   20  C4  UNL     1      18.590 -19.215 -58.068  1.00  0.00     0.088 A 
HETATM   21  C2  UNL     1      18.083 -20.590 -58.151  1.00  0.00     0.006 A 
HETATM   22  C1  UNL     1      18.823 -21.752 -57.524  1.00  0.00     0.012 C 
HETATM   23  C3  UNL     1      18.724 -19.977 -59.347  1.00  0.00     0.031 A 
ENDBRANCH  17  20
ENDBRANCH   1  16
TORSDOF 3
ENDMDL
MODEL 3
REMARK VINA RESULT: -6.540616856      3.724      9.236
REMARK  3 active torsions:
REMARK  status: ('A' for Active; 'I' for Inactive)
REMARK    1  A    between atoms: C4_4  and  N1_5 
REMARK       I    between atoms: N1_5  and  C5_7 
REMARK    2  A    between atoms: C5_7  and  C6_9 
REMARK       I    between atoms: N2_13  and  C10_14 
REMARK       I    between atoms: C10_14  and  N3_16 
REMARK    3  A    between atoms: N3_16  and  C11_18 
ROOT
HETATM    1  C6  UNL     1      18.659 -17.023 -59.022  1.00  0.00     0.096 C 
HETATM    2  C7  UNL     1      19.529 -16.919 -57.791  1.00  0.00     0.017 C 
HETATM    3  C8  UNL     1      19.992 -15.533 -57.478  1.00  0.00     0.021 C 
HETATM    4  C9  UNL     1      19.080 -14.479 -58.116  1.00  0.00     0.127 C 
HETATM    5  N2  UNL     1      17.752 -15.027 -58.037  1.00  0.00    -0.333 N 
HETATM    6  C10 UNL     1      16.805 -14.513 -57.130  1.00  0.00     0.318 C 
HETATM    7  O2  UNL     1      15.640 -15.042 -57.112  1.00  0.00    -0.247 OA
HETATM    8  N3  UNL     1      17.040 -13.453 -56.230  1.00  0.00    -0.338 N 
ATOM      9  H3  UNL     1      17.955 -13.003 -56.211  1.00  0.00     0.164 HD
HETATM   10  C15 UNL     1      17.442 -16.126 -58.928  1.00  0.00     0.141 C 
ENDROOT
BRANCH   8  11
HETATM   11  C11 UNL     1      15.997 -12.996 -55.333  1.00  0.00     0.091 C 
HETATM   12  C12 UNL     1      15.883 -13.872 -54.097  1.00  0.00     0.062 C 
HETATM   13  C13 UNL     1      17.011 -13.023 -53.502  1.00  0.00     0.174 C 
HETATM   14  F1  UNL     1      16.842 -12.704 -52.182  1.00  0.00    -0.249 F 
HETATM   15  C14 UNL     1      16.514 -11.902 -54.422  1.00  0.00     0.062 C 
ENDBRANCH   8  11
BRANCH   1  16
HETATM   16  C5  UNL     1      18.153 -18.424 -59.075  1.00  0.00     0.223 C 
HETATM   17  N1  UNL     1      18.794 -19.402 -58.277  1.00  0.00    -0.356 N 
ATOM     18  H1  UNL     1      19.581 -19.125 -57.690  1.00  0.00     0.162 HD
HETATM   19  O1  UNL     1      17.188 -18.782 -59.791  1.00  0.00    -0.273 OA
BRANCH  17  20
HETATM   20  C4  UNL     1      18.365 -20.782 -58.271  1.00  0.00     0.088 A 
HETATM   21  C2  UNL     1      18.986 -21.696 -57.304  1.00  0.00     0.006 A 
HETATM   22  C1  UNL     1      19.148 -23.173 -57.592  1.00  0.00     0.012 C 
HETATM   23  C3  UNL     1      17.592 -21.226 -57.070  1.00  0.00     0.031 A 
ENDBRANCH  17  20
ENDBRANCH   1  16
TORSDOF 3
ENDMDL
MODEL 4
REMARK VINA RESULT: -6.240744743      1.526      1.742
REMARK  3 active torsions:
REMARK  status: ('A' for Active; 'I' for Inactive)
REMARK    1  A    between atoms: C4_4  and  N1_5 
REMARK       I    between atoms: N1_5  and  C5_7 
REMARK    2  A    between atoms: C5_7  and  C6_9 
REMARK       I    between atoms: N2_13  and  C10_14 
REMARK       I    between atoms: C10_14  and  N3_16 
REMARK    3  A    between atoms: N3_16  and  C11_18 
ROOT
HETATM    1  C6  UNL     1      15.659 -12.164 -52.449  1.00  0.00     0.096 C 
HETATM    2  C7  UNL     1      16.901 -12.962 -52.130  1.00  0.00     0.017 C 
HETATM    3  C8  UNL     1      16.804 -14.415 -52.467  1.00  0.00     0.021 C 
HETATM    4  C9  UNL     1      15.727 -14.675 -53.526  1.00  0.00     0.127 C 
HETATM    5  N2  UNL     1      15.785 -13.543 -54.413  1.00  0.00    -0.333 N 
HETATM    6  C10 UNL     1      16.322 -13.662 -55.710  1.00  0.00     0.318 C 
HETATM    7  O2  UNL     1      16.340 -12.618 -56.451  1.00  0.00    -0.247 OA
HETATM    8  N3  UNL     1      16.846 -14.848 -56.262  1.00  0.00    -0.338 N 
ATOM      9  H3  UNL     1      16.851 -15.704 -55.707  1.00  0.00     0.164 HD
HETATM   10  C15 UNL     1      15.271 -12.287 -53.908  1.00  0.00     0.141 C 
ENDROOT
BRANCH   8  11
HETATM   11  C11 UNL     1      17.377 -14.868 -57.611  1.00  0.00     0.091 C 
HETATM   12  C12 UNL     1      18.893 -14.972 -57.625  1.00  0.00     0.062 C 
HETATM   13  C13 UNL     1      18.699 -16.486 -57.492  1.00  0.00     0.174 C 
HETATM   14  F1  UNL     1      19.545 -17.235 -58.264  1.00  0.00    -0.249 F 
HETATM   15  C14 UNL     1      17.347 -16.272 -58.180  1.00  0.00     0.062 C 
ENDBRANCH   8  11
BRANCH   1  16
HETATM   16  C5  UNL     1      15.997 -10.730 -52.218  1.00  0.00     0.223 C 
HETATM   17  N1  UNL     1      17.116 -10.185 -52.892  1.00  0.00    -0.356 N 
ATOM     18  H1  UNL     1      17.659 -10.783 -53.515  1.00  0.00     0.162 HD
HETATM   19  O1  UNL     1      15.342  -9.982 -51.455  1.00  0.00    -0.273 OA
BRANCH  17  20
HETATM   20  C4  UNL     1      17.510  -8.805 -52.723  1.00  0.00     0.088 A 
HETATM   21  C2  UNL     1      18.548  -8.499 -51.729  1.00  0.00     0.006 A 
HETATM   22  C1  UNL     1      18.585  -7.174 -50.998  1.00  0.00     0.012 C 
HETATM   23  C3  UNL     1      18.890  -8.453 -53.178  1.00  0.00     0.031 A 
ENDBRANCH  17  20
ENDBRANCH   1  16
TORSDOF 3
ENDMDL
MODEL 5
REMARK VINA RESULT: -6.215611235      1.007      1.266
REMARK  3 active torsions:
REMARK  status: ('A' for Active; 'I' for Inactive)
REMARK    1  A    between atoms: C4_4  and  N1_5 
REMARK       I    between atoms: N1_5  and  C5_7 
REMARK    2  A    between atoms: C5_7  and  C6_9 
REMARK       I    between atoms: N2_13  and  C10_14 
REMARK       I    between atoms: C10_14  and  N3_16 
REMARK    3  A    between atoms: N3_16  and  C11_18 
ROOT
HETATM    1  C6  UNL     1      15.714 -12.042 -52.608  1.00  0.00     0.096 C 
HETATM    2  C7  UNL     1      16.981 -12.794 -52.275  1.00  0.00     0.017 C 
HETATM    3  C8  UNL     1      16.914 -14.263 -52.543  1.00  0.00     0.021 C 
HETATM    4  C9  UNL     1      15.825 -14.598 -53.567  1.00  0.00     0.127 C 
HETATM    5  N2  UNL     1      15.839 -13.509 -54.508  1.00  0.00    -0.333 N 
HETATM    6  C10 UNL     1      16.356 -13.675 -55.807  1.00  0.00     0.318 C 
HETATM    7  O2  UNL     1      16.335 -12.668 -56.597  1.00  0.00    -0.247 OA
HETATM    8  N3  UNL     1      16.899 -14.874 -56.314  1.00  0.00    -0.338 N 
ATOM      9  H3  UNL     1      16.935 -15.702 -55.719  1.00  0.00     0.164 HD
HETATM   10  C15 UNL     1      15.303 -12.243 -54.052  1.00  0.00     0.141 C 
ENDROOT
BRANCH   8  11
HETATM   11  C11 UNL     1      17.407 -14.944 -57.670  1.00  0.00     0.091 C 
HETATM   12  C12 UNL     1      18.924 -15.015 -57.707  1.00  0.00     0.062 C 
HETATM   13  C13 UNL     1      18.768 -16.525 -57.500  1.00  0.00     0.174 C 
HETATM   14  F1  UNL     1      19.618 -17.289 -58.254  1.00  0.00    -0.249 F 
HETATM   15  C14 UNL     1      17.400 -16.374 -58.173  1.00  0.00     0.062 C 
ENDBRANCH   8  11
BRANCH   1  16
HETATM   16  C5  UNL     1      16.020 -10.591 -52.451  1.00  0.00     0.223 C 
HETATM   17  N1  UNL     1      15.062  -9.767 -51.811  1.00  0.00    -0.356 N 
ATOM     18  H1  UNL     1      14.193 -10.184 -51.478  1.00  0.00     0.162 HD
HETATM   19  O1  UNL     1      17.082 -10.062 -52.856  1.00  0.00    -0.273 OA
BRANCH  17  20
HETATM   20  C4  UNL     1      15.282  -8.352 -51.619  1.00  0.00     0.088 A 
HETATM   21  C2  UNL     1      14.369  -7.625 -50.727  1.00  0.00     0.006 A 
HETATM   22  C1  UNL     1      14.054  -6.159 -50.932  1.00  0.00     0.012 C 
HETATM   23  C3  UNL     1      15.748  -7.937 -50.261  1.00  0.00     0.031 A 
ENDBRANCH  17  20
ENDBRANCH   1  16
TORSDOF 3
ENDMDL
