MODEL 1
REMARK VINA RESULT: -9.540773317      0.000      0.000
REMARK  5 active torsions:
REMARK  status: ('A' for Active; 'I' for Inactive)
REMARK    1  A    between atoms: C2_2  and  N1_3 
REMARK    2  A    between atoms: N2_6  and  C5_7 
REMARK    3  A    between atoms: C9_14  and  N4_15 
REMARK    4  A    between atoms: N5_19  and  O1_21 
REMARK    5  A    between atoms: O1_21  and  C13_22 
ROOT
HETATM    1  C5  UNL     1      38.333  34.895  52.411  1.00  0.00     0.683 A 
HETATM    2  N3  UNL     1      37.739  35.724  53.287  1.00  0.00    -0.181 N 
ATOM      3  H3  UNL     1      36.740  35.605  53.459  1.00  0.00     0.185 HD
HETATM    4  C6  UNL     1      38.384  36.700  53.948  1.00  0.00     0.126 A 
HETATM    5  S1  UNL     1      37.611  37.695  55.016  1.00  0.00    -0.059 SA
HETATM    6  C7  UNL     1      39.723  36.874  53.730  1.00  0.00     0.021 A 
HETATM    7  C8  UNL     1      40.458  37.945  54.443  1.00  0.00     0.056 C 
HETATM    8  C9  UNL     1      40.365  36.046  52.840  1.00  0.00     0.128 A 
HETATM    9  N6  UNL     1      39.662  35.078  52.202  1.00  0.00    -0.176 N 
ATOM     10  H6  UNL     1      40.147  34.467  51.544  1.00  0.00     0.186 HD
ENDROOT
BRANCH   8  11
HETATM   11  N4  UNL     1      41.751  36.236  52.622  1.00  0.00    -0.366 N 
HETATM   12  C10 UNL     1      42.712  35.382  53.295  1.00  0.00     0.130 C 
HETATM   13  C11 UNL     1      44.013  35.396  52.558  1.00  0.00     0.074 C 
HETATM   14  C12 UNL     1      44.525  36.790  52.535  1.00  0.00     0.013 C 
HETATM   15  N5  UNL     1      45.788  37.042  52.623  1.00  0.00    -0.274 N 
HETATM   16  C20 UNL     1      43.521  37.898  52.408  1.00  0.00     0.074 C 
ATOM     17  H5  UNL     1      46.132  38.003  52.606  1.00  0.00     0.193 HD
HETATM   18  C21 UNL     1      42.293  37.268  51.741  1.00  0.00     0.130 C 
BRANCH  15  19
HETATM   19  O1  UNL     1      46.654  35.993  52.738  1.00  0.00    -0.275 OA
BRANCH  19  20
HETATM   20  C13 UNL     1      48.088  36.138  52.606  1.00  0.00     0.153 C 
HETATM   21  C14 UNL     1      48.224  36.290  51.093  1.00  0.00     0.045 C 
HETATM   22  C15 UNL     1      49.728  36.378  50.654  1.00  0.00     0.082 C 
HETATM   23  C16 UNL     1      50.474  35.890  51.734  1.00  0.00    -0.183 C 
HETATM   24  C17 UNL     1      51.172  35.399  52.846  1.00  0.00     0.080 C 
HETATM   25  C18 UNL     1      50.089  35.140  53.952  1.00  0.00     0.014 C 
HETATM   26  C19 UNL     1      48.684  35.066  53.346  1.00  0.00     0.035 C 
ENDBRANCH  19  20
ENDBRANCH  15  19
ENDBRANCH   8  11
BRANCH   1  27
HETATM   27  N2  UNL     1      37.619  33.869  51.726  1.00  0.00    -0.214 N 
HETATM   28  C4  UNL     1      38.291  33.121  50.714  1.00  0.00     0.171 C 
HETATM   29  C3  UNL     1      37.432  32.582  49.623  1.00  0.00     0.292 C 
HETATM   30  N1  UNL     1      36.032  32.540  49.904  1.00  0.00     0.091 N 
HETATM   31  C23 UNL     1      35.767  32.376  51.319  1.00  0.00     0.292 C 
HETATM   32  C22 UNL     1      36.255  33.605  52.056  1.00  0.00     0.171 C 
BRANCH  30  33
HETATM   33  C2  UNL     1      35.330  33.662  49.335  1.00  0.00     0.268 C 
HETATM   34  C1  UNL     1      36.046  34.191  48.135  1.00  0.00     0.037 C 
ENDBRANCH  30  33
ENDBRANCH   1  27
TORSDOF 5
ENDMDL
MODEL 2
REMARK VINA RESULT: -9.453629725      1.170      1.994
REMARK  5 active torsions:
REMARK  status: ('A' for Active; 'I' for Inactive)
REMARK    1  A    between atoms: C2_2  and  N1_3 
REMARK    2  A    between atoms: N2_6  and  C5_7 
REMARK    3  A    between atoms: C9_14  and  N4_15 
REMARK    4  A    between atoms: N5_19  and  O1_21 
REMARK    5  A    between atoms: O1_21  and  C13_22 
ROOT
HETATM    1  C5  UNL     1      38.490  35.274  51.959  1.00  0.00     0.683 A 
HETATM    2  N3  UNL     1      37.913  35.534  53.145  1.00  0.00    -0.181 N 
ATOM      3  H3  UNL     1      37.002  35.118  53.338  1.00  0.00     0.185 HD
HETATM    4  C6  UNL     1      38.468  36.311  54.092  1.00  0.00     0.126 A 
HETATM    5  S1  UNL     1      37.722  36.602  55.535  1.00  0.00    -0.059 SA
HETATM    6  C7  UNL     1      39.689  36.878  53.850  1.00  0.00     0.021 A 
HETATM    7  C8  UNL     1      40.322  37.741  54.875  1.00  0.00     0.056 C 
HETATM    8  C9  UNL     1      40.310  36.635  52.647  1.00  0.00     0.128 A 
HETATM    9  N6  UNL     1      39.701  35.842  51.731  1.00  0.00    -0.176 N 
ATOM     10  H6  UNL     1      40.169  35.666  50.841  1.00  0.00     0.186 HD
ENDROOT
BRANCH   8  11
HETATM   11  N4  UNL     1      41.574  37.226  52.409  1.00  0.00    -0.366 N 
HETATM   12  C10 UNL     1      42.713  36.389  52.085  1.00  0.00     0.130 C 
HETATM   13  C11 UNL     1      43.759  37.197  51.386  1.00  0.00     0.074 C 
HETATM   14  C12 UNL     1      44.194  38.291  52.293  1.00  0.00     0.013 C 
HETATM   15  N5  UNL     1      45.422  38.687  52.326  1.00  0.00    -0.274 N 
HETATM   16  C20 UNL     1      43.153  38.917  53.175  1.00  0.00     0.074 C 
ATOM     17  H5  UNL     1      45.712  39.438  52.952  1.00  0.00     0.193 HD
HETATM   18  C21 UNL     1      41.813  38.666  52.474  1.00  0.00     0.130 C 
BRANCH  15  19
HETATM   19  O1  UNL     1      46.324  38.077  51.502  1.00  0.00    -0.275 OA
BRANCH  19  20
HETATM   20  C13 UNL     1      47.331  37.156  51.983  1.00  0.00     0.153 C 
HETATM   21  C14 UNL     1      47.339  37.490  53.473  1.00  0.00     0.045 C 
HETATM   22  C15 UNL     1      48.437  36.673  54.242  1.00  0.00     0.082 C 
HETATM   23  C16 UNL     1      49.321  36.201  53.265  1.00  0.00    -0.183 C 
HETATM   24  C17 UNL     1      50.171  35.748  52.246  1.00  0.00     0.080 C 
HETATM   25  C18 UNL     1      49.505  36.202  50.899  1.00  0.00     0.014 C 
HETATM   26  C19 UNL     1      48.475  37.311  51.136  1.00  0.00     0.035 C 
ENDBRANCH  19  20
ENDBRANCH  15  19
ENDBRANCH   8  11
BRANCH   1  27
HETATM   27  N2  UNL     1      37.873  34.446  50.976  1.00  0.00    -0.214 N 
HETATM   28  C4  UNL     1      36.835  34.995  50.166  1.00  0.00     0.171 C 
HETATM   29  C3  UNL     1      35.814  34.029  49.672  1.00  0.00     0.292 C 
HETATM   30  N1  UNL     1      36.187  32.651  49.735  1.00  0.00     0.091 N 
HETATM   31  C23 UNL     1      37.620  32.471  49.612  1.00  0.00     0.292 C 
HETATM   32  C22 UNL     1      38.297  33.092  50.814  1.00  0.00     0.171 C 
BRANCH  30  33
HETATM   33  C2  UNL     1      35.643  31.992  50.894  1.00  0.00     0.268 C 
HETATM   34  C1  UNL     1      34.148  31.998  50.863  1.00  0.00     0.037 C 
ENDBRANCH  30  33
ENDBRANCH   1  27
TORSDOF 5
ENDMDL
MODEL 3
REMARK VINA RESULT: -9.397669735      1.289      2.095
REMARK  5 active torsions:
REMARK  status: ('A' for Active; 'I' for Inactive)
REMARK    1  A    between atoms: C2_2  and  N1_3 
REMARK    2  A    between atoms: N2_6  and  C5_7 
REMARK    3  A    between atoms: C9_14  and  N4_15 
REMARK    4  A    between atoms: N5_19  and  O1_21 
REMARK    5  A    between atoms: O1_21  and  C13_22 
ROOT
HETATM    1  C5  UNL     1      38.125  35.908  52.567  1.00  0.00     0.683 A 
HETATM    2  N3  UNL     1      37.637  36.290  53.760  1.00  0.00    -0.181 N 
ATOM      3  H3  UNL     1      36.701  35.979  54.017  1.00  0.00     0.185 HD
HETATM    4  C6  UNL     1      38.312  37.058  54.633  1.00  0.00     0.126 A 
HETATM    5  S1  UNL     1      37.672  37.502  56.089  1.00  0.00    -0.059 SA
HETATM    6  C7  UNL     1      39.570  37.485  54.304  1.00  0.00     0.021 A 
HETATM    7  C8  UNL     1      40.335  38.334  55.246  1.00  0.00     0.056 C 
HETATM    8  C9  UNL     1      40.103  37.115  53.092  1.00  0.00     0.128 A 
HETATM    9  N6  UNL     1      39.374  36.338  52.252  1.00  0.00    -0.176 N 
ATOM     10  H6  UNL     1      39.777  36.067  51.354  1.00  0.00     0.186 HD
ENDROOT
BRANCH   8  11
HETATM   11  N4  UNL     1      41.405  37.562  52.762  1.00  0.00    -0.366 N 
HETATM   12  C10 UNL     1      42.434  36.598  52.420  1.00  0.00     0.130 C 
HETATM   13  C11 UNL     1      43.516  37.264  51.632  1.00  0.00     0.074 C 
HETATM   14  C12 UNL     1      44.109  38.342  52.465  1.00  0.00     0.013 C 
HETATM   15  N5  UNL     1      45.371  38.610  52.417  1.00  0.00    -0.274 N 
HETATM   16  C20 UNL     1      43.188  39.109  53.369  1.00  0.00     0.074 C 
ATOM     17  H5  UNL     1      45.770  39.352  52.992  1.00  0.00     0.193 HD
HETATM   18  C21 UNL     1      41.792  38.970  52.750  1.00  0.00     0.130 C 
BRANCH  15  19
HETATM   19  O1  UNL     1      46.159  37.877  51.577  1.00  0.00    -0.275 OA
BRANCH  19  20
HETATM   20  C13 UNL     1      47.238  37.034  52.047  1.00  0.00     0.153 C 
HETATM   21  C14 UNL     1      47.289  37.425  53.521  1.00  0.00     0.045 C 
HETATM   22  C15 UNL     1      48.464  36.704  54.271  1.00  0.00     0.082 C 
HETATM   23  C16 UNL     1      49.333  36.245  53.273  1.00  0.00    -0.183 C 
HETATM   24  C17 UNL     1      50.165  35.802  52.236  1.00  0.00     0.080 C 
HETATM   25  C18 UNL     1      49.417  36.165  50.903  1.00  0.00     0.014 C 
HETATM   26  C19 UNL     1      48.335  37.221  51.145  1.00  0.00     0.035 C 
ENDBRANCH  19  20
ENDBRANCH  15  19
ENDBRANCH   8  11
BRANCH   1  27
HETATM   27  N2  UNL     1      37.382  35.094  51.664  1.00  0.00    -0.214 N 
HETATM   28  C4  UNL     1      36.706  33.944  52.171  1.00  0.00     0.171 C 
HETATM   29  C3  UNL     1      36.530  32.817  51.213  1.00  0.00     0.292 C 
HETATM   30  N1  UNL     1      36.701  33.147  49.834  1.00  0.00     0.091 N 
HETATM   31  C23 UNL     1      36.350  34.525  49.559  1.00  0.00     0.292 C 
HETATM   32  C22 UNL     1      37.322  35.433  50.278  1.00  0.00     0.171 C 
BRANCH  30  33
HETATM   33  C2  UNL     1      38.014  32.803  49.351  1.00  0.00     0.268 C 
HETATM   34  C1  UNL     1      38.647  31.758  50.214  1.00  0.00     0.037 C 
ENDBRANCH  30  33
ENDBRANCH   1  27
TORSDOF 5
ENDMDL
MODEL 4
REMARK VINA RESULT: -9.388825068      1.084      1.901
REMARK  5 active torsions:
REMARK  status: ('A' for Active; 'I' for Inactive)
REMARK    1  A    between atoms: C2_2  and  N1_3 
REMARK    2  A    between atoms: N2_6  and  C5_7 
REMARK    3  A    between atoms: C9_14  and  N4_15 
REMARK    4  A    between atoms: N5_19  and  O1_21 
REMARK    5  A    between atoms: O1_21  and  C13_22 
ROOT
HETATM    1  C5  UNL     1      38.031  36.323  52.051  1.00  0.00     0.683 A 
HETATM    2  N3  UNL     1      37.548  37.343  52.781  1.00  0.00    -0.181 N 
ATOM      3  H3  UNL     1      36.535  37.437  52.863  1.00  0.00     0.185 HD
HETATM    4  C6  UNL     1      38.321  38.246  53.408  1.00  0.00     0.126 A 
HETATM    5  S1  UNL     1      37.681  39.484  54.294  1.00  0.00    -0.059 SA
HETATM    6  C7  UNL     1      39.681  38.136  53.308  1.00  0.00     0.021 A 
HETATM    7  C8  UNL     1      40.556  39.120  53.986  1.00  0.00     0.056 C 
HETATM    8  C9  UNL     1      40.212  37.105  52.569  1.00  0.00     0.128 A 
HETATM    9  N6  UNL     1      39.382  36.224  51.959  1.00  0.00    -0.176 N 
ATOM     10  H6  UNL     1      39.785  35.461  51.413  1.00  0.00     0.186 HD
ENDROOT
BRANCH   8  11
HETATM   11  N4  UNL     1      41.621  37.001  52.473  1.00  0.00    -0.366 N 
HETATM   12  C10 UNL     1      42.321  35.968  53.213  1.00  0.00     0.130 C 
HETATM   13  C11 UNL     1      43.655  35.708  52.590  1.00  0.00     0.074 C 
HETATM   14  C12 UNL     1      44.447  36.965  52.631  1.00  0.00     0.013 C 
HETATM   15  N5  UNL     1      45.722  36.949  52.831  1.00  0.00    -0.274 N 
HETATM   16  C20 UNL     1      43.709  38.257  52.435  1.00  0.00     0.074 C 
ATOM     17  H5  UNL     1      46.258  37.816  52.857  1.00  0.00     0.193 HD
HETATM   18  C21 UNL     1      42.440  37.894  51.657  1.00  0.00     0.130 C 
BRANCH  15  19
HETATM   19  O1  UNL     1      46.337  35.742  53.005  1.00  0.00    -0.275 OA
BRANCH  19  20
HETATM   20  C13 UNL     1      47.712  35.498  52.624  1.00  0.00     0.153 C 
HETATM   21  C14 UNL     1      48.356  35.277  53.990  1.00  0.00     0.045 C 
HETATM   22  C15 UNL     1      49.907  35.072  53.872  1.00  0.00     0.082 C 
HETATM   23  C16 UNL     1      50.264  35.553  52.606  1.00  0.00    -0.183 C 
HETATM   24  C17 UNL     1      50.565  36.042  51.327  1.00  0.00     0.080 C 
HETATM   25  C18 UNL     1      49.186  36.416  50.675  1.00  0.00     0.014 C 
HETATM   26  C19 UNL     1      48.091  36.557  51.737  1.00  0.00     0.035 C 
ENDBRANCH  19  20
ENDBRANCH  15  19
ENDBRANCH   8  11
BRANCH   1  27
HETATM   27  N2  UNL     1      37.182  35.382  51.398  1.00  0.00    -0.214 N 
HETATM   28  C4  UNL     1      36.724  34.245  52.129  1.00  0.00     0.171 C 
HETATM   29  C3  UNL     1      36.441  33.024  51.325  1.00  0.00     0.292 C 
HETATM   30  N1  UNL     1      36.290  33.233  49.920  1.00  0.00     0.091 N 
HETATM   31  C23 UNL     1      35.778  34.554  49.619  1.00  0.00     0.292 C 
HETATM   32  C22 UNL     1      36.804  35.585  50.036  1.00  0.00     0.171 C 
BRANCH  30  33
HETATM   33  C2  UNL     1      37.494  32.926  49.191  1.00  0.00     0.268 C 
HETATM   34  C1  UNL     1      38.336  31.941  49.937  1.00  0.00     0.037 C 
ENDBRANCH  30  33
ENDBRANCH   1  27
TORSDOF 5
ENDMDL
MODEL 5
REMARK VINA RESULT: -9.387633482      0.968      1.445
REMARK  5 active torsions:
REMARK  status: ('A' for Active; 'I' for Inactive)
REMARK    1  A    between atoms: C2_2  and  N1_3 
REMARK    2  A    between atoms: N2_6  and  C5_7 
REMARK    3  A    between atoms: C9_14  and  N4_15 
REMARK    4  A    between atoms: N5_19  and  O1_21 
REMARK    5  A    between atoms: O1_21  and  C13_22 
ROOT
HETATM    1  C5  UNL     1      38.003  36.041  52.453  1.00  0.00     0.683 A 
HETATM    2  N3  UNL     1      37.532  36.683  53.535  1.00  0.00    -0.181 N 
ATOM      3  H3  UNL     1      36.542  36.586  53.758  1.00  0.00     0.185 HD
HETATM    4  C6  UNL     1      38.291  37.447  54.341  1.00  0.00     0.126 A 
HETATM    5  S1  UNL     1      37.668  38.217  55.662  1.00  0.00    -0.059 SA
HETATM    6  C7  UNL     1      39.622  37.588  54.057  1.00  0.00     0.021 A 
HETATM    7  C8  UNL     1      40.480  38.426  54.926  1.00  0.00     0.056 C 
HETATM    8  C9  UNL     1      40.140  36.947  52.957  1.00  0.00     0.128 A 
HETATM    9  N6  UNL     1      39.325  36.189  52.181  1.00  0.00    -0.176 N 
ATOM     10  H6  UNL     1      39.718  35.716  51.367  1.00  0.00     0.186 HD
ENDROOT
BRANCH   8  11
HETATM   11  N4  UNL     1      41.518  37.100  52.673  1.00  0.00    -0.366 N 
HETATM   12  C10 UNL     1      42.428  35.991  52.888  1.00  0.00     0.130 C 
HETATM   13  C11 UNL     1      43.665  36.178  52.069  1.00  0.00     0.074 C 
HETATM   14  C12 UNL     1      44.322  37.443  52.492  1.00  0.00     0.013 C 
HETATM   15  N5  UNL     1      45.608  37.551  52.528  1.00  0.00    -0.274 N 
HETATM   16  C20 UNL     1      43.436  38.591  52.879  1.00  0.00     0.074 C 
ATOM     17  H5  UNL     1      46.051  38.423  52.819  1.00  0.00     0.193 HD
HETATM   18  C21 UNL     1      42.102  38.341  52.167  1.00  0.00     0.130 C 
BRANCH  15  19
HETATM   19  O1  UNL     1      46.362  36.472  52.166  1.00  0.00    -0.275 OA
BRANCH  19  20
HETATM   20  C13 UNL     1      47.791  36.404  52.380  1.00  0.00     0.153 C 
HETATM   21  C14 UNL     1      48.301  36.459  50.942  1.00  0.00     0.045 C 
HETATM   22  C15 UNL     1      49.862  36.310  50.876  1.00  0.00     0.082 C 
HETATM   23  C16 UNL     1      50.251  35.774  52.111  1.00  0.00    -0.183 C 
HETATM   24  C17 UNL     1      50.585  35.245  53.364  1.00  0.00     0.080 C 
HETATM   25  C18 UNL     1      49.245  35.199  54.182  1.00  0.00     0.014 C 
HETATM   26  C19 UNL     1      48.028  35.296  53.257  1.00  0.00     0.035 C 
ENDBRANCH  19  20
ENDBRANCH  15  19
ENDBRANCH   8  11
BRANCH   1  27
HETATM   27  N2  UNL     1      37.170  35.239  51.618  1.00  0.00    -0.214 N 
HETATM   28  C4  UNL     1      36.497  34.119  52.191  1.00  0.00     0.171 C 
HETATM   29  C3  UNL     1      36.216  32.986  51.266  1.00  0.00     0.292 C 
HETATM   30  N1  UNL     1      36.295  33.293  49.873  1.00  0.00     0.091 N 
HETATM   31  C23 UNL     1      35.968  34.678  49.603  1.00  0.00     0.292 C 
HETATM   32  C22 UNL     1      37.020  35.563  50.236  1.00  0.00     0.171 C 
BRANCH  30  33
HETATM   33  C2  UNL     1      37.557  32.900  49.301  1.00  0.00     0.268 C 
HETATM   34  C1  UNL     1      38.208  31.831  50.119  1.00  0.00     0.037 C 
ENDBRANCH  30  33
ENDBRANCH   1  27
TORSDOF 5
ENDMDL
