MODEL 1
REMARK VINA RESULT: -4.522793456      0.000      0.000
REMARK  4 active torsions:
REMARK  status: ('A' for Active; 'I' for Inactive)
REMARK    1  A    between atoms: N1_1  and  C1_4 
REMARK    2  A    between atoms: C2_7  and  S1_8 
REMARK    3  A    between atoms: S1_8  and  N3_9 
REMARK    4  A    between atoms: C3_16  and  N5_17 
ROOT
HETATM    1  C1  UNL     1       6.882  36.527  10.733  1.00  0.00     0.692 A 
HETATM    2  N2  UNL     1       7.320  37.228   9.650  1.00  0.00    -0.164 N 
ATOM      3  H2  UNL     1       6.715  37.308   8.833  1.00  0.00     0.186 HD
HETATM    4  C2  UNL     1       8.521  37.816   9.627  1.00  0.00     0.252 A 
HETATM    5  N4  UNL     1       9.296  37.690  10.720  1.00  0.00    -0.164 N 
ATOM      6  H4  UNL     1      10.217  38.128  10.726  1.00  0.00     0.186 HD
HETATM    7  C3  UNL     1       8.888  36.996  11.818  1.00  0.00     0.692 A 
HETATM    8  N6  UNL     1       7.662  36.414  11.806  1.00  0.00    -0.023 N 
ATOM      9  H6  UNL     1       7.338  35.889  12.618  1.00  0.00     0.203 HD
ENDROOT
BRANCH   4  10
HETATM   10  S1  UNL     1       9.084  38.723   8.223  1.00  0.00     0.289 S 
HETATM   11  O1  UNL     1       7.943  38.995   7.287  1.00  0.00    -0.198 OA
HETATM   12  O2  UNL     1      10.079  37.880   7.434  1.00  0.00    -0.198 OA
BRANCH  10  13
HETATM   13  N3  UNL     1       9.873  40.166   8.657  1.00  0.00    -0.322 N 
ATOM     14  H32 UNL     1       9.523  41.089   8.399  1.00  0.00     0.169 HD
ATOM     15  H31 UNL     1      10.722  39.998   9.198  1.00  0.00     0.169 HD
ENDBRANCH  10  13
ENDBRANCH   4  10
BRANCH   1  16
HETATM   16  N1  UNL     1       5.724  35.958  10.761  1.00  0.00    -0.234 N 
ATOM     17  H12 UNL     1       5.652  34.998  10.425  1.00  0.00     0.174 HD
ATOM     18  H11 UNL     1       4.892  36.437  11.104  1.00  0.00     0.174 HD
ENDBRANCH   1  16
BRANCH   7  19
HETATM   19  N5  UNL     1       9.593  36.859  12.864  1.00  0.00    -0.234 N 
ATOM     20  H52 UNL     1      10.574  36.607  12.743  1.00  0.00     0.174 HD
ATOM     21  H51 UNL     1       9.231  36.987  13.809  1.00  0.00     0.174 HD
ENDBRANCH   7  19
TORSDOF 4
ENDMDL
MODEL 2
REMARK VINA RESULT: -4.514101674      0.029      2.269
REMARK  4 active torsions:
REMARK  status: ('A' for Active; 'I' for Inactive)
REMARK    1  A    between atoms: N1_1  and  C1_4 
REMARK    2  A    between atoms: C2_7  and  S1_8 
REMARK    3  A    between atoms: S1_8  and  N3_9 
REMARK    4  A    between atoms: C3_16  and  N5_17 
ROOT
HETATM    1  C1  UNL     1       8.902  36.992  11.818  1.00  0.00     0.692 A 
HETATM    2  N2  UNL     1       9.315  37.691  10.723  1.00  0.00    -0.164 N 
ATOM      3  H2  UNL     1      10.234  38.134  10.736  1.00  0.00     0.186 HD
HETATM    4  C2  UNL     1       8.551  37.815   9.633  1.00  0.00     0.252 A 
HETATM    5  N4  UNL     1       7.344  37.221   9.650  1.00  0.00    -0.164 N 
ATOM      6  H4  UNL     1       6.742  37.302   8.830  1.00  0.00     0.186 HD
HETATM    7  C3  UNL     1       6.900  36.516  10.727  1.00  0.00     0.692 A 
HETATM    8  N6  UNL     1       7.704  36.411  11.816  1.00  0.00    -0.023 N 
ATOM      9  H6  UNL     1       7.390  35.888  12.633  1.00  0.00     0.203 HD
ENDROOT
BRANCH   4  10
HETATM   10  S1  UNL     1       9.091  38.720   8.219  1.00  0.00     0.289 S 
HETATM   11  O1  UNL     1       7.939  38.978   7.293  1.00  0.00    -0.198 OA
HETATM   12  O2  UNL     1      10.085  37.883   7.424  1.00  0.00    -0.198 OA
BRANCH  10  13
HETATM   13  N3  UNL     1       9.871  40.172   8.638  1.00  0.00    -0.322 N 
ATOM     14  H32 UNL     1       9.754  40.624   9.546  1.00  0.00     0.169 HD
ATOM     15  H31 UNL     1      10.460  40.529   7.886  1.00  0.00     0.169 HD
ENDBRANCH  10  13
ENDBRANCH   4  10
BRANCH   1  16
HETATM   16  N1  UNL     1       9.635  36.870  12.872  1.00  0.00    -0.234 N 
ATOM     17  H12 UNL     1      10.646  36.954  12.767  1.00  0.00     0.174 HD
ATOM     18  H11 UNL     1       9.236  36.695  13.794  1.00  0.00     0.174 HD
ENDBRANCH   1  16
BRANCH   7  19
HETATM   19  N5  UNL     1       5.769  35.945  10.774  1.00  0.00    -0.234 N 
ATOM     20  H52 UNL     1       5.394  35.565   9.904  1.00  0.00     0.174 HD
ATOM     21  H51 UNL     1       5.221  35.847  11.629  1.00  0.00     0.174 HD
ENDBRANCH   7  19
TORSDOF 4
ENDMDL
MODEL 3
REMARK VINA RESULT: -4.444924465      1.771      2.262
REMARK  4 active torsions:
REMARK  status: ('A' for Active; 'I' for Inactive)
REMARK    1  A    between atoms: N1_1  and  C1_4 
REMARK    2  A    between atoms: C2_7  and  S1_8 
REMARK    3  A    between atoms: S1_8  and  N3_9 
REMARK    4  A    between atoms: C3_16  and  N5_17 
ROOT
HETATM    1  C1  UNL     1       4.627  36.882   9.596  1.00  0.00     0.692 A 
HETATM    2  N2  UNL     1       5.507  37.718   8.975  1.00  0.00    -0.164 N 
ATOM      3  H2  UNL     1       5.181  38.286   8.193  1.00  0.00     0.186 HD
HETATM    4  C2  UNL     1       6.784  37.814   9.360  1.00  0.00     0.252 A 
HETATM    5  N4  UNL     1       7.180  37.049  10.394  1.00  0.00    -0.164 N 
ATOM      6  H4  UNL     1       8.151  37.104  10.705  1.00  0.00     0.186 HD
HETATM    7  C3  UNL     1       6.328  36.203  11.036  1.00  0.00     0.692 A 
HETATM    8  N6  UNL     1       5.038  36.133  10.617  1.00  0.00    -0.023 N 
ATOM      9  H6  UNL     1       4.384  35.506  11.085  1.00  0.00     0.203 HD
ENDROOT
BRANCH   4  10
HETATM   10  S1  UNL     1       7.917  38.897   8.553  1.00  0.00     0.289 S 
HETATM   11  O1  UNL     1       7.451  39.195   7.158  1.00  0.00    -0.198 OA
HETATM   12  O2  UNL     1       9.267  38.207   8.404  1.00  0.00    -0.198 OA
BRANCH  10  13
HETATM   13  N3  UNL     1       8.176  40.334   9.428  1.00  0.00    -0.322 N 
ATOM     14  H32 UNL     1       8.303  41.241   8.979  1.00  0.00     0.169 HD
ATOM     15  H31 UNL     1       8.187  40.178  10.436  1.00  0.00     0.169 HD
ENDBRANCH  10  13
ENDBRANCH   4  10
BRANCH   1  16
HETATM   16  N1  UNL     1       3.395  36.785   9.229  1.00  0.00    -0.234 N 
ATOM     17  H12 UNL     1       3.151  36.064   8.549  1.00  0.00     0.174 HD
ATOM     18  H11 UNL     1       2.669  37.401   9.594  1.00  0.00     0.174 HD
ENDBRANCH   1  16
BRANCH   7  19
HETATM   19  N5  UNL     1       6.670  35.470  12.012  1.00  0.00    -0.234 N 
ATOM     20  H52 UNL     1       7.050  34.547  11.799  1.00  0.00     0.174 HD
ATOM     21  H51 UNL     1       6.584  35.753  12.989  1.00  0.00     0.174 HD
ENDBRANCH   7  19
TORSDOF 4
ENDMDL
MODEL 4
REMARK VINA RESULT: -4.374426784      1.803      3.088
REMARK  4 active torsions:
REMARK  status: ('A' for Active; 'I' for Inactive)
REMARK    1  A    between atoms: N1_1  and  C1_4 
REMARK    2  A    between atoms: C2_7  and  S1_8 
REMARK    3  A    between atoms: S1_8  and  N3_9 
REMARK    4  A    between atoms: C3_16  and  N5_17 
ROOT
HETATM    1  C1  UNL     1       6.340  36.216  10.995  1.00  0.00     0.692 A 
HETATM    2  N2  UNL     1       7.219  37.118  10.473  1.00  0.00    -0.164 N 
ATOM      3  H2  UNL     1       8.138  37.219  10.903  1.00  0.00     0.186 HD
HETATM    4  C2  UNL     1       6.911  37.874   9.414  1.00  0.00     0.252 A 
HETATM    5  N4  UNL     1       5.690  37.717   8.872  1.00  0.00    -0.164 N 
ATOM      6  H4  UNL     1       5.431  38.283   8.064  1.00  0.00     0.186 HD
HETATM    7  C3  UNL     1       4.788  36.826   9.369  1.00  0.00     0.692 A 
HETATM    8  N6  UNL     1       5.136  36.075  10.445  1.00  0.00    -0.023 N 
ATOM      9  H6  UNL     1       4.475  35.402  10.833  1.00  0.00     0.203 HD
ENDROOT
BRANCH   4  10
HETATM   10  S1  UNL     1       8.053  39.038   8.742  1.00  0.00     0.289 S 
HETATM   11  O1  UNL     1       7.838  39.187   7.264  1.00  0.00    -0.198 OA
HETATM   12  O2  UNL     1       9.474  38.515   8.906  1.00  0.00    -0.198 OA
BRANCH  10  13
HETATM   13  N3  UNL     1       7.975  40.547   9.523  1.00  0.00    -0.322 N 
ATOM     14  H32 UNL     1       7.109  40.932   9.901  1.00  0.00     0.169 HD
ATOM     15  H31 UNL     1       8.883  41.009   9.568  1.00  0.00     0.169 HD
ENDBRANCH  10  13
ENDBRANCH   4  10
BRANCH   1  16
HETATM   16  N1  UNL     1       6.631  35.484  12.016  1.00  0.00    -0.234 N 
ATOM     17  H12 UNL     1       6.271  35.766  12.928  1.00  0.00     0.174 HD
ATOM     18  H11 UNL     1       7.204  34.645  11.937  1.00  0.00     0.174 HD
ENDBRANCH   1  16
BRANCH   7  19
HETATM   19  N5  UNL     1       3.629  36.654   8.882  1.00  0.00    -0.234 N 
ATOM     20  H52 UNL     1       3.447  37.031   7.951  1.00  0.00     0.174 HD
ATOM     21  H51 UNL     1       2.879  36.162   9.369  1.00  0.00     0.174 HD
ENDBRANCH   7  19
TORSDOF 4
ENDMDL
MODEL 5
REMARK VINA RESULT: -4.371116307      3.114      3.832
REMARK  4 active torsions:
REMARK  status: ('A' for Active; 'I' for Inactive)
REMARK    1  A    between atoms: N1_1  and  C1_4 
REMARK    2  A    between atoms: C2_7  and  S1_8 
REMARK    3  A    between atoms: S1_8  and  N3_9 
REMARK    4  A    between atoms: C3_16  and  N5_17 
ROOT
HETATM    1  C1  UNL     1       7.345  36.401  11.481  1.00  0.00     0.692 A 
HETATM    2  N2  UNL     1       8.442  36.812  12.177  1.00  0.00    -0.164 N 
ATOM      3  H2  UNL     1       8.661  36.363  13.067  1.00  0.00     0.186 HD
HETATM    4  C2  UNL     1       9.240  37.787  11.729  1.00  0.00     0.252 A 
HETATM    5  N4  UNL     1       8.921  38.360  10.554  1.00  0.00    -0.164 N 
ATOM      6  H4  UNL     1       9.514  39.107  10.192  1.00  0.00     0.186 HD
HETATM    7  C3  UNL     1       7.833  37.973   9.834  1.00  0.00     0.692 A 
HETATM    8  N6  UNL     1       7.046  36.979  10.320  1.00  0.00    -0.023 N 
ATOM      9  H6  UNL     1       6.226  36.675   9.795  1.00  0.00     0.203 HD
ENDROOT
BRANCH   4  10
HETATM   10  S1  UNL     1      10.658  38.315  12.634  1.00  0.00     0.289 S 
HETATM   11  O1  UNL     1      11.673  37.212  12.705  1.00  0.00    -0.198 OA
HETATM   12  O2  UNL     1      10.265  38.613  14.076  1.00  0.00    -0.198 OA
BRANCH  10  13
HETATM   13  N3  UNL     1      11.346  39.733  11.993  1.00  0.00    -0.322 N 
ATOM     14  H32 UNL     1      11.015  40.668  12.234  1.00  0.00     0.169 HD
ATOM     15  H31 UNL     1      12.114  39.537  11.352  1.00  0.00     0.169 HD
ENDBRANCH  10  13
ENDBRANCH   4  10
BRANCH   1  16
HETATM   16  N1  UNL     1       6.572  35.461  11.909  1.00  0.00    -0.234 N 
ATOM     17  H12 UNL     1       5.581  35.671  12.030  1.00  0.00     0.174 HD
ATOM     18  H11 UNL     1       6.921  34.528  12.126  1.00  0.00     0.174 HD
ENDBRANCH   1  16
BRANCH   7  19
HETATM   19  N5  UNL     1       7.505  38.492   8.723  1.00  0.00    -0.234 N 
ATOM     20  H52 UNL     1       7.511  37.888   7.900  1.00  0.00     0.174 HD
ATOM     21  H51 UNL     1       7.240  39.471   8.614  1.00  0.00     0.174 HD
ENDBRANCH   7  19
TORSDOF 4
ENDMDL
