MODEL 1
REMARK VINA RESULT: -8.054887304      0.000      0.000
REMARK  15 active torsions:
REMARK  status: ('A' for Active; 'I' for Inactive)
REMARK    1  A    between atoms: N1_2  and  C3_4 
REMARK    2  A    between atoms: N1_2  and  C18_33 
REMARK    3  A    between atoms: C3_4  and  C4_5 
REMARK    4  A    between atoms: C4_5  and  C5_6 
REMARK    5  A    between atoms: C5_6  and  N2_7 
REMARK    6  A    between atoms: N2_7  and  C6_9 
REMARK    7  A    between atoms: N4_15  and  C10_17 
REMARK    8  A    between atoms: C10_17  and  C11_18 
REMARK    9  A    between atoms: C11_18  and  C12_19 
REMARK   10  A    between atoms: C12_19  and  C13_20 
REMARK   11  A    between atoms: C13_20  and  C14_21 
REMARK   12  A    between atoms: C14_21  and  C15_22 
REMARK   13  A    between atoms: C15_22  and  C16_23 
REMARK   14  A    between atoms: C16_23  and  N5_24 
REMARK       I    between atoms: N5_24  and  C17_26 
REMARK   15  A    between atoms: C18_33  and  C19_34 
ROOT
HETATM    1  C6  UNL     1      51.798  18.351  -5.471  1.00  0.00     0.679 A 
HETATM    2  N3  UNL     1      52.941  18.925  -5.083  1.00  0.00    -0.202 N 
ATOM      3  H3  UNL     1      53.096  19.919  -5.252  1.00  0.00     0.183 HD
HETATM    4  C7  UNL     1      53.885  18.192  -4.469  1.00  0.00     0.110 A 
HETATM    5  C8  UNL     1      53.635  16.840  -4.256  1.00  0.00     0.066 A 
HETATM    6  C9  UNL     1      52.464  16.230  -4.649  1.00  0.00     0.118 A 
HETATM    7  N4  UNL     1      52.195  15.007  -4.489  1.00  0.00    -0.376 N 
ATOM      8  H4  UNL     1      51.284  14.701  -4.831  1.00  0.00     0.161 HD
HETATM    9  N8  UNL     1      51.556  17.047  -5.265  1.00  0.00    -0.177 N 
ATOM     10  H8  UNL     1      50.669  16.653  -5.578  1.00  0.00     0.185 HD
ENDROOT
BRANCH   1  11
HETATM   11  N2  UNL     1      50.885  19.040  -6.068  1.00  0.00    -0.226 N 
ATOM     12  H2  UNL     1      49.978  19.131  -5.610  1.00  0.00     0.177 HD
BRANCH  11  13
HETATM   13  C5  UNL     1      51.069  19.686  -7.337  1.00  0.00     0.139 C 
BRANCH  13  14
HETATM   14  C4  UNL     1      50.418  18.874  -8.449  1.00  0.00     0.048 C 
BRANCH  14  15
HETATM   15  C3  UNL     1      49.394  19.687  -9.214  1.00  0.00     0.243 C 
BRANCH  15  16
HETATM   16  N1  UNL     1      49.175  19.110 -10.485  1.00  0.00    -0.054 N 
HETATM   17  C1  UNL     1      48.862  17.671 -10.395  1.00  0.00     0.277 C 
HETATM   18  C2  UNL     1      47.878  19.694 -10.924  1.00  0.00     0.277 C 
BRANCH  16  19
HETATM   19  C18 UNL     1      50.041  19.383 -11.549  1.00  0.00     0.204 C 
BRANCH  19  20
HETATM   20  C19 UNL     1      50.157  20.671 -12.214  1.00  0.00    -0.056 C 
HETATM   21  C20 UNL     1      50.046  20.714 -13.704  1.00  0.00     0.040 C 
HETATM   22  C21 UNL     1      50.258  22.105 -14.249  1.00  0.00    -0.010 C 
HETATM   23  C22 UNL     1      49.452  23.138 -13.531  1.00  0.00     0.005 C 
HETATM   24  C25 UNL     1      51.711  22.463 -13.894  1.00  0.00     0.010 C 
HETATM   25  C23 UNL     1      50.321  23.657 -12.413  1.00  0.00     0.005 C 
HETATM   26  C24 UNL     1      51.540  22.761 -12.429  1.00  0.00    -0.010 C 
HETATM   27  C26 UNL     1      51.213  21.533 -11.618  1.00  0.00     0.040 C 
ENDBRANCH  19  20
ENDBRANCH  16  19
ENDBRANCH  15  16
ENDBRANCH  14  15
ENDBRANCH  13  14
ENDBRANCH  11  13
ENDBRANCH   1  11
BRANCH   7  28
HETATM   28  C10 UNL     1      53.004  14.008  -3.892  1.00  0.00     0.121 C 
BRANCH  28  29
HETATM   29  C11 UNL     1      52.111  13.024  -3.151  1.00  0.00     0.020 C 
BRANCH  29  30
HETATM   30  C12 UNL     1      51.973  13.319  -1.694  1.00  0.00     0.002 C 
BRANCH  30  31
HETATM   31  C13 UNL     1      52.791  14.522  -1.332  1.00  0.00     0.000 C 
BRANCH  31  32
HETATM   32  C14 UNL     1      51.911  15.637  -0.786  1.00  0.00     0.002 C 
BRANCH  32  33
HETATM   33  C15 UNL     1      52.737  16.755  -0.177  1.00  0.00     0.020 C 
BRANCH  33  34
HETATM   34  C16 UNL     1      52.514  17.974  -1.039  1.00  0.00     0.122 C 
BRANCH  34  35
HETATM   35  N5  UNL     1      53.232  19.089  -0.476  1.00  0.00    -0.365 N 
HETATM   36  C17 UNL     1      53.994  19.944  -1.289  1.00  0.00     0.181 C 
HETATM   37  N6  UNL     1      53.568  21.078  -1.698  1.00  0.00    -0.374 N 
HETATM   38  N7  UNL     1      55.298  19.546  -1.681  1.00  0.00    -0.064 NA
ATOM     39  H62 UNL     1      52.631  21.364  -1.416  1.00  0.00     0.158 HD
ATOM     40  H61 UNL     1      54.122  21.699  -2.288  1.00  0.00     0.158 HD
ATOM     41  H5  UNL     1      53.186  19.261   0.528  1.00  0.00     0.162 HD
ENDBRANCH  34  35
ENDBRANCH  33  34
ENDBRANCH  32  33
ENDBRANCH  31  32
ENDBRANCH  30  31
ENDBRANCH  29  30
ENDBRANCH  28  29
ENDBRANCH   7  28
TORSDOF 15
ENDMDL
MODEL 2
REMARK VINA RESULT: -7.681143943      3.733      4.996
REMARK  15 active torsions:
REMARK  status: ('A' for Active; 'I' for Inactive)
REMARK    1  A    between atoms: N1_2  and  C3_4 
REMARK    2  A    between atoms: N1_2  and  C18_33 
REMARK    3  A    between atoms: C3_4  and  C4_5 
REMARK    4  A    between atoms: C4_5  and  C5_6 
REMARK    5  A    between atoms: C5_6  and  N2_7 
REMARK    6  A    between atoms: N2_7  and  C6_9 
REMARK    7  A    between atoms: N4_15  and  C10_17 
REMARK    8  A    between atoms: C10_17  and  C11_18 
REMARK    9  A    between atoms: C11_18  and  C12_19 
REMARK   10  A    between atoms: C12_19  and  C13_20 
REMARK   11  A    between atoms: C13_20  and  C14_21 
REMARK   12  A    between atoms: C14_21  and  C15_22 
REMARK   13  A    between atoms: C15_22  and  C16_23 
REMARK   14  A    between atoms: C16_23  and  N5_24 
REMARK       I    between atoms: N5_24  and  C17_26 
REMARK   15  A    between atoms: C18_33  and  C19_34 
ROOT
HETATM    1  C6  UNL     1      51.866  18.198  -5.265  1.00  0.00     0.679 A 
HETATM    2  N3  UNL     1      52.972  18.834  -4.869  1.00  0.00    -0.202 N 
ATOM      3  H3  UNL     1      53.064  19.839  -5.020  1.00  0.00     0.183 HD
HETATM    4  C7  UNL     1      53.963  18.150  -4.273  1.00  0.00     0.110 A 
HETATM    5  C8  UNL     1      53.799  16.781  -4.086  1.00  0.00     0.066 A 
HETATM    6  C9  UNL     1      52.667  16.107  -4.487  1.00  0.00     0.118 A 
HETATM    7  N4  UNL     1      52.475  14.867  -4.350  1.00  0.00    -0.376 N 
ATOM      8  H4  UNL     1      51.584  14.511  -4.695  1.00  0.00     0.161 HD
HETATM    9  N8  UNL     1      51.707  16.877  -5.084  1.00  0.00    -0.177 N 
ATOM     10  H8  UNL     1      50.845  16.435  -5.402  1.00  0.00     0.185 HD
ENDROOT
BRANCH   1  11
HETATM   11  N2  UNL     1      50.910  18.840  -5.845  1.00  0.00    -0.226 N 
ATOM     12  H2  UNL     1      49.976  18.780  -5.438  1.00  0.00     0.177 HD
BRANCH  11  13
HETATM   13  C5  UNL     1      51.078  19.633  -7.030  1.00  0.00     0.139 C 
BRANCH  13  14
HETATM   14  C4  UNL     1      50.818  18.796  -8.276  1.00  0.00     0.048 C 
BRANCH  14  15
HETATM   15  C3  UNL     1      50.691  19.658  -9.515  1.00  0.00     0.243 C 
BRANCH  15  16
HETATM   16  N1  UNL     1      49.737  19.095 -10.394  1.00  0.00    -0.054 N 
HETATM   17  C1  UNL     1      49.654  17.628 -10.259  1.00  0.00     0.277 C 
HETATM   18  C2  UNL     1      48.432  19.543  -9.836  1.00  0.00     0.277 C 
BRANCH  16  19
HETATM   19  C18 UNL     1      49.683  19.493 -11.733  1.00  0.00     0.204 C 
BRANCH  19  20
HETATM   20  C19 UNL     1      50.240  20.731 -12.254  1.00  0.00    -0.056 C 
HETATM   21  C20 UNL     1      50.000  21.995 -11.492  1.00  0.00     0.040 C 
HETATM   22  C21 UNL     1      50.578  23.199 -12.194  1.00  0.00    -0.010 C 
HETATM   23  C22 UNL     1      51.990  22.992 -12.633  1.00  0.00     0.005 C 
HETATM   24  C25 UNL     1      49.797  23.313 -13.513  1.00  0.00     0.010 C 
HETATM   25  C23 UNL     1      51.925  22.451 -14.039  1.00  0.00     0.005 C 
HETATM   26  C24 UNL     1      50.454  22.200 -14.285  1.00  0.00    -0.010 C 
HETATM   27  C26 UNL     1      50.125  20.836 -13.734  1.00  0.00     0.040 C 
ENDBRANCH  19  20
ENDBRANCH  16  19
ENDBRANCH  15  16
ENDBRANCH  14  15
ENDBRANCH  13  14
ENDBRANCH  11  13
ENDBRANCH   1  11
BRANCH   7  28
HETATM   28  C10 UNL     1      53.348  13.909  -3.775  1.00  0.00     0.121 C 
BRANCH  28  29
HETATM   29  C11 UNL     1      54.014  13.113  -4.889  1.00  0.00     0.020 C 
BRANCH  29  30
HETATM   30  C12 UNL     1      55.313  12.494  -4.490  1.00  0.00     0.002 C 
BRANCH  30  31
HETATM   31  C13 UNL     1      55.344  12.273  -3.008  1.00  0.00     0.000 C 
BRANCH  31  32
HETATM   32  C14 UNL     1      56.589  11.498  -2.599  1.00  0.00     0.002 C 
BRANCH  32  33
HETATM   33  C15 UNL     1      57.845  12.336  -2.751  1.00  0.00     0.020 C 
BRANCH  33  34
HETATM   34  C16 UNL     1      58.827  11.503  -3.538  1.00  0.00     0.122 C 
BRANCH  34  35
HETATM   35  N5  UNL     1      59.906  11.100  -2.673  1.00  0.00    -0.365 N 
HETATM   36  C17 UNL     1      60.061   9.759  -2.285  1.00  0.00     0.181 C 
HETATM   37  N6  UNL     1      60.890   8.963  -2.847  1.00  0.00    -0.374 N 
HETATM   38  N7  UNL     1      59.272   9.250  -1.222  1.00  0.00    -0.064 NA
ATOM     39  H62 UNL     1      61.457   9.329  -3.611  1.00  0.00     0.158 HD
ATOM     40  H61 UNL     1      61.002   7.989  -2.564  1.00  0.00     0.158 HD
ATOM     41  H5  UNL     1      60.568  11.799  -2.338  1.00  0.00     0.162 HD
ENDBRANCH  34  35
ENDBRANCH  33  34
ENDBRANCH  32  33
ENDBRANCH  31  32
ENDBRANCH  30  31
ENDBRANCH  29  30
ENDBRANCH  28  29
ENDBRANCH   7  28
TORSDOF 15
ENDMDL
MODEL 3
REMARK VINA RESULT: -7.595497587      1.547      3.591
REMARK  15 active torsions:
REMARK  status: ('A' for Active; 'I' for Inactive)
REMARK    1  A    between atoms: N1_2  and  C3_4 
REMARK    2  A    between atoms: N1_2  and  C18_33 
REMARK    3  A    between atoms: C3_4  and  C4_5 
REMARK    4  A    between atoms: C4_5  and  C5_6 
REMARK    5  A    between atoms: C5_6  and  N2_7 
REMARK    6  A    between atoms: N2_7  and  C6_9 
REMARK    7  A    between atoms: N4_15  and  C10_17 
REMARK    8  A    between atoms: C10_17  and  C11_18 
REMARK    9  A    between atoms: C11_18  and  C12_19 
REMARK   10  A    between atoms: C12_19  and  C13_20 
REMARK   11  A    between atoms: C13_20  and  C14_21 
REMARK   12  A    between atoms: C14_21  and  C15_22 
REMARK   13  A    between atoms: C15_22  and  C16_23 
REMARK   14  A    between atoms: C16_23  and  N5_24 
REMARK       I    between atoms: N5_24  and  C17_26 
REMARK   15  A    between atoms: C18_33  and  C19_34 
ROOT
HETATM    1  C6  UNL     1      51.133  19.014  -6.654  1.00  0.00     0.679 A 
HETATM    2  N3  UNL     1      50.793  17.723  -6.685  1.00  0.00    -0.202 N 
ATOM      3  H3  UNL     1      50.088  17.397  -7.346  1.00  0.00     0.183 HD
HETATM    4  C7  UNL     1      51.379  16.854  -5.844  1.00  0.00     0.110 A 
HETATM    5  C8  UNL     1      52.335  17.339  -4.957  1.00  0.00     0.066 A 
HETATM    6  C9  UNL     1      52.700  18.666  -4.910  1.00  0.00     0.118 A 
HETATM    7  N4  UNL     1      53.552  19.156  -4.118  1.00  0.00    -0.376 N 
ATOM      8  H4  UNL     1      53.719  20.159  -4.204  1.00  0.00     0.161 HD
HETATM    9  N8  UNL     1      52.057  19.483  -5.799  1.00  0.00    -0.177 N 
ATOM     10  H8  UNL     1      52.285  20.477  -5.813  1.00  0.00     0.185 HD
ENDROOT
BRANCH   1  11
HETATM   11  N2  UNL     1      50.574  19.862  -7.450  1.00  0.00    -0.226 N 
ATOM     12  H2  UNL     1      49.772  20.388  -7.103  1.00  0.00     0.177 HD
BRANCH  11  13
HETATM   13  C5  UNL     1      51.012  20.110  -8.795  1.00  0.00     0.139 C 
BRANCH  13  14
HETATM   14  C4  UNL     1      50.233  19.247  -9.779  1.00  0.00     0.048 C 
BRANCH  14  15
HETATM   15  C3  UNL     1      48.793  19.701  -9.906  1.00  0.00     0.243 C 
BRANCH  15  16
HETATM   16  N1  UNL     1      48.256  19.251 -11.134  1.00  0.00    -0.054 N 
HETATM   17  C1  UNL     1      48.784  17.930 -11.521  1.00  0.00     0.277 C 
HETATM   18  C2  UNL     1      46.835  18.947 -10.811  1.00  0.00     0.277 C 
BRANCH  16  19
HETATM   19  C18 UNL     1      48.171  20.114 -12.231  1.00  0.00     0.204 C 
BRANCH  19  20
HETATM   20  C19 UNL     1      49.103  21.194 -12.511  1.00  0.00    -0.056 C 
HETATM   21  C20 UNL     1      48.554  22.565 -12.743  1.00  0.00     0.040 C 
HETATM   22  C21 UNL     1      49.636  23.559 -13.090  1.00  0.00    -0.010 C 
HETATM   23  C22 UNL     1      50.797  23.501 -12.154  1.00  0.00     0.005 C 
HETATM   24  C25 UNL     1      50.218  23.074 -14.427  1.00  0.00     0.010 C 
HETATM   25  C23 UNL     1      51.779  22.524 -12.751  1.00  0.00     0.005 C 
HETATM   26  C24 UNL     1      51.049  21.921 -13.930  1.00  0.00    -0.010 C 
HETATM   27  C26 UNL     1      50.211  20.779 -13.413  1.00  0.00     0.040 C 
ENDBRANCH  19  20
ENDBRANCH  16  19
ENDBRANCH  15  16
ENDBRANCH  14  15
ENDBRANCH  13  14
ENDBRANCH  11  13
ENDBRANCH   1  11
BRANCH   7  28
HETATM   28  C10 UNL     1      54.307  18.482  -3.124  1.00  0.00     0.121 C 
BRANCH  28  29
HETATM   29  C11 UNL     1      54.748  19.487  -2.071  1.00  0.00     0.020 C 
BRANCH  29  30
HETATM   30  C12 UNL     1      54.437  19.066  -0.672  1.00  0.00     0.002 C 
BRANCH  30  31
HETATM   31  C13 UNL     1      52.994  18.678  -0.561  1.00  0.00     0.000 C 
BRANCH  31  32
HETATM   32  C14 UNL     1      52.838  17.371   0.203  1.00  0.00     0.002 C 
BRANCH  32  33
HETATM   33  C15 UNL     1      52.039  16.352  -0.589  1.00  0.00     0.020 C 
BRANCH  33  34
HETATM   34  C16 UNL     1      52.992  15.736  -1.584  1.00  0.00     0.122 C 
BRANCH  34  35
HETATM   35  N5  UNL     1      52.331  14.650  -2.262  1.00  0.00    -0.365 N 
HETATM   36  C17 UNL     1      52.165  13.402  -1.639  1.00  0.00     0.181 C 
HETATM   37  N6  UNL     1      51.073  13.044  -1.077  1.00  0.00    -0.374 N 
HETATM   38  N7  UNL     1      53.247  12.485  -1.625  1.00  0.00    -0.064 NA
ATOM     39  H62 UNL     1      50.296  13.704  -1.086  1.00  0.00     0.158 HD
ATOM     40  H61 UNL     1      50.953  12.138  -0.625  1.00  0.00     0.158 HD
ATOM     41  H5  UNL     1      51.978  14.789  -3.208  1.00  0.00     0.162 HD
ENDBRANCH  34  35
ENDBRANCH  33  34
ENDBRANCH  32  33
ENDBRANCH  31  32
ENDBRANCH  30  31
ENDBRANCH  29  30
ENDBRANCH  28  29
ENDBRANCH   7  28
TORSDOF 15
ENDMDL
MODEL 4
REMARK VINA RESULT: -7.585886878      1.725      3.372
REMARK  15 active torsions:
REMARK  status: ('A' for Active; 'I' for Inactive)
REMARK    1  A    between atoms: N1_2  and  C3_4 
REMARK    2  A    between atoms: N1_2  and  C18_33 
REMARK    3  A    between atoms: C3_4  and  C4_5 
REMARK    4  A    between atoms: C4_5  and  C5_6 
REMARK    5  A    between atoms: C5_6  and  N2_7 
REMARK    6  A    between atoms: N2_7  and  C6_9 
REMARK    7  A    between atoms: N4_15  and  C10_17 
REMARK    8  A    between atoms: C10_17  and  C11_18 
REMARK    9  A    between atoms: C11_18  and  C12_19 
REMARK   10  A    between atoms: C12_19  and  C13_20 
REMARK   11  A    between atoms: C13_20  and  C14_21 
REMARK   12  A    between atoms: C14_21  and  C15_22 
REMARK   13  A    between atoms: C15_22  and  C16_23 
REMARK   14  A    between atoms: C16_23  and  N5_24 
REMARK       I    between atoms: N5_24  and  C17_26 
REMARK   15  A    between atoms: C18_33  and  C19_34 
ROOT
HETATM    1  C6  UNL     1      50.164  17.664  -6.169  1.00  0.00     0.679 A 
HETATM    2  N3  UNL     1      50.473  18.562  -7.108  1.00  0.00    -0.202 N 
ATOM      3  H3  UNL     1      49.806  18.773  -7.851  1.00  0.00     0.183 HD
HETATM    4  C7  UNL     1      51.662  19.186  -7.075  1.00  0.00     0.110 A 
HETATM    5  C8  UNL     1      52.544  18.870  -6.047  1.00  0.00     0.066 A 
HETATM    6  C9  UNL     1      52.245  17.947  -5.069  1.00  0.00     0.118 A 
HETATM    7  N4  UNL     1      53.013  17.618  -4.123  1.00  0.00    -0.376 N 
ATOM      8  H4  UNL     1      52.650  16.921  -3.473  1.00  0.00     0.161 HD
HETATM    9  N8  UNL     1      51.014  17.359  -5.175  1.00  0.00    -0.177 N 
ATOM     10  H8  UNL     1      50.734  16.668  -4.479  1.00  0.00     0.185 HD
ENDROOT
BRANCH   1  11
HETATM   11  N2  UNL     1      49.029  17.051  -6.191  1.00  0.00    -0.226 N 
ATOM     12  H2  UNL     1      48.412  17.156  -5.386  1.00  0.00     0.177 HD
BRANCH  11  13
HETATM   13  C5  UNL     1      48.582  16.230  -7.281  1.00  0.00     0.139 C 
BRANCH  13  14
HETATM   14  C4  UNL     1      47.963  17.087  -8.378  1.00  0.00     0.048 C 
BRANCH  14  15
HETATM   15  C3  UNL     1      48.559  16.776  -9.736  1.00  0.00     0.243 C 
BRANCH  15  16
HETATM   16  N1  UNL     1      48.538  17.936 -10.544  1.00  0.00    -0.054 N 
HETATM   17  C1  UNL     1      47.546  17.839 -11.631  1.00  0.00     0.277 C 
HETATM   18  C2  UNL     1      47.944  18.976  -9.660  1.00  0.00     0.277 C 
BRANCH  16  19
HETATM   19  C18 UNL     1      49.732  18.516 -10.986  1.00  0.00     0.204 C 
BRANCH  19  20
HETATM   20  C19 UNL     1      49.858  19.877 -11.480  1.00  0.00    -0.056 C 
HETATM   21  C20 UNL     1      49.753  20.112 -12.953  1.00  0.00     0.040 C 
HETATM   22  C21 UNL     1      49.976  21.560 -13.314  1.00  0.00    -0.010 C 
HETATM   23  C22 UNL     1      49.175  22.498 -12.473  1.00  0.00     0.005 C 
HETATM   24  C25 UNL     1      51.430  21.859 -12.913  1.00  0.00     0.010 C 
HETATM   25  C23 UNL     1      50.043  22.864 -11.296  1.00  0.00     0.005 C 
HETATM   26  C24 UNL     1      51.256  21.969 -11.422  1.00  0.00    -0.010 C 
HETATM   27  C26 UNL     1      50.918  20.649 -10.776  1.00  0.00     0.040 C 
ENDBRANCH  19  20
ENDBRANCH  16  19
ENDBRANCH  15  16
ENDBRANCH  14  15
ENDBRANCH  13  14
ENDBRANCH  11  13
ENDBRANCH   1  11
BRANCH   7  28
HETATM   28  C10 UNL     1      54.319  18.100  -3.854  1.00  0.00     0.121 C 
BRANCH  28  29
HETATM   29  C11 UNL     1      54.231  19.235  -2.844  1.00  0.00     0.020 C 
BRANCH  29  30
HETATM   30  C12 UNL     1      54.954  18.960  -1.568  1.00  0.00     0.002 C 
BRANCH  30  31
HETATM   31  C13 UNL     1      53.973  18.725  -0.460  1.00  0.00     0.000 C 
BRANCH  31  32
HETATM   32  C14 UNL     1      52.572  19.153  -0.873  1.00  0.00     0.002 C 
BRANCH  32  33
HETATM   33  C15 UNL     1      51.615  17.974  -0.910  1.00  0.00     0.020 C 
BRANCH  33  34
HETATM   34  C16 UNL     1      52.397  16.769  -0.447  1.00  0.00     0.122 C 
BRANCH  34  35
HETATM   35  N5  UNL     1      51.748  15.574  -0.920  1.00  0.00    -0.365 N 
HETATM   36  C17 UNL     1      52.477  14.561  -1.566  1.00  0.00     0.181 C 
HETATM   37  N6  UNL     1      52.874  13.501  -0.971  1.00  0.00    -0.374 N 
HETATM   38  N7  UNL     1      52.793  14.706  -2.941  1.00  0.00    -0.064 NA
ATOM     39  H62 UNL     1      52.647  13.398   0.018  1.00  0.00     0.158 HD
ATOM     40  H61 UNL     1      53.402  12.766  -1.441  1.00  0.00     0.158 HD
ATOM     41  H5  UNL     1      50.744  15.460  -0.783  1.00  0.00     0.162 HD
ENDBRANCH  34  35
ENDBRANCH  33  34
ENDBRANCH  32  33
ENDBRANCH  31  32
ENDBRANCH  30  31
ENDBRANCH  29  30
ENDBRANCH  28  29
ENDBRANCH   7  28
TORSDOF 15
ENDMDL
MODEL 5
REMARK VINA RESULT: -7.533665072      2.670      4.577
REMARK  15 active torsions:
REMARK  status: ('A' for Active; 'I' for Inactive)
REMARK    1  A    between atoms: N1_2  and  C3_4 
REMARK    2  A    between atoms: N1_2  and  C18_33 
REMARK    3  A    between atoms: C3_4  and  C4_5 
REMARK    4  A    between atoms: C4_5  and  C5_6 
REMARK    5  A    between atoms: C5_6  and  N2_7 
REMARK    6  A    between atoms: N2_7  and  C6_9 
REMARK    7  A    between atoms: N4_15  and  C10_17 
REMARK    8  A    between atoms: C10_17  and  C11_18 
REMARK    9  A    between atoms: C11_18  and  C12_19 
REMARK   10  A    between atoms: C12_19  and  C13_20 
REMARK   11  A    between atoms: C13_20  and  C14_21 
REMARK   12  A    between atoms: C14_21  and  C15_22 
REMARK   13  A    between atoms: C15_22  and  C16_23 
REMARK   14  A    between atoms: C16_23  and  N5_24 
REMARK       I    between atoms: N5_24  and  C17_26 
REMARK   15  A    between atoms: C18_33  and  C19_34 
ROOT
HETATM    1  C6  UNL     1      51.605  18.552  -5.675  1.00  0.00     0.679 A 
HETATM    2  N3  UNL     1      52.729  19.089  -5.195  1.00  0.00    -0.202 N 
ATOM      3  H3  UNL     1      52.874  20.098  -5.243  1.00  0.00     0.183 HD
HETATM    4  C7  UNL     1      53.670  18.301  -4.648  1.00  0.00     0.110 A 
HETATM    5  C8  UNL     1      53.435  16.931  -4.601  1.00  0.00     0.066 A 
HETATM    6  C9  UNL     1      52.283  16.357  -5.091  1.00  0.00     0.118 A 
HETATM    7  N4  UNL     1      52.028  15.121  -5.082  1.00  0.00    -0.376 N 
ATOM      8  H4  UNL     1      51.130  14.846  -5.480  1.00  0.00     0.161 HD
HETATM    9  N8  UNL     1      51.378  17.229  -5.630  1.00  0.00    -0.177 N 
ATOM     10  H8  UNL     1      50.504  16.864  -6.009  1.00  0.00     0.185 HD
ENDROOT
BRANCH   1  11
HETATM   11  N2  UNL     1      50.696  19.294  -6.210  1.00  0.00    -0.226 N 
ATOM     12  H2  UNL     1      49.815  19.410  -5.709  1.00  0.00     0.177 HD
BRANCH  11  13
HETATM   13  C5  UNL     1      50.848  19.968  -7.469  1.00  0.00     0.139 C 
BRANCH  13  14
HETATM   14  C4  UNL     1      49.729  19.575  -8.425  1.00  0.00     0.048 C 
BRANCH  14  15
HETATM   15  C3  UNL     1      50.214  18.623  -9.498  1.00  0.00     0.243 C 
BRANCH  15  16
HETATM   16  N1  UNL     1      49.548  17.383  -9.374  1.00  0.00    -0.054 N 
HETATM   17  C1  UNL     1      49.185  16.814 -10.686  1.00  0.00     0.277 C 
HETATM   18  C2  UNL     1      50.611  16.452  -8.904  1.00  0.00     0.277 C 
BRANCH  16  19
HETATM   19  C18 UNL     1      48.522  17.217  -8.439  1.00  0.00     0.204 C 
BRANCH  19  20
HETATM   20  C19 UNL     1      47.168  16.794  -8.759  1.00  0.00    -0.056 C 
HETATM   21  C20 UNL     1      46.168  17.839  -9.140  1.00  0.00     0.040 C 
HETATM   22  C21 UNL     1      44.797  17.253  -9.373  1.00  0.00    -0.010 C 
HETATM   23  C22 UNL     1      44.821  16.056 -10.265  1.00  0.00     0.005 C 
HETATM   24  C25 UNL     1      44.361  16.686  -8.012  1.00  0.00     0.010 C 
HETATM   25  C23 UNL     1      44.964  14.855  -9.365  1.00  0.00     0.005 C 
HETATM   26  C24 UNL     1      45.197  15.434  -7.987  1.00  0.00    -0.010 C 
HETATM   27  C26 UNL     1      46.672  15.720  -7.856  1.00  0.00     0.040 C 
ENDBRANCH  19  20
ENDBRANCH  16  19
ENDBRANCH  15  16
ENDBRANCH  14  15
ENDBRANCH  13  14
ENDBRANCH  11  13
ENDBRANCH   1  11
BRANCH   7  28
HETATM   28  C10 UNL     1      52.838  14.068  -4.586  1.00  0.00     0.121 C 
BRANCH  28  29
HETATM   29  C11 UNL     1      52.278  13.597  -3.252  1.00  0.00     0.020 C 
BRANCH  29  30
HETATM   30  C12 UNL     1      52.948  14.213  -2.069  1.00  0.00     0.002 C 
BRANCH  30  31
HETATM   31  C13 UNL     1      51.983  14.321  -0.927  1.00  0.00     0.000 C 
BRANCH  31  32
HETATM   32  C14 UNL     1      51.750  15.777  -0.547  1.00  0.00     0.002 C 
BRANCH  32  33
HETATM   33  C15 UNL     1      52.903  16.662  -0.986  1.00  0.00     0.020 C 
BRANCH  33  34
HETATM   34  C16 UNL     1      52.321  18.030  -1.247  1.00  0.00     0.122 C 
BRANCH  34  35
HETATM   35  N5  UNL     1      53.155  19.025  -0.624  1.00  0.00    -0.365 N 
HETATM   36  C17 UNL     1      53.951  19.888  -1.395  1.00  0.00     0.181 C 
HETATM   37  N6  UNL     1      53.606  21.086  -1.678  1.00  0.00    -0.374 N 
HETATM   38  N7  UNL     1      55.198  19.425  -1.886  1.00  0.00    -0.064 NA
ATOM     39  H62 UNL     1      52.709  21.419  -1.324  1.00  0.00     0.158 HD
ATOM     40  H61 UNL     1      54.185  21.713  -2.237  1.00  0.00     0.158 HD
ATOM     41  H5  UNL     1      53.167  19.105   0.393  1.00  0.00     0.162 HD
ENDBRANCH  34  35
ENDBRANCH  33  34
ENDBRANCH  32  33
ENDBRANCH  31  32
ENDBRANCH  30  31
ENDBRANCH  29  30
ENDBRANCH  28  29
ENDBRANCH   7  28
TORSDOF 15
ENDMDL
