MODEL 1
REMARK VINA RESULT: -3.488346379      0.000      0.000
REMARK  1 active torsions:
REMARK  status: ('A' for Active; 'I' for Inactive)
REMARK    1  A    between atoms: C2_2  and  C3_4 
ROOT
HETATM    1  C3  UNL     1      29.118  13.598  16.875  1.00  0.00     0.268 A 
HETATM    2  C4  UNL     1      28.379  12.937  17.908  1.00  0.00     0.309 A 
HETATM    3  N1  UNL     1      29.775  13.133  18.080  1.00  0.00     0.094 N 
HETATM    4  C5  UNL     1      30.732  12.094  17.856  1.00  0.00     0.310 C 
ENDROOT
BRANCH   1   5
HETATM    5  C2  UNL     1      29.180  15.093  16.683  1.00  0.00     0.113 C 
HETATM    6  C1  UNL     1      29.240  15.460  15.215  1.00  0.00     0.029 C 
HETATM    7 CL1  UNL     1      27.787  15.896  17.485  1.00  0.00    -0.123 Cl
ENDBRANCH   1   5
TORSDOF 1
ENDMDL
MODEL 2
REMARK VINA RESULT: -3.387013835      2.133      3.126
REMARK  1 active torsions:
REMARK  status: ('A' for Active; 'I' for Inactive)
REMARK    1  A    between atoms: C2_2  and  C3_4 
ROOT
HETATM    1  C3  UNL     1      28.687  14.096  17.190  1.00  0.00     0.268 A 
HETATM    2  C4  UNL     1      29.436  13.185  16.379  1.00  0.00     0.309 A 
HETATM    3  N1  UNL     1      29.744  14.570  16.320  1.00  0.00     0.094 N 
HETATM    4  C5  UNL     1      29.289  15.415  15.260  1.00  0.00     0.310 C 
ENDROOT
BRANCH   1   5
HETATM    5  C2  UNL     1      28.939  14.353  18.655  1.00  0.00     0.113 C 
HETATM    6  C1  UNL     1      27.775  15.077  19.298  1.00  0.00     0.029 C 
HETATM    7 CL1  UNL     1      29.290  12.817  19.519  1.00  0.00    -0.123 Cl
ENDBRANCH   1   5
TORSDOF 1
ENDMDL
MODEL 3
REMARK VINA RESULT: -3.381361496      1.900      3.291
REMARK  1 active torsions:
REMARK  status: ('A' for Active; 'I' for Inactive)
REMARK    1  A    between atoms: C2_2  and  C3_4 
ROOT
HETATM    1  C3  UNL     1      29.804  14.407  17.480  1.00  0.00     0.268 A 
HETATM    2  C4  UNL     1      29.100  15.598  17.847  1.00  0.00     0.309 A 
HETATM    3  N1  UNL     1      28.756  14.943  16.635  1.00  0.00     0.094 N 
HETATM    4  C5  UNL     1      29.214  15.395  15.358  1.00  0.00     0.310 C 
ENDROOT
BRANCH   1   5
HETATM    5  C2  UNL     1      29.510  13.030  18.022  1.00  0.00     0.113 C 
HETATM    6  C1  UNL     1      30.686  12.096  17.832  1.00  0.00     0.029 C 
HETATM    7 CL1  UNL     1      29.038  13.116  19.754  1.00  0.00    -0.123 Cl
ENDBRANCH   1   5
TORSDOF 1
ENDMDL
MODEL 4
REMARK VINA RESULT: -3.258895410      1.052      1.052
REMARK  1 active torsions:
REMARK  status: ('A' for Active; 'I' for Inactive)
REMARK    1  A    between atoms: C2_2  and  C3_4 
ROOT
HETATM    1  C3  UNL     1      29.031  13.315  16.847  1.00  0.00     0.268 A 
HETATM    2  C4  UNL     1      28.834  12.602  18.073  1.00  0.00     0.309 A 
HETATM    3  N1  UNL     1      29.983  12.315  17.288  1.00  0.00     0.094 N 
HETATM    4  C5  UNL     1      30.064  11.173  16.431  1.00  0.00     0.310 C 
ENDROOT
BRANCH   1   5
HETATM    5  C2  UNL     1      29.609  14.705  16.743  1.00  0.00     0.113 C 
HETATM    6  C1  UNL     1      29.209  15.375  15.445  1.00  0.00     0.029 C 
HETATM    7 CL1  UNL     1      29.119  15.705  18.153  1.00  0.00    -0.123 Cl
ENDBRANCH   1   5
TORSDOF 1
ENDMDL
MODEL 5
REMARK VINA RESULT: -3.251572420      1.251      1.251
REMARK  1 active torsions:
REMARK  status: ('A' for Active; 'I' for Inactive)
REMARK    1  A    between atoms: C2_2  and  C3_4 
ROOT
HETATM    1  C3  UNL     1      28.301  14.374  17.709  1.00  0.00     0.268 A 
HETATM    2  C4  UNL     1      27.950  14.343  19.096  1.00  0.00     0.309 A 
HETATM    3  N1  UNL     1      29.272  13.992  18.715  1.00  0.00     0.094 N 
HETATM    4  C5  UNL     1      29.710  12.634  18.614  1.00  0.00     0.310 C 
ENDROOT
BRANCH   1   5
HETATM    5  C2  UNL     1      28.672  15.619  16.942  1.00  0.00     0.113 C 
HETATM    6  C1  UNL     1      29.157  15.285  15.547  1.00  0.00     0.029 C 
HETATM    7 CL1  UNL     1      27.288  16.763  16.879  1.00  0.00    -0.123 Cl
ENDBRANCH   1   5
TORSDOF 1
ENDMDL
