MODEL 1
REMARK VINA RESULT: -3.937336315      0.000      0.000
REMARK  3 active torsions:
REMARK  status: ('A' for Active; 'I' for Inactive)
REMARK    1  A    between atoms: C2_2  and  C4_4 
REMARK    2  A    between atoms: C6_6  and  C7_7 
REMARK    3  A    between atoms: C7_7  and  N1_8 
ROOT
HETATM    1  C4  UNL     1      29.524  14.047  18.304  1.00  0.00     0.019 A 
HETATM    2  C5  UNL     1      30.403  12.939  17.739  1.00  0.00     0.016 A 
HETATM    3  C6  UNL     1      29.130  12.666  18.568  1.00  0.00     0.020 A 
ENDROOT
BRANCH   3   4
HETATM    4  C7  UNL     1      28.036  11.974  17.814  1.00  0.00     0.241 C 
BRANCH   4   5
HETATM    5  N1  UNL     1      27.352  10.969  18.560  1.00  0.00    -0.078 N 
HETATM    6  C8  UNL     1      26.690  11.440  19.736  1.00  0.00     0.271 C 
HETATM    7  C9  UNL     1      26.443  10.177  17.727  1.00  0.00     0.271 C 
HETATM    8  C10 UNL     1      28.371  10.013  19.026  1.00  0.00     0.271 C 
ENDBRANCH   4   5
ENDBRANCH   3   4
BRANCH   1   9
HETATM    9  C2  UNL     1      28.831  14.928  17.351  1.00  0.00    -0.088 C 
HETATM   10  C1  UNL     1      27.831  15.669  17.765  1.00  0.00     0.014 C 
HETATM   11  C3  UNL     1      29.247  14.993  15.925  1.00  0.00     0.043 C 
ENDBRANCH   1   9
TORSDOF 3
ENDMDL
MODEL 2
REMARK VINA RESULT: -3.920563822      0.080      1.234
REMARK  3 active torsions:
REMARK  status: ('A' for Active; 'I' for Inactive)
REMARK    1  A    between atoms: C2_2  and  C4_4 
REMARK    2  A    between atoms: C6_6  and  C7_7 
REMARK    3  A    between atoms: C7_7  and  N1_8 
ROOT
HETATM    1  C4  UNL     1      29.511  14.021  18.306  1.00  0.00     0.019 A 
HETATM    2  C5  UNL     1      30.408  12.922  17.753  1.00  0.00     0.016 A 
HETATM    3  C6  UNL     1      29.115  12.636  18.547  1.00  0.00     0.020 A 
ENDROOT
BRANCH   3   4
HETATM    4  C7  UNL     1      28.043  11.948  17.759  1.00  0.00     0.241 C 
BRANCH   4   5
HETATM    5  N1  UNL     1      27.416  10.864  18.442  1.00  0.00    -0.078 N 
HETATM    6  C8  UNL     1      26.444  10.152  17.674  1.00  0.00     0.271 C 
HETATM    7  C9  UNL     1      28.387   9.946  19.041  1.00  0.00     0.271 C 
HETATM    8  C10 UNL     1      26.685  11.442  19.582  1.00  0.00     0.271 C 
ENDBRANCH   4   5
ENDBRANCH   3   4
BRANCH   1   9
HETATM    9  C2  UNL     1      28.840  14.909  17.344  1.00  0.00    -0.088 C 
HETATM   10  C1  UNL     1      27.840  15.657  17.745  1.00  0.00     0.014 C 
HETATM   11  C3  UNL     1      29.278  14.973  15.925  1.00  0.00     0.043 C 
ENDBRANCH   1   9
TORSDOF 3
ENDMDL
MODEL 3
REMARK VINA RESULT: -3.911556520      0.119      1.219
REMARK  3 active torsions:
REMARK  status: ('A' for Active; 'I' for Inactive)
REMARK    1  A    between atoms: C2_2  and  C4_4 
REMARK    2  A    between atoms: C6_6  and  C7_7 
REMARK    3  A    between atoms: C7_7  and  N1_8 
ROOT
HETATM    1  C4  UNL     1      29.533  14.040  18.257  1.00  0.00     0.019 A 
HETATM    2  C5  UNL     1      30.399  12.890  17.763  1.00  0.00     0.016 A 
HETATM    3  C6  UNL     1      29.106  12.681  18.579  1.00  0.00     0.020 A 
ENDROOT
BRANCH   3   4
HETATM    4  C7  UNL     1      28.012  11.975  17.837  1.00  0.00     0.241 C 
BRANCH   4   5
HETATM    5  N1  UNL     1      27.423  10.890  18.551  1.00  0.00    -0.078 N 
HETATM    6  C8  UNL     1      28.343   9.892  18.995  1.00  0.00     0.271 C 
HETATM    7  C9  UNL     1      26.570  11.346  19.652  1.00  0.00     0.271 C 
HETATM    8  C10 UNL     1      26.508  10.210  17.619  1.00  0.00     0.271 C 
ENDBRANCH   4   5
ENDBRANCH   3   4
BRANCH   1   9
HETATM    9  C2  UNL     1      28.876  14.888  17.251  1.00  0.00    -0.088 C 
HETATM   10  C1  UNL     1      27.904  15.689  17.616  1.00  0.00     0.014 C 
HETATM   11  C3  UNL     1      29.297  14.853  15.825  1.00  0.00     0.043 C 
ENDBRANCH   1   9
TORSDOF 3
ENDMDL
MODEL 4
REMARK VINA RESULT: -3.911395213      1.649      2.734
REMARK  3 active torsions:
REMARK  status: ('A' for Active; 'I' for Inactive)
REMARK    1  A    between atoms: C2_2  and  C4_4 
REMARK    2  A    between atoms: C6_6  and  C7_7 
REMARK    3  A    between atoms: C7_7  and  N1_8 
ROOT
HETATM    1  C4  UNL     1      29.639  15.076  17.269  1.00  0.00     0.019 A 
HETATM    2  C5  UNL     1      29.332  14.872  15.792  1.00  0.00     0.016 A 
HETATM    3  C6  UNL     1      29.861  13.747  16.706  1.00  0.00     0.020 A 
ENDROOT
BRANCH   3   4
HETATM    4  C7  UNL     1      28.907  12.609  16.905  1.00  0.00     0.241 C 
BRANCH   4   5
HETATM    5  N1  UNL     1      29.502  11.430  17.443  1.00  0.00    -0.078 N 
HETATM    6  C8  UNL     1      30.478  10.812  16.602  1.00  0.00     0.271 C 
HETATM    7  C9  UNL     1      30.029  11.638  18.794  1.00  0.00     0.271 C 
HETATM    8  C10 UNL     1      28.423  10.440  17.603  1.00  0.00     0.271 C 
ENDBRANCH   4   5
ENDBRANCH   3   4
BRANCH   1   9
HETATM    9  C2  UNL     1      28.520  15.410  18.164  1.00  0.00    -0.088 C 
HETATM   10  C1  UNL     1      27.484  16.059  17.690  1.00  0.00     0.014 C 
HETATM   11  C3  UNL     1      28.545  15.023  19.599  1.00  0.00     0.043 C 
ENDBRANCH   1   9
TORSDOF 3
ENDMDL
MODEL 5
REMARK VINA RESULT: -3.902512626      1.630      2.410
REMARK  3 active torsions:
REMARK  status: ('A' for Active; 'I' for Inactive)
REMARK    1  A    between atoms: C2_2  and  C4_4 
REMARK    2  A    between atoms: C6_6  and  C7_7 
REMARK    3  A    between atoms: C7_7  and  N1_8 
ROOT
HETATM    1  C4  UNL     1      29.680  14.967  17.268  1.00  0.00     0.019 A 
HETATM    2  C5  UNL     1      29.369  14.738  15.796  1.00  0.00     0.016 A 
HETATM    3  C6  UNL     1      29.853  13.617  16.740  1.00  0.00     0.020 A 
ENDROOT
BRANCH   3   4
HETATM    4  C7  UNL     1      28.856  12.522  16.964  1.00  0.00     0.241 C 
BRANCH   4   5
HETATM    5  N1  UNL     1      29.404  11.336  17.536  1.00  0.00    -0.078 N 
HETATM    6  C8  UNL     1      30.040  11.517  18.802  1.00  0.00     0.271 C 
HETATM    7  C9  UNL     1      28.432  10.241  17.589  1.00  0.00     0.271 C 
HETATM    8  C10 UNL     1      30.457  10.865  16.619  1.00  0.00     0.271 C 
ENDBRANCH   4   5
ENDBRANCH   3   4
BRANCH   1   9
HETATM    9  C2  UNL     1      28.573  15.366  18.151  1.00  0.00    -0.088 C 
HETATM   10  C1  UNL     1      27.558  16.032  17.656  1.00  0.00     0.014 C 
HETATM   11  C3  UNL     1      28.586  15.024  19.598  1.00  0.00     0.043 C 
ENDBRANCH   1   9
TORSDOF 3
ENDMDL
