MODEL 1
REMARK VINA RESULT: -4.190455837      0.000      0.000
REMARK  4 active torsions:
REMARK  status: ('A' for Active; 'I' for Inactive)
REMARK    1  A    between atoms: C2_2  and  C3_3 
REMARK    2  A    between atoms: C3_3  and  C4_4 
REMARK    3  A    between atoms: C4_4  and  C5_6 
REMARK    4  A    between atoms: C5_6  and  N1_8 
ROOT
HETATM    1  C5  UNL     1      29.320  12.653  19.197  1.00  0.00     0.254 C 
HETATM    2  C6  UNL     1      30.366  12.539  18.129  1.00  0.00     0.049 C 
ENDROOT
BRANCH   1   3
HETATM    3  C4  UNL     1      28.723  14.009  19.280  1.00  0.00     0.160 C 
HETATM    4  O1  UNL     1      28.813  14.591  20.345  1.00  0.00    -0.295 OA
BRANCH   3   5
HETATM    5  C3  UNL     1      28.041  14.689  18.183  1.00  0.00     0.107 C 
BRANCH   5   6
HETATM    6  C2  UNL     1      28.960  15.597  17.441  1.00  0.00    -0.029 C 
HETATM    7  C1  UNL     1      29.064  15.595  16.133  1.00  0.00     0.007 C 
ENDBRANCH   5   6
ENDBRANCH   3   5
ENDBRANCH   1   3
BRANCH   1   8
HETATM    8  N1  UNL     1      28.323  11.619  19.119  1.00  0.00    -0.068 N 
HETATM    9  C7  UNL     1      27.186  11.849  19.975  1.00  0.00     0.272 C 
HETATM   10  C8  UNL     1      28.918  10.351  19.550  1.00  0.00     0.272 C 
HETATM   11  C9  UNL     1      27.836  11.403  17.779  1.00  0.00     0.272 C 
ENDBRANCH   1   8
TORSDOF 4
ENDMDL
MODEL 2
REMARK VINA RESULT: -4.176997737      0.912      2.050
REMARK  4 active torsions:
REMARK  status: ('A' for Active; 'I' for Inactive)
REMARK    1  A    between atoms: C2_2  and  C3_3 
REMARK    2  A    between atoms: C3_3  and  C4_4 
REMARK    3  A    between atoms: C4_4  and  C5_6 
REMARK    4  A    between atoms: C5_6  and  N1_8 
ROOT
HETATM    1  C5  UNL     1      28.289  12.901  18.604  1.00  0.00     0.254 C 
HETATM    2  C6  UNL     1      27.137  12.261  19.320  1.00  0.00     0.049 C 
ENDROOT
BRANCH   1   3
HETATM    3  C4  UNL     1      28.772  14.134  19.272  1.00  0.00     0.160 C 
HETATM    4  O1  UNL     1      29.000  14.066  20.465  1.00  0.00    -0.295 OA
BRANCH   3   5
HETATM    5  C3  UNL     1      28.991  15.414  18.605  1.00  0.00     0.107 C 
BRANCH   5   6
HETATM    6  C2  UNL     1      28.316  15.467  17.278  1.00  0.00    -0.029 C 
HETATM    7  C1  UNL     1      28.969  15.606  16.149  1.00  0.00     0.007 C 
ENDBRANCH   5   6
ENDBRANCH   3   5
ENDBRANCH   1   3
BRANCH   1   8
HETATM    8  N1  UNL     1      29.355  11.978  18.319  1.00  0.00    -0.068 N 
HETATM    9  C7  UNL     1      30.566  12.617  17.868  1.00  0.00     0.272 C 
HETATM   10  C8  UNL     1      28.933  11.080  17.241  1.00  0.00     0.272 C 
HETATM   11  C9  UNL     1      29.688  11.134  19.441  1.00  0.00     0.272 C 
ENDBRANCH   1   8
TORSDOF 4
ENDMDL
MODEL 3
REMARK VINA RESULT: -4.101328282      1.428      2.577
REMARK  4 active torsions:
REMARK  status: ('A' for Active; 'I' for Inactive)
REMARK    1  A    between atoms: C2_2  and  C3_3 
REMARK    2  A    between atoms: C3_3  and  C4_4 
REMARK    3  A    between atoms: C4_4  and  C5_6 
REMARK    4  A    between atoms: C5_6  and  N1_8 
ROOT
HETATM    1  C5  UNL     1      28.085  14.209  18.169  1.00  0.00     0.254 C 
HETATM    2  C6  UNL     1      27.557  14.916  19.382  1.00  0.00     0.049 C 
ENDROOT
BRANCH   1   3
HETATM    3  C4  UNL     1      29.084  15.011  17.421  1.00  0.00     0.160 C 
HETATM    4  O1  UNL     1      29.492  16.026  17.954  1.00  0.00    -0.295 OA
BRANCH   3   5
HETATM    5  C3  UNL     1      29.606  14.673  16.100  1.00  0.00     0.107 C 
BRANCH   5   6
HETATM    6  C2  UNL     1      29.215  15.681  15.077  1.00  0.00    -0.029 C 
HETATM    7  C1  UNL     1      29.150  15.410  13.795  1.00  0.00     0.007 C 
ENDBRANCH   5   6
ENDBRANCH   3   5
ENDBRANCH   1   3
BRANCH   1   8
HETATM    8  N1  UNL     1      28.553  12.878  18.455  1.00  0.00    -0.068 N 
HETATM    9  C7  UNL     1      28.207  11.916  17.439  1.00  0.00     0.272 C 
HETATM   10  C8  UNL     1      27.933  12.413  19.698  1.00  0.00     0.272 C 
HETATM   11  C9  UNL     1      29.979  12.813  18.664  1.00  0.00     0.272 C 
ENDBRANCH   1   8
TORSDOF 4
ENDMDL
MODEL 4
REMARK VINA RESULT: -4.081907400      0.055      1.210
REMARK  4 active torsions:
REMARK  status: ('A' for Active; 'I' for Inactive)
REMARK    1  A    between atoms: C2_2  and  C3_3 
REMARK    2  A    between atoms: C3_3  and  C4_4 
REMARK    3  A    between atoms: C4_4  and  C5_6 
REMARK    4  A    between atoms: C5_6  and  N1_8 
ROOT
HETATM    1  C5  UNL     1      29.372  12.649  19.187  1.00  0.00     0.254 C 
HETATM    2  C6  UNL     1      30.390  12.554  18.089  1.00  0.00     0.049 C 
ENDROOT
BRANCH   1   3
HETATM    3  C4  UNL     1      28.745  13.990  19.281  1.00  0.00     0.160 C 
HETATM    4  O1  UNL     1      28.828  14.568  20.349  1.00  0.00    -0.295 OA
BRANCH   3   5
HETATM    5  C3  UNL     1      28.040  14.660  18.193  1.00  0.00     0.107 C 
BRANCH   5   6
HETATM    6  C2  UNL     1      28.928  15.605  17.460  1.00  0.00    -0.029 C 
HETATM    7  C1  UNL     1      29.052  15.602  16.154  1.00  0.00     0.007 C 
ENDBRANCH   5   6
ENDBRANCH   3   5
ENDBRANCH   1   3
BRANCH   1   8
HETATM    8  N1  UNL     1      28.399  11.590  19.143  1.00  0.00    -0.068 N 
HETATM    9  C7  UNL     1      28.921  10.311  19.555  1.00  0.00     0.272 C 
HETATM   10  C8  UNL     1      27.937  11.425  17.762  1.00  0.00     0.272 C 
HETATM   11  C9  UNL     1      27.225  11.868  19.932  1.00  0.00     0.272 C 
ENDBRANCH   1   8
TORSDOF 4
ENDMDL
MODEL 5
REMARK VINA RESULT: -4.019392180      1.833      2.298
REMARK  4 active torsions:
REMARK  status: ('A' for Active; 'I' for Inactive)
REMARK    1  A    between atoms: C2_2  and  C3_3 
REMARK    2  A    between atoms: C3_3  and  C4_4 
REMARK    3  A    between atoms: C4_4  and  C5_6 
REMARK    4  A    between atoms: C5_6  and  N1_8 
ROOT
HETATM    1  C5  UNL     1      29.897  12.532  18.503  1.00  0.00     0.254 C 
HETATM    2  C6  UNL     1      30.211  11.066  18.478  1.00  0.00     0.049 C 
ENDROOT
BRANCH   1   3
HETATM    3  C4  UNL     1      29.672  13.100  17.151  1.00  0.00     0.160 C 
HETATM    4  O1  UNL     1      29.017  12.434  16.372  1.00  0.00    -0.295 OA
BRANCH   3   5
HETATM    5  C3  UNL     1      30.178  14.390  16.693  1.00  0.00     0.107 C 
BRANCH   5   6
HETATM    6  C2  UNL     1      29.114  15.196  16.031  1.00  0.00    -0.029 C 
HETATM    7  C1  UNL     1      29.240  15.688  14.821  1.00  0.00     0.007 C 
ENDBRANCH   5   6
ENDBRANCH   3   5
ENDBRANCH   1   3
BRANCH   1   8
HETATM    8  N1  UNL     1      28.838  12.863  19.420  1.00  0.00    -0.068 N 
HETATM    9  C7  UNL     1      28.788  14.263  19.761  1.00  0.00     0.272 C 
HETATM   10  C8  UNL     1      29.051  12.137  20.675  1.00  0.00     0.272 C 
HETATM   11  C9  UNL     1      27.534  12.474  18.943  1.00  0.00     0.272 C 
ENDBRANCH   1   8
TORSDOF 4
ENDMDL
