MODEL 1
REMARK VINA RESULT: -7.869738382      0.000      0.000
REMARK  10 active torsions:
REMARK  status: ('A' for Active; 'I' for Inactive)
REMARK    1  A    between atoms: C3_4  and  C4_5 
REMARK    2  A    between atoms: C5_6  and  C6_7 
REMARK    3  A    between atoms: C6_7  and  C7_8 
REMARK    4  A    between atoms: C7_8  and  N2_9 
REMARK    5  A    between atoms: C10_12  and  C11_13 
REMARK    6  A    between atoms: C11_13  and  C12_14 
REMARK    7  A    between atoms: C12_14  and  N3_15 
REMARK    8  A    between atoms: C16_24  and  C17_25 
REMARK    9  A    between atoms: C17_25  and  N5_26 
REMARK   10  A    between atoms: C20_29  and  C21_30 
ROOT
HETATM    1  C1  UNL     1      17.760 -13.022  19.510  1.00  0.00     0.155 C 
HETATM    2  N1  UNL     1      17.750 -13.543  20.856  1.00  0.00    -0.362 N 
HETATM    3  C2  UNL     1      18.937 -13.695  21.509  1.00  0.00     0.111 A 
HETATM    4  C3  UNL     1      19.041 -14.196  22.785  1.00  0.00     0.033 A 
HETATM    5  C14 UNL     1      17.860 -14.548  23.397  1.00  0.00     0.024 A 
HETATM    6  C15 UNL     1      16.668 -14.389  22.731  1.00  0.00     0.028 A 
HETATM    7  C16 UNL     1      16.584 -13.875  21.427  1.00  0.00     0.029 A 
ENDROOT
BRANCH   4   8
HETATM    8  C4  UNL     1      20.305 -14.349  23.455  1.00  0.00    -0.066 C 
HETATM    9  C5  UNL     1      21.363 -14.470  24.037  1.00  0.00    -0.099 C 
BRANCH   9  10
HETATM   10  C6  UNL     1      22.629 -14.604  24.758  1.00  0.00     0.114 C 
BRANCH  10  11
HETATM   11  C7  UNL     1      22.780 -16.036  25.249  1.00  0.00     0.141 C 
BRANCH  11  12
HETATM   12  N2  UNL     1      23.962 -16.628  24.653  1.00  0.00    -0.352 N 
HETATM   13  C8  UNL     1      24.022 -17.936  24.356  1.00  0.00     0.093 A 
HETATM   14  C9  UNL     1      25.131 -18.520  23.791  1.00  0.00     0.042 A 
HETATM   15  C10 UNL     1      26.220 -17.732  23.522  1.00  0.00     0.013 A 
HETATM   16  N4  UNL     1      26.154 -16.426  23.821  1.00  0.00    -0.356 N 
HETATM   17  C13 UNL     1      25.051 -15.898  24.372  1.00  0.00     0.182 A 
ATOM     18  H4  UNL     1      26.955 -15.825  23.627  1.00  0.00     0.166 HD
BRANCH  15  19
HETATM   19  C11 UNL     1      27.458 -18.324  22.904  1.00  0.00     0.084 C 
BRANCH  19  20
HETATM   20  C12 UNL     1      27.844 -19.508  23.767  1.00  0.00     0.235 C 
BRANCH  20  21
HETATM   21  N3  UNL     1      28.437 -19.020  24.976  1.00  0.00    -0.079 N 
ATOM     22  H33 UNL     1      27.811 -19.099  25.777  1.00  0.00     0.274 HD
ATOM     23  H32 UNL     1      29.182 -19.626  25.318  1.00  0.00     0.274 HD
ATOM     24  H31 UNL     1      28.753 -18.062  24.821  1.00  0.00     0.274 HD
ENDBRANCH  20  21
ENDBRANCH  19  20
ENDBRANCH  15  19
ENDBRANCH  11  12
ENDBRANCH  10  11
ENDBRANCH   9  10
ENDBRANCH   4   8
BRANCH   7  25
HETATM   25  C17 UNL     1      15.248 -13.729  20.796  1.00  0.00     0.184 C 
BRANCH  25  26
HETATM   26  N5  UNL     1      14.281 -13.038  21.622  1.00  0.00    -0.361 N 
HETATM   27  C18 UNL     1      14.346 -11.689  21.683  1.00  0.00     0.091 A 
HETATM   28  C19 UNL     1      13.490 -10.928  22.433  1.00  0.00     0.032 A 
HETATM   29  C20 UNL     1      12.509 -11.567  23.165  1.00  0.00     0.007 A 
HETATM   30  C22 UNL     1      12.443 -12.943  23.102  1.00  0.00     0.032 A 
HETATM   31  C23 UNL     1      13.334 -13.653  22.329  1.00  0.00     0.091 A 
BRANCH  29  32
HETATM   32  C21 UNL     1      11.571 -10.790  23.982  1.00  0.00     0.120 C 
HETATM   33  N6  UNL     1      10.408 -11.205  24.308  1.00  0.00    -0.387 N 
ATOM     34  H62 UNL     1      10.089 -12.123  23.998  1.00  0.00     0.157 HD
ATOM     35  H61 UNL     1       9.756 -10.665  24.876  1.00  0.00     0.157 HD
HETATM   36  N7  UNL     1      12.020  -9.498  24.418  1.00  0.00    -0.082 NA
ENDBRANCH  29  32
ENDBRANCH  25  26
ENDBRANCH   7  25
TORSDOF 10
ENDMDL
MODEL 2
REMARK VINA RESULT: -7.859384395      1.694     11.690
REMARK  10 active torsions:
REMARK  status: ('A' for Active; 'I' for Inactive)
REMARK    1  A    between atoms: C3_4  and  C4_5 
REMARK    2  A    between atoms: C5_6  and  C6_7 
REMARK    3  A    between atoms: C6_7  and  C7_8 
REMARK    4  A    between atoms: C7_8  and  N2_9 
REMARK    5  A    between atoms: C10_12  and  C11_13 
REMARK    6  A    between atoms: C11_13  and  C12_14 
REMARK    7  A    between atoms: C12_14  and  N3_15 
REMARK    8  A    between atoms: C16_24  and  C17_25 
REMARK    9  A    between atoms: C17_25  and  N5_26 
REMARK   10  A    between atoms: C20_29  and  C21_30 
ROOT
HETATM    1  C1  UNL     1      18.475 -15.454  25.964  1.00  0.00     0.155 C 
HETATM    2  N1  UNL     1      18.870 -14.978  24.661  1.00  0.00    -0.362 N 
HETATM    3  C2  UNL     1      17.949 -14.977  23.656  1.00  0.00     0.111 A 
HETATM    4  C3  UNL     1      18.225 -14.559  22.376  1.00  0.00     0.033 A 
HETATM    5  C14 UNL     1      19.511 -14.126  22.142  1.00  0.00     0.024 A 
HETATM    6  C15 UNL     1      20.431 -14.130  23.162  1.00  0.00     0.028 A 
HETATM    7  C16 UNL     1      20.129 -14.561  24.464  1.00  0.00     0.029 A 
ENDROOT
BRANCH   4   8
HETATM    8  C4  UNL     1      17.237 -14.568  21.330  1.00  0.00    -0.066 C 
HETATM    9  C5  UNL     1      16.397 -14.557  20.455  1.00  0.00    -0.099 C 
BRANCH   9  10
HETATM   10  C6  UNL     1      15.374 -14.523  19.409  1.00  0.00     0.114 C 
BRANCH  10  11
HETATM   11  C7  UNL     1      15.076 -13.077  19.041  1.00  0.00     0.141 C 
BRANCH  11  12
HETATM   12  N2  UNL     1      14.220 -12.488  20.053  1.00  0.00    -0.352 N 
HETATM   13  C8  UNL     1      14.691 -11.604  20.946  1.00  0.00     0.093 A 
HETATM   14  C9  UNL     1      13.899 -11.032  21.914  1.00  0.00     0.042 A 
HETATM   15  C10 UNL     1      12.575 -11.381  21.967  1.00  0.00     0.013 A 
HETATM   16  N4  UNL     1      12.110 -12.266  21.071  1.00  0.00    -0.356 N 
HETATM   17  C13 UNL     1      12.919 -12.798  20.143  1.00  0.00     0.182 A 
ATOM     18  H4  UNL     1      11.128 -12.536  21.095  1.00  0.00     0.166 HD
BRANCH  15  19
HETATM   19  C11 UNL     1      11.667 -10.784  23.008  1.00  0.00     0.084 C 
BRANCH  19  20
HETATM   20  C12 UNL     1      11.654 -11.753  24.173  1.00  0.00     0.235 C 
BRANCH  20  21
HETATM   21  N3  UNL     1      10.368 -12.381  24.231  1.00  0.00    -0.079 N 
ATOM     22  H33 UNL     1       9.848 -12.288  23.359  1.00  0.00     0.274 HD
ATOM     23  H32 UNL     1      10.431 -13.398  24.250  1.00  0.00     0.274 HD
ATOM     24  H31 UNL     1       9.858 -12.006  25.032  1.00  0.00     0.274 HD
ENDBRANCH  20  21
ENDBRANCH  19  20
ENDBRANCH  15  19
ENDBRANCH  11  12
ENDBRANCH  10  11
ENDBRANCH   9  10
ENDBRANCH   4   8
BRANCH   7  25
HETATM   25  C17 UNL     1      21.189 -14.515  25.502  1.00  0.00     0.184 C 
BRANCH  25  26
HETATM   26  N5  UNL     1      22.427 -15.153  25.106  1.00  0.00    -0.361 N 
HETATM   27  C18 UNL     1      22.488 -16.503  25.153  1.00  0.00     0.091 A 
HETATM   28  C19 UNL     1      23.604 -17.217  24.808  1.00  0.00     0.032 A 
HETATM   29  C20 UNL     1      24.725 -16.527  24.392  1.00  0.00     0.007 A 
HETATM   30  C22 UNL     1      24.662 -15.151  24.344  1.00  0.00     0.032 A 
HETATM   31  C23 UNL     1      23.510 -14.489  24.705  1.00  0.00     0.091 A 
BRANCH  29  32
HETATM   32  C21 UNL     1      25.943 -17.254  24.014  1.00  0.00     0.120 C 
HETATM   33  N6  UNL     1      26.821 -16.788  23.212  1.00  0.00    -0.387 N 
ATOM     34  H62 UNL     1      26.696 -15.865  22.798  1.00  0.00     0.157 HD
ATOM     35  H61 UNL     1      27.667 -17.293  22.949  1.00  0.00     0.157 HD
HETATM   36  N7  UNL     1      26.120 -18.554  24.596  1.00  0.00    -0.082 NA
ENDBRANCH  29  32
ENDBRANCH  25  26
ENDBRANCH   7  25
TORSDOF 10
ENDMDL
MODEL 3
REMARK VINA RESULT: -7.723801690      1.918     11.472
REMARK  10 active torsions:
REMARK  status: ('A' for Active; 'I' for Inactive)
REMARK    1  A    between atoms: C3_4  and  C4_5 
REMARK    2  A    between atoms: C5_6  and  C6_7 
REMARK    3  A    between atoms: C6_7  and  C7_8 
REMARK    4  A    between atoms: C7_8  and  N2_9 
REMARK    5  A    between atoms: C10_12  and  C11_13 
REMARK    6  A    between atoms: C11_13  and  C12_14 
REMARK    7  A    between atoms: C12_14  and  N3_15 
REMARK    8  A    between atoms: C16_24  and  C17_25 
REMARK    9  A    between atoms: C17_25  and  N5_26 
REMARK   10  A    between atoms: C20_29  and  C21_30 
ROOT
HETATM    1  C1  UNL     1      17.937 -16.366  25.129  1.00  0.00     0.155 C 
HETATM    2  N1  UNL     1      18.179 -15.499  24.001  1.00  0.00    -0.362 N 
HETATM    3  C2  UNL     1      17.371 -15.604  22.908  1.00  0.00     0.111 A 
HETATM    4  C3  UNL     1      17.524 -14.838  21.776  1.00  0.00     0.033 A 
HETATM    5  C14 UNL     1      18.559 -13.931  21.792  1.00  0.00     0.024 A 
HETATM    6  C15 UNL     1      19.367 -13.832  22.900  1.00  0.00     0.028 A 
HETATM    7  C16 UNL     1      19.194 -14.624  24.046  1.00  0.00     0.029 A 
ENDROOT
BRANCH   4   8
HETATM    8  C4  UNL     1      16.659 -14.967  20.634  1.00  0.00    -0.066 C 
HETATM    9  C5  UNL     1      15.915 -15.066  19.681  1.00  0.00    -0.099 C 
BRANCH   9  10
HETATM   10  C6  UNL     1      14.999 -15.178  18.545  1.00  0.00     0.114 C 
BRANCH  10  11
HETATM   11  C7  UNL     1      13.607 -15.526  19.052  1.00  0.00     0.141 C 
BRANCH  11  12
HETATM   12  N2  UNL     1      13.089 -14.422  19.836  1.00  0.00    -0.352 N 
HETATM   13  C8  UNL     1      12.383 -14.625  20.959  1.00  0.00     0.093 A 
HETATM   14  C9  UNL     1      11.881 -13.593  21.719  1.00  0.00     0.042 A 
HETATM   15  C10 UNL     1      12.112 -12.307  21.309  1.00  0.00     0.013 A 
HETATM   16  N4  UNL     1      12.819 -12.110  20.185  1.00  0.00    -0.356 N 
HETATM   17  C13 UNL     1      13.290 -13.146  19.475  1.00  0.00     0.182 A 
ATOM     18  H4  UNL     1      13.001 -11.159  19.866  1.00  0.00     0.166 HD
BRANCH  15  19
HETATM   19  C11 UNL     1      11.584 -11.144  22.104  1.00  0.00     0.084 C 
BRANCH  19  20
HETATM   20  C12 UNL     1      11.680 -11.543  23.563  1.00  0.00     0.235 C 
BRANCH  20  21
HETATM   21  N3  UNL     1      10.507 -11.080  24.242  1.00  0.00    -0.079 N 
ATOM     22  H33 UNL     1      10.728 -10.531  25.073  1.00  0.00     0.274 HD
ATOM     23  H32 UNL     1      10.014 -10.355  23.722  1.00  0.00     0.274 HD
ATOM     24  H31 UNL     1       9.913 -11.883  24.452  1.00  0.00     0.274 HD
ENDBRANCH  20  21
ENDBRANCH  19  20
ENDBRANCH  15  19
ENDBRANCH  11  12
ENDBRANCH  10  11
ENDBRANCH   9  10
ENDBRANCH   4   8
BRANCH   7  25
HETATM   25  C17 UNL     1      20.111 -14.434  25.198  1.00  0.00     0.184 C 
BRANCH  25  26
HETATM   26  N5  UNL     1      21.393 -15.088  25.042  1.00  0.00    -0.361 N 
HETATM   27  C18 UNL     1      22.483 -14.311  24.853  1.00  0.00     0.091 A 
HETATM   28  C19 UNL     1      23.746 -14.814  24.688  1.00  0.00     0.032 A 
HETATM   29  C20 UNL     1      23.918 -16.184  24.716  1.00  0.00     0.007 A 
HETATM   30  C22 UNL     1      22.806 -16.976  24.909  1.00  0.00     0.032 A 
HETATM   31  C23 UNL     1      21.561 -16.410  25.068  1.00  0.00     0.091 A 
BRANCH  29  32
HETATM   32  C21 UNL     1      25.254 -16.765  24.544  1.00  0.00     0.120 C 
HETATM   33  N6  UNL     1      25.971 -17.185  25.514  1.00  0.00    -0.387 N 
ATOM     34  H62 UNL     1      25.621 -17.125  26.470  1.00  0.00     0.157 HD
ATOM     35  H61 UNL     1      26.899 -17.589  25.394  1.00  0.00     0.157 HD
HETATM   36  N7  UNL     1      25.747 -16.849  23.198  1.00  0.00    -0.082 NA
ENDBRANCH  29  32
ENDBRANCH  25  26
ENDBRANCH   7  25
TORSDOF 10
ENDMDL
MODEL 4
REMARK VINA RESULT: -7.602039078      1.179      1.644
REMARK  10 active torsions:
REMARK  status: ('A' for Active; 'I' for Inactive)
REMARK    1  A    between atoms: C3_4  and  C4_5 
REMARK    2  A    between atoms: C5_6  and  C6_7 
REMARK    3  A    between atoms: C6_7  and  C7_8 
REMARK    4  A    between atoms: C7_8  and  N2_9 
REMARK    5  A    between atoms: C10_12  and  C11_13 
REMARK    6  A    between atoms: C11_13  and  C12_14 
REMARK    7  A    between atoms: C12_14  and  N3_15 
REMARK    8  A    between atoms: C16_24  and  C17_25 
REMARK    9  A    between atoms: C17_25  and  N5_26 
REMARK   10  A    between atoms: C20_29  and  C21_30 
ROOT
HETATM    1  C1  UNL     1      16.460 -16.260  21.408  1.00  0.00     0.155 C 
HETATM    2  N1  UNL     1      17.271 -15.107  21.716  1.00  0.00    -0.362 N 
HETATM    3  C2  UNL     1      18.451 -15.292  22.373  1.00  0.00     0.111 A 
HETATM    4  C3  UNL     1      19.291 -14.263  22.728  1.00  0.00     0.033 A 
HETATM    5  C14 UNL     1      18.879 -12.996  22.380  1.00  0.00     0.024 A 
HETATM    6  C15 UNL     1      17.687 -12.821  21.717  1.00  0.00     0.028 A 
HETATM    7  C16 UNL     1      16.844 -13.886  21.364  1.00  0.00     0.029 A 
ENDROOT
BRANCH   4   8
HETATM    8  C4  UNL     1      20.532 -14.482  23.422  1.00  0.00    -0.066 C 
HETATM    9  C5  UNL     1      21.588 -14.657  23.991  1.00  0.00    -0.099 C 
BRANCH   9  10
HETATM   10  C6  UNL     1      22.875 -14.859  24.659  1.00  0.00     0.114 C 
BRANCH  10  11
HETATM   11  C7  UNL     1      22.986 -16.307  25.111  1.00  0.00     0.141 C 
BRANCH  11  12
HETATM   12  N2  UNL     1      24.147 -16.919  24.493  1.00  0.00    -0.352 N 
HETATM   13  C8  UNL     1      24.127 -18.188  24.056  1.00  0.00     0.093 A 
HETATM   14  C9  UNL     1      25.215 -18.789  23.467  1.00  0.00     0.042 A 
HETATM   15  C10 UNL     1      26.365 -18.060  23.321  1.00  0.00     0.013 A 
HETATM   16  N4  UNL     1      26.379 -16.791  23.760  1.00  0.00    -0.356 N 
HETATM   17  C13 UNL     1      25.295 -16.245  24.328  1.00  0.00     0.182 A 
ATOM     18  H4  UNL     1      27.227 -16.234  23.658  1.00  0.00     0.166 HD
BRANCH  15  19
HETATM   19  C11 UNL     1      27.583 -18.671  22.683  1.00  0.00     0.084 C 
BRANCH  19  20
HETATM   20  C12 UNL     1      27.111 -19.922  21.970  1.00  0.00     0.235 C 
BRANCH  20  21
HETATM   21  N3  UNL     1      28.027 -20.218  20.909  1.00  0.00    -0.079 N 
ATOM     22  H33 UNL     1      28.860 -19.630  20.938  1.00  0.00     0.274 HD
ATOM     23  H32 UNL     1      28.487 -21.120  21.030  1.00  0.00     0.274 HD
ATOM     24  H31 UNL     1      27.531 -20.148  20.021  1.00  0.00     0.274 HD
ENDBRANCH  20  21
ENDBRANCH  19  20
ENDBRANCH  15  19
ENDBRANCH  11  12
ENDBRANCH  10  11
ENDBRANCH   9  10
ENDBRANCH   4   8
BRANCH   7  25
HETATM   25  C17 UNL     1      15.584 -13.596  20.637  1.00  0.00     0.184 C 
BRANCH  25  26
HETATM   26  N5  UNL     1      14.544 -13.026  21.468  1.00  0.00    -0.361 N 
HETATM   27  C18 UNL     1      13.747 -13.873  22.157  1.00  0.00     0.091 A 
HETATM   28  C19 UNL     1      12.728 -13.453  22.970  1.00  0.00     0.032 A 
HETATM   29  C20 UNL     1      12.501 -12.098  23.094  1.00  0.00     0.007 A 
HETATM   30  C22 UNL     1      13.314 -11.234  22.391  1.00  0.00     0.032 A 
HETATM   31  C23 UNL     1      14.322 -11.718  21.588  1.00  0.00     0.091 A 
BRANCH  29  32
HETATM   32  C21 UNL     1      11.420 -11.604  23.955  1.00  0.00     0.120 C 
HETATM   33  N6  UNL     1      10.494 -12.350  24.422  1.00  0.00    -0.387 N 
ATOM     34  H62 UNL     1      10.482 -13.346  24.202  1.00  0.00     0.157 HD
ATOM     35  H61 UNL     1       9.743 -12.007  25.020  1.00  0.00     0.157 HD
HETATM   36  N7  UNL     1      11.437 -10.202  24.264  1.00  0.00    -0.082 NA
ENDBRANCH  29  32
ENDBRANCH  25  26
ENDBRANCH   7  25
TORSDOF 10
ENDMDL
MODEL 5
REMARK VINA RESULT: -7.587396586      1.504     12.124
REMARK  10 active torsions:
REMARK  status: ('A' for Active; 'I' for Inactive)
REMARK    1  A    between atoms: C3_4  and  C4_5 
REMARK    2  A    between atoms: C5_6  and  C6_7 
REMARK    3  A    between atoms: C6_7  and  C7_8 
REMARK    4  A    between atoms: C7_8  and  N2_9 
REMARK    5  A    between atoms: C10_12  and  C11_13 
REMARK    6  A    between atoms: C11_13  and  C12_14 
REMARK    7  A    between atoms: C12_14  and  N3_15 
REMARK    8  A    between atoms: C16_24  and  C17_25 
REMARK    9  A    between atoms: C17_25  and  N5_26 
REMARK   10  A    between atoms: C20_29  and  C21_30 
ROOT
HETATM    1  C1  UNL     1      21.066 -14.311  26.177  1.00  0.00     0.155 C 
HETATM    2  N1  UNL     1      20.496 -14.895  24.987  1.00  0.00    -0.362 N 
HETATM    3  C2  UNL     1      19.656 -14.140  24.223  1.00  0.00     0.111 A 
HETATM    4  C3  UNL     1      19.048 -14.603  23.081  1.00  0.00     0.033 A 
HETATM    5  C14 UNL     1      19.332 -15.903  22.726  1.00  0.00     0.024 A 
HETATM    6  C15 UNL     1      20.181 -16.655  23.502  1.00  0.00     0.028 A 
HETATM    7  C16 UNL     1      20.792 -16.163  24.666  1.00  0.00     0.029 A 
ENDROOT
BRANCH   4   8
HETATM    8  C4  UNL     1      18.165 -13.788  22.290  1.00  0.00    -0.066 C 
HETATM    9  C5  UNL     1      17.411 -13.118  21.616  1.00  0.00    -0.099 C 
BRANCH   9  10
HETATM   10  C6  UNL     1      16.495 -12.330  20.791  1.00  0.00     0.114 C 
BRANCH  10  11
HETATM   11  C7  UNL     1      15.181 -13.081  20.638  1.00  0.00     0.141 C 
BRANCH  11  12
HETATM   12  N2  UNL     1      14.210 -12.551  21.576  1.00  0.00    -0.352 N 
HETATM   13  C8  UNL     1      14.046 -11.231  21.751  1.00  0.00     0.093 A 
HETATM   14  C9  UNL     1      13.132 -10.705  22.634  1.00  0.00     0.042 A 
HETATM   15  C10 UNL     1      12.359 -11.567  23.365  1.00  0.00     0.013 A 
HETATM   16  N4  UNL     1      12.527 -12.887  23.186  1.00  0.00    -0.356 N 
HETATM   17  C13 UNL     1      13.430 -13.356  22.313  1.00  0.00     0.182 A 
ATOM     18  H4  UNL     1      11.959 -13.543  23.722  1.00  0.00     0.166 HD
BRANCH  15  19
HETATM   19  C11 UNL     1      11.344 -11.042  24.345  1.00  0.00     0.084 C 
BRANCH  19  20
HETATM   20  C12 UNL     1      11.762  -9.623  24.675  1.00  0.00     0.235 C 
BRANCH  20  21
HETATM   21  N3  UNL     1      10.600  -8.885  25.070  1.00  0.00    -0.079 N 
ATOM     22  H33 UNL     1       9.864  -9.484  25.443  1.00  0.00     0.274 HD
ATOM     23  H32 UNL     1      10.760  -8.323  25.906  1.00  0.00     0.274 HD
ATOM     24  H31 UNL     1      10.284  -8.325  24.278  1.00  0.00     0.274 HD
ENDBRANCH  20  21
ENDBRANCH  19  20
ENDBRANCH  15  19
ENDBRANCH  11  12
ENDBRANCH  10  11
ENDBRANCH   9  10
ENDBRANCH   4   8
BRANCH   7  25
HETATM   25  C17 UNL     1      21.705 -17.049  25.431  1.00  0.00     0.184 C 
BRANCH  25  26
HETATM   26  N5  UNL     1      23.022 -17.182  24.844  1.00  0.00    -0.361 N 
HETATM   27  C18 UNL     1      23.343 -18.360  24.265  1.00  0.00     0.091 A 
HETATM   28  C19 UNL     1      24.558 -18.606  23.682  1.00  0.00     0.032 A 
HETATM   29  C20 UNL     1      25.504 -17.602  23.686  1.00  0.00     0.007 A 
HETATM   30  C22 UNL     1      25.177 -16.400  24.277  1.00  0.00     0.032 A 
HETATM   31  C23 UNL     1      23.938 -16.214  24.847  1.00  0.00     0.091 A 
BRANCH  29  32
HETATM   32  C21 UNL     1      26.819 -17.822  23.073  1.00  0.00     0.120 C 
HETATM   33  N6  UNL     1      27.673 -16.892  22.882  1.00  0.00    -0.387 N 
ATOM     34  H62 UNL     1      27.457 -15.936  23.161  1.00  0.00     0.157 HD
ATOM     35  H61 UNL     1      28.587 -17.046  22.456  1.00  0.00     0.157 HD
HETATM   36  N7  UNL     1      27.124 -19.169  22.680  1.00  0.00    -0.082 NA
ENDBRANCH  29  32
ENDBRANCH  25  26
ENDBRANCH   7  25
TORSDOF 10
ENDMDL
