MODEL 1
REMARK VINA RESULT: -6.959236739      0.000      0.000
REMARK  5 active torsions:
REMARK  status: ('A' for Active; 'I' for Inactive)
REMARK    1  A    between atoms: C2_2  and  C3_3 
REMARK    2  A    between atoms: C2_2  and  N1_15 
REMARK    3  A    between atoms: C3_3  and  C4_4 
REMARK    4  A    between atoms: N1_15  and  O1_16 
REMARK    5  A    between atoms: N1_15  and  C15_18 
ROOT
HETATM    1  C4  UNL     1      20.827   4.655   3.864  1.00  0.00    -0.037 C 
HETATM    2  C5  UNL     1      21.744   5.181   4.902  1.00  0.00     0.014 C 
HETATM    3  C6  UNL     1      23.008   4.315   5.042  1.00  0.00    -0.013 C 
HETATM    4  C7  UNL     1      23.782   4.418   3.779  1.00  0.00     0.009 C 
HETATM    5  C8  UNL     1      22.910   3.849   2.676  1.00  0.00    -0.013 C 
HETATM    6  C9  UNL     1      22.550   2.402   2.971  1.00  0.00     0.014 C 
HETATM    7  C10 UNL     1      21.716   2.396   4.235  1.00  0.00    -0.043 C 
HETATM    8  C11 UNL     1      21.352   0.935   4.499  1.00  0.00     0.015 C 
HETATM    9  C12 UNL     1      22.582   2.899   5.345  1.00  0.00     0.014 C 
HETATM   10  C13 UNL     1      20.463   3.202   4.124  1.00  0.00     0.018 C 
HETATM   11  C14 UNL     1      21.631   4.605   2.541  1.00  0.00     0.014 C 
ENDROOT
BRANCH   1  12
HETATM   12  C3  UNL     1      19.645   5.506   3.604  1.00  0.00     0.037 C 
BRANCH  12  13
HETATM   13  C2  UNL     1      18.345   4.914   3.260  1.00  0.00     0.114 C 
HETATM   14  C1  UNL     1      17.164   5.205   4.104  1.00  0.00     0.035 C 
BRANCH  13  15
HETATM   15  N1  UNL     1      18.013   5.404   1.918  1.00  0.00    -0.232 N 
BRANCH  15  16
HETATM   16  O1  UNL     1      17.695   6.695   1.696  1.00  0.00    -0.285 OA
ATOM     17  H1  UNL     1      16.872   6.943   1.292  1.00  0.00     0.245 HD
ENDBRANCH  15  16
BRANCH  15  18
HETATM   18  C15 UNL     1      18.021   4.518   0.827  1.00  0.00     0.376 C 
HETATM   19  O2  UNL     1      17.086   4.447   0.005  1.00  0.00    -0.281 OA
ENDBRANCH  15  18
ENDBRANCH  13  15
ENDBRANCH  12  13
ENDBRANCH   1  12
TORSDOF 5
ENDMDL
MODEL 2
REMARK VINA RESULT: -6.917157830      3.270      4.588
REMARK  5 active torsions:
REMARK  status: ('A' for Active; 'I' for Inactive)
REMARK    1  A    between atoms: C2_2  and  C3_3 
REMARK    2  A    between atoms: C2_2  and  N1_15 
REMARK    3  A    between atoms: C3_3  and  C4_4 
REMARK    4  A    between atoms: N1_15  and  O1_16 
REMARK    5  A    between atoms: N1_15  and  C15_18 
ROOT
HETATM    1  C4  UNL     1      19.498   4.060   0.758  1.00  0.00    -0.037 C 
HETATM    2  C5  UNL     1      20.860   4.629   0.896  1.00  0.00     0.014 C 
HETATM    3  C6  UNL     1      21.570   4.752  -0.462  1.00  0.00    -0.013 C 
HETATM    4  C7  UNL     1      20.834   5.748  -1.282  1.00  0.00     0.009 C 
HETATM    5  C8  UNL     1      19.437   5.199  -1.500  1.00  0.00    -0.013 C 
HETATM    6  C9  UNL     1      19.495   3.856  -2.209  1.00  0.00     0.014 C 
HETATM    7  C10 UNL     1      20.204   2.891  -1.283  1.00  0.00    -0.043 C 
HETATM    8  C11 UNL     1      20.232   1.545  -2.009  1.00  0.00     0.015 C 
HETATM    9  C12 UNL     1      21.604   3.386  -1.105  1.00  0.00     0.014 C 
HETATM   10  C13 UNL     1      19.524   2.722   0.036  1.00  0.00     0.018 C 
HETATM   11  C14 UNL     1      18.722   4.988  -0.209  1.00  0.00     0.014 C 
ENDROOT
BRANCH   1  12
HETATM   12  C3  UNL     1      18.721   4.021   2.016  1.00  0.00     0.037 C 
BRANCH  12  13
HETATM   13  C2  UNL     1      17.256   4.143   2.006  1.00  0.00     0.114 C 
HETATM   14  C1  UNL     1      16.421   2.933   2.179  1.00  0.00     0.035 C 
BRANCH  13  15
HETATM   15  N1  UNL     1      16.912   5.034   3.120  1.00  0.00    -0.232 N 
BRANCH  15  16
HETATM   16  O1  UNL     1      16.053   4.656   4.087  1.00  0.00    -0.285 OA
ATOM     17  H1  UNL     1      15.318   4.083   3.904  1.00  0.00     0.245 HD
ENDBRANCH  15  16
BRANCH  15  18
HETATM   18  C15 UNL     1      17.485   6.315   3.194  1.00  0.00     0.376 C 
HETATM   19  O2  UNL     1      16.974   7.317   2.655  1.00  0.00    -0.281 OA
ENDBRANCH  15  18
ENDBRANCH  13  15
ENDBRANCH  12  13
ENDBRANCH   1  12
TORSDOF 5
ENDMDL
MODEL 3
REMARK VINA RESULT: -6.908454539      1.390      2.911
REMARK  5 active torsions:
REMARK  status: ('A' for Active; 'I' for Inactive)
REMARK    1  A    between atoms: C2_2  and  C3_3 
REMARK    2  A    between atoms: C2_2  and  N1_15 
REMARK    3  A    between atoms: C3_3  and  C4_4 
REMARK    4  A    between atoms: N1_15  and  O1_16 
REMARK    5  A    between atoms: N1_15  and  C15_18 
ROOT
HETATM    1  C4  UNL     1      21.329   3.693   2.192  1.00  0.00    -0.037 C 
HETATM    2  C5  UNL     1      21.544   2.383   2.852  1.00  0.00     0.014 C 
HETATM    3  C6  UNL     1      22.793   2.391   3.749  1.00  0.00    -0.013 C 
HETATM    4  C7  UNL     1      22.550   3.334   4.871  1.00  0.00     0.009 C 
HETATM    5  C8  UNL     1      22.367   4.711   4.262  1.00  0.00    -0.013 C 
HETATM    6  C9  UNL     1      23.603   5.117   3.475  1.00  0.00     0.014 C 
HETATM    7  C10 UNL     1      23.739   4.144   2.323  1.00  0.00    -0.043 C 
HETATM    8  C11 UNL     1      24.975   4.583   1.537  1.00  0.00     0.015 C 
HETATM    9  C12 UNL     1      23.980   2.789   2.906  1.00  0.00     0.014 C 
HETATM   10  C13 UNL     1      22.556   4.132   1.411  1.00  0.00     0.018 C 
HETATM   11  C14 UNL     1      21.211   4.747   3.321  1.00  0.00     0.014 C 
ENDROOT
BRANCH   1  12
HETATM   12  C3  UNL     1      20.081   3.783   1.403  1.00  0.00     0.037 C 
BRANCH  12  13
HETATM   13  C2  UNL     1      19.673   5.046   0.771  1.00  0.00     0.114 C 
HETATM   14  C1  UNL     1      19.642   5.146  -0.705  1.00  0.00     0.035 C 
BRANCH  13  15
HETATM   15  N1  UNL     1      18.302   5.305   1.222  1.00  0.00    -0.232 N 
BRANCH  15  16
HETATM   16  O1  UNL     1      17.883   6.548   1.533  1.00  0.00    -0.285 OA
ATOM     17  H1  UNL     1      18.496   7.261   1.667  1.00  0.00     0.245 HD
ENDBRANCH  15  16
BRANCH  15  18
HETATM   18  C15 UNL     1      17.390   4.241   1.339  1.00  0.00     0.376 C 
HETATM   19  O2  UNL     1      16.387   4.126   0.606  1.00  0.00    -0.281 OA
ENDBRANCH  15  18
ENDBRANCH  13  15
ENDBRANCH  12  13
ENDBRANCH   1  12
TORSDOF 5
ENDMDL
MODEL 4
REMARK VINA RESULT: -6.902886739      0.381      2.116
REMARK  5 active torsions:
REMARK  status: ('A' for Active; 'I' for Inactive)
REMARK    1  A    between atoms: C2_2  and  C3_3 
REMARK    2  A    between atoms: C2_2  and  N1_15 
REMARK    3  A    between atoms: C3_3  and  C4_4 
REMARK    4  A    between atoms: N1_15  and  O1_16 
REMARK    5  A    between atoms: N1_15  and  C15_18 
ROOT
HETATM    1  C4  UNL     1      20.857   4.603   3.726  1.00  0.00    -0.037 C 
HETATM    2  C5  UNL     1      20.571   3.189   4.066  1.00  0.00     0.014 C 
HETATM    3  C6  UNL     1      21.862   2.375   4.263  1.00  0.00    -0.013 C 
HETATM    4  C7  UNL     1      22.566   2.907   5.458  1.00  0.00     0.009 C 
HETATM    5  C8  UNL     1      22.929   4.349   5.154  1.00  0.00    -0.013 C 
HETATM    6  C9  UNL     1      23.819   4.428   3.924  1.00  0.00     0.014 C 
HETATM    7  C10 UNL     1      23.006   3.925   2.750  1.00  0.00    -0.043 C 
HETATM    8  C11 UNL     1      23.913   4.034   1.524  1.00  0.00     0.015 C 
HETATM    9  C12 UNL     1      22.690   2.487   3.006  1.00  0.00     0.014 C 
HETATM   10  C13 UNL     1      21.760   4.713   2.508  1.00  0.00     0.018 C 
HETATM   11  C14 UNL     1      21.718   5.175   4.879  1.00  0.00     0.014 C 
ENDROOT
BRANCH   1  12
HETATM   12  C3  UNL     1      19.657   5.464   3.633  1.00  0.00     0.037 C 
BRANCH  12  13
HETATM   13  C2  UNL     1      18.349   4.903   3.268  1.00  0.00     0.114 C 
HETATM   14  C1  UNL     1      17.167   5.198   4.109  1.00  0.00     0.035 C 
BRANCH  13  15
HETATM   15  N1  UNL     1      18.036   5.429   1.934  1.00  0.00    -0.232 N 
BRANCH  15  16
HETATM   16  O1  UNL     1      17.691   6.718   1.746  1.00  0.00    -0.285 OA
ATOM     17  H1  UNL     1      16.787   6.978   1.617  1.00  0.00     0.245 HD
ENDBRANCH  15  16
BRANCH  15  18
HETATM   18  C15 UNL     1      18.093   4.579   0.816  1.00  0.00     0.376 C 
HETATM   19  O2  UNL     1      17.158   4.475  -0.003  1.00  0.00    -0.281 OA
ENDBRANCH  15  18
ENDBRANCH  13  15
ENDBRANCH  12  13
ENDBRANCH   1  12
TORSDOF 5
ENDMDL
MODEL 5
REMARK VINA RESULT: -6.901974934      2.373      3.894
REMARK  5 active torsions:
REMARK  status: ('A' for Active; 'I' for Inactive)
REMARK    1  A    between atoms: C2_2  and  C3_3 
REMARK    2  A    between atoms: C2_2  and  N1_15 
REMARK    3  A    between atoms: C3_3  and  C4_4 
REMARK    4  A    between atoms: N1_15  and  O1_16 
REMARK    5  A    between atoms: N1_15  and  C15_18 
ROOT
HETATM    1  C4  UNL     1      21.011   4.238   1.644  1.00  0.00    -0.037 C 
HETATM    2  C5  UNL     1      22.255   4.418   2.430  1.00  0.00     0.014 C 
HETATM    3  C6  UNL     1      21.978   4.448   3.942  1.00  0.00    -0.013 C 
HETATM    4  C7  UNL     1      21.475   3.110   4.347  1.00  0.00     0.009 C 
HETATM    5  C8  UNL     1      20.170   2.885   3.608  1.00  0.00    -0.013 C 
HETATM    6  C9  UNL     1      19.162   3.968   3.958  1.00  0.00     0.014 C 
HETATM    7  C10 UNL     1      19.726   5.282   3.459  1.00  0.00    -0.043 C 
HETATM    8  C11 UNL     1      18.689   6.350   3.803  1.00  0.00     0.015 C 
HETATM    9  C12 UNL     1      20.984   5.549   4.221  1.00  0.00     0.014 C 
HETATM   10  C13 UNL     1      19.978   5.300   1.986  1.00  0.00     0.018 C 
HETATM   11  C14 UNL     1      20.362   2.919   2.130  1.00  0.00     0.014 C 
ENDROOT
BRANCH   1  12
HETATM   12  C3  UNL     1      21.223   4.090   0.188  1.00  0.00     0.037 C 
BRANCH  12  13
HETATM   13  C2  UNL     1      20.650   5.052  -0.764  1.00  0.00     0.114 C 
HETATM   14  C1  UNL     1      21.500   5.607  -1.841  1.00  0.00     0.035 C 
BRANCH  13  15
HETATM   15  N1  UNL     1      19.549   4.355  -1.437  1.00  0.00    -0.232 N 
BRANCH  15  16
HETATM   16  O1  UNL     1      18.365   4.150  -0.828  1.00  0.00    -0.285 OA
ATOM     17  H1  UNL     1      18.155   3.322  -0.413  1.00  0.00     0.245 HD
ENDBRANCH  15  16
BRANCH  15  18
HETATM   18  C15 UNL     1      19.719   3.884  -2.751  1.00  0.00     0.376 C 
HETATM   19  O2  UNL     1      19.029   2.964  -3.235  1.00  0.00    -0.281 OA
ENDBRANCH  15  18
ENDBRANCH  13  15
ENDBRANCH  12  13
ENDBRANCH   1  12
TORSDOF 5
ENDMDL
