MODEL 1
REMARK VINA RESULT: -4.760200938      0.000      0.000
REMARK  6 active torsions:
REMARK  status: ('A' for Active; 'I' for Inactive)
REMARK    1  A    between atoms: N1_1  and  C1_4 
REMARK    2  A    between atoms: C2_7  and  N3_8 
REMARK    3  A    between atoms: N3_8  and  N4_9 
REMARK    4  A    between atoms: N3_8  and  N5_12 
REMARK    5  A    between atoms: C4_16  and  C5_17 
REMARK    6  A    between atoms: C5_17  and  N6_18 
ROOT
HETATM    1  C1  UNL     1       7.990 -22.664 -19.256  1.00  0.00     0.677 A 
HETATM    2  N2  UNL     1       9.273 -22.731 -18.856  1.00  0.00    -0.173 N 
ATOM      3  H2  UNL     1       9.980 -22.274 -19.431  1.00  0.00     0.186 HD
HETATM    4  C2  UNL     1       9.674 -23.365 -17.745  1.00  0.00     0.161 A 
HETATM    5  C3  UNL     1       8.700 -23.975 -16.984  1.00  0.00     0.080 A 
HETATM    6  C4  UNL     1       7.370 -23.930 -17.359  1.00  0.00     0.055 A 
HETATM    7  N7  UNL     1       7.059 -23.272 -18.490  1.00  0.00    -0.194 N 
ATOM      8  H7  UNL     1       6.082 -23.230 -18.780  1.00  0.00     0.184 HD
ENDROOT
BRANCH   4   9
HETATM    9  N3  UNL     1      11.056 -23.397 -17.377  1.00  0.00    -0.192 N 
BRANCH   9  10
HETATM   10  N4  UNL     1      12.012 -23.583 -18.358  1.00  0.00    -0.323 N 
ATOM     11  H42 UNL     1      12.798 -22.935 -18.419  1.00  0.00     0.179 HD
ATOM     12  H41 UNL     1      11.918 -24.367 -19.005  1.00  0.00     0.179 HD
ENDBRANCH   9  10
BRANCH   9  13
HETATM   13  N5  UNL     1      11.453 -23.248 -16.066  1.00  0.00    -0.323 N 
ATOM     14  H52 UNL     1      10.923 -22.631 -15.450  1.00  0.00     0.179 HD
ATOM     15  H51 UNL     1      12.266 -23.742 -15.697  1.00  0.00     0.179 HD
ENDBRANCH   9  13
ENDBRANCH   4   9
BRANCH   1  16
HETATM   16  N1  UNL     1       7.648 -22.032 -20.352  1.00  0.00    -0.234 N 
ATOM     17  H12 UNL     1       8.168 -21.214 -20.666  1.00  0.00     0.174 HD
ATOM     18  H11 UNL     1       6.857 -22.339 -20.918  1.00  0.00     0.174 HD
ENDBRANCH   1  16
BRANCH   6  19
HETATM   19  C5  UNL     1       6.290 -24.556 -16.596  1.00  0.00     0.287 C 
BRANCH  19  20
HETATM   20  N6  UNL     1       5.144 -23.749 -16.389  1.00  0.00    -0.074 N 
ATOM     21  H63 UNL     1       4.889 -23.751 -15.401  1.00  0.00     0.274 HD
ATOM     22  H62 UNL     1       5.383 -22.765 -16.511  1.00  0.00     0.274 HD
ATOM     23  H61 UNL     1       4.332 -23.985 -16.959  1.00  0.00     0.274 HD
ENDBRANCH  19  20
ENDBRANCH   6  19
TORSDOF 6
ENDMDL
MODEL 2
REMARK VINA RESULT: -4.746189342      0.802      4.233
REMARK  6 active torsions:
REMARK  status: ('A' for Active; 'I' for Inactive)
REMARK    1  A    between atoms: N1_1  and  C1_4 
REMARK    2  A    between atoms: C2_7  and  N3_8 
REMARK    3  A    between atoms: N3_8  and  N4_9 
REMARK    4  A    between atoms: N3_8  and  N5_12 
REMARK    5  A    between atoms: C4_16  and  C5_17 
REMARK    6  A    between atoms: C5_17  and  N6_18 
ROOT
HETATM    1  C1  UNL     1       7.880 -22.648 -19.248  1.00  0.00     0.677 A 
HETATM    2  N2  UNL     1       6.818 -23.106 -18.560  1.00  0.00    -0.173 N 
ATOM      3  H2  UNL     1       5.893 -22.999 -18.976  1.00  0.00     0.186 HD
HETATM    4  C2  UNL     1       6.906 -23.693 -17.358  1.00  0.00     0.161 A 
HETATM    5  C3  UNL     1       8.167 -23.827 -16.816  1.00  0.00     0.080 A 
HETATM    6  C4  UNL     1       9.284 -23.370 -17.490  1.00  0.00     0.055 A 
HETATM    7  N7  UNL     1       9.101 -22.793 -18.691  1.00  0.00    -0.194 N 
ATOM      8  H7  UNL     1       9.916 -22.452 -19.200  1.00  0.00     0.184 HD
ENDROOT
BRANCH   4   9
HETATM    9  N3  UNL     1       5.736 -24.158 -16.680  1.00  0.00    -0.192 N 
BRANCH   9  10
HETATM   10  N4  UNL     1       4.829 -23.237 -16.189  1.00  0.00    -0.323 N 
ATOM     11  H42 UNL     1       4.348 -22.613 -16.837  1.00  0.00     0.179 HD
ATOM     12  H41 UNL     1       4.654 -23.196 -15.184  1.00  0.00     0.179 HD
ENDBRANCH   9  10
BRANCH   9  13
HETATM   13  N5  UNL     1       5.494 -25.503 -16.506  1.00  0.00    -0.323 N 
ATOM     14  H52 UNL     1       5.002 -25.819 -15.670  1.00  0.00     0.179 HD
ATOM     15  H51 UNL     1       5.796 -26.191 -17.197  1.00  0.00     0.179 HD
ENDBRANCH   9  13
ENDBRANCH   4   9
BRANCH   1  16
HETATM   16  N1  UNL     1       7.741 -22.080 -20.420  1.00  0.00    -0.234 N 
ATOM     17  H12 UNL     1       7.036 -21.358 -20.571  1.00  0.00     0.174 HD
ATOM     18  H11 UNL     1       8.329 -22.342 -21.211  1.00  0.00     0.174 HD
ENDBRANCH   1  16
BRANCH   6  19
HETATM   19  C5  UNL     1      10.648 -23.482 -16.970  1.00  0.00     0.287 C 
BRANCH  19  20
HETATM   20  N6  UNL     1      11.677 -23.423 -17.943  1.00  0.00    -0.074 N 
ATOM     21  H63 UNL     1      11.431 -24.000 -18.747  1.00  0.00     0.274 HD
ATOM     22  H62 UNL     1      11.692 -22.502 -18.379  1.00  0.00     0.274 HD
ATOM     23  H61 UNL     1      12.609 -23.668 -17.609  1.00  0.00     0.274 HD
ENDBRANCH  19  20
ENDBRANCH   6  19
TORSDOF 6
ENDMDL
MODEL 3
REMARK VINA RESULT: -4.191214202      2.267      4.803
REMARK  6 active torsions:
REMARK  status: ('A' for Active; 'I' for Inactive)
REMARK    1  A    between atoms: N1_1  and  C1_4 
REMARK    2  A    between atoms: C2_7  and  N3_8 
REMARK    3  A    between atoms: N3_8  and  N4_9 
REMARK    4  A    between atoms: N3_8  and  N5_12 
REMARK    5  A    between atoms: C4_16  and  C5_17 
REMARK    6  A    between atoms: C5_17  and  N6_18 
ROOT
HETATM    1  C1  UNL     1      11.584 -21.757 -19.159  1.00  0.00     0.677 A 
HETATM    2  N2  UNL     1      10.312 -22.177 -19.035  1.00  0.00    -0.173 N 
ATOM      3  H2  UNL     1       9.636 -21.875 -19.737  1.00  0.00     0.186 HD
HETATM    4  C2  UNL     1       9.881 -22.969 -18.043  1.00  0.00     0.161 A 
HETATM    5  C3  UNL     1      10.814 -23.364 -17.107  1.00  0.00     0.080 A 
HETATM    6  C4  UNL     1      12.131 -22.955 -17.196  1.00  0.00     0.055 A 
HETATM    7  N7  UNL     1      12.473 -22.160 -18.226  1.00  0.00    -0.194 N 
ATOM      8  H7  UNL     1      13.442 -21.851 -18.306  1.00  0.00     0.184 HD
ENDROOT
BRANCH   4   9
HETATM    9  N3  UNL     1       8.513 -23.379 -17.971  1.00  0.00    -0.192 N 
BRANCH   9  10
HETATM   10  N4  UNL     1       8.096 -24.162 -16.911  1.00  0.00    -0.323 N 
ATOM     11  H42 UNL     1       8.693 -24.922 -16.586  1.00  0.00     0.179 HD
ATOM     12  H41 UNL     1       7.198 -23.966 -16.469  1.00  0.00     0.179 HD
ENDBRANCH   9  10
BRANCH   9  13
HETATM   13  N5  UNL     1       7.603 -23.010 -18.938  1.00  0.00    -0.323 N 
ATOM     14  H52 UNL     1       6.660 -22.736 -18.658  1.00  0.00     0.179 HD
ATOM     15  H51 UNL     1       7.851 -23.005 -19.927  1.00  0.00     0.179 HD
ENDBRANCH   9  13
ENDBRANCH   4   9
BRANCH   1  16
HETATM   16  N1  UNL     1      11.955 -20.982 -20.148  1.00  0.00    -0.234 N 
ATOM     17  H12 UNL     1      11.367 -20.208 -20.454  1.00  0.00     0.174 HD
ATOM     18  H11 UNL     1      12.837 -21.131 -20.638  1.00  0.00     0.174 HD
ENDBRANCH   1  16
BRANCH   6  19
HETATM   19  C5  UNL     1      13.167 -23.339 -16.237  1.00  0.00     0.287 C 
BRANCH  19  20
HETATM   20  N6  UNL     1      14.403 -23.739 -16.803  1.00  0.00    -0.074 N 
ATOM     21  H63 UNL     1      14.253 -24.122 -17.737  1.00  0.00     0.274 HD
ATOM     22  H62 UNL     1      14.964 -22.919 -17.033  1.00  0.00     0.274 HD
ATOM     23  H61 UNL     1      14.951 -24.391 -16.242  1.00  0.00     0.274 HD
ENDBRANCH  19  20
ENDBRANCH   6  19
TORSDOF 6
ENDMDL
MODEL 4
REMARK VINA RESULT: -4.062829395      4.541      6.359
REMARK  6 active torsions:
REMARK  status: ('A' for Active; 'I' for Inactive)
REMARK    1  A    between atoms: N1_1  and  C1_4 
REMARK    2  A    between atoms: C2_7  and  N3_8 
REMARK    3  A    between atoms: N3_8  and  N4_9 
REMARK    4  A    between atoms: N3_8  and  N5_12 
REMARK    5  A    between atoms: C4_16  and  C5_17 
REMARK    6  A    between atoms: C5_17  and  N6_18 
ROOT
HETATM    1  C1  UNL     1      12.049 -21.549 -19.653  1.00  0.00     0.677 A 
HETATM    2  N2  UNL     1      12.767 -21.570 -20.791  1.00  0.00    -0.173 N 
ATOM      3  H2  UNL     1      12.409 -21.055 -21.595  1.00  0.00     0.186 HD
HETATM    4  C2  UNL     1      13.927 -22.229 -20.928  1.00  0.00     0.161 A 
HETATM    5  C3  UNL     1      14.390 -22.917 -19.827  1.00  0.00     0.080 A 
HETATM    6  C4  UNL     1      13.683 -22.922 -18.639  1.00  0.00     0.055 A 
HETATM    7  N7  UNL     1      12.529 -22.233 -18.593  1.00  0.00    -0.194 N 
ATOM      8  H7  UNL     1      11.996 -22.227 -17.723  1.00  0.00     0.184 HD
ENDROOT
BRANCH   4   9
HETATM    9  N3  UNL     1      14.640 -22.209 -22.166  1.00  0.00    -0.192 N 
BRANCH   9  10
HETATM   10  N4  UNL     1      14.341 -23.150 -23.134  1.00  0.00    -0.323 N 
ATOM     11  H42 UNL     1      15.039 -23.380 -23.841  1.00  0.00     0.179 HD
ATOM     12  H41 UNL     1      13.426 -23.601 -23.126  1.00  0.00     0.179 HD
ENDBRANCH   9  10
BRANCH   9  13
HETATM   13  N5  UNL     1      15.620 -21.272 -22.415  1.00  0.00    -0.323 N 
ATOM     14  H52 UNL     1      15.778 -20.523 -21.741  1.00  0.00     0.179 HD
ATOM     15  H51 UNL     1      16.190 -21.312 -23.260  1.00  0.00     0.179 HD
ENDBRANCH   9  13
ENDBRANCH   4   9
BRANCH   1  16
HETATM   16  N1  UNL     1      10.920 -20.889 -19.570  1.00  0.00    -0.234 N 
ATOM     17  H12 UNL     1      10.225 -20.947 -20.314  1.00  0.00     0.174 HD
ATOM     18  H11 UNL     1      10.704 -20.303 -18.764  1.00  0.00     0.174 HD
ENDBRANCH   1  16
BRANCH   6  19
HETATM   19  C5  UNL     1      14.121 -23.631 -17.436  1.00  0.00     0.287 C 
BRANCH  19  20
HETATM   20  N6  UNL     1      15.174 -24.560 -17.626  1.00  0.00    -0.074 N 
ATOM     21  H63 UNL     1      14.831 -25.511 -17.490  1.00  0.00     0.274 HD
ATOM     22  H62 UNL     1      15.431 -24.600 -18.612  1.00  0.00     0.274 HD
ATOM     23  H61 UNL     1      16.004 -24.403 -17.054  1.00  0.00     0.274 HD
ENDBRANCH  19  20
ENDBRANCH   6  19
TORSDOF 6
ENDMDL
MODEL 5
REMARK VINA RESULT: -4.055937183      2.184      5.326
REMARK  6 active torsions:
REMARK  status: ('A' for Active; 'I' for Inactive)
REMARK    1  A    between atoms: N1_1  and  C1_4 
REMARK    2  A    between atoms: C2_7  and  N3_8 
REMARK    3  A    between atoms: N3_8  and  N4_9 
REMARK    4  A    between atoms: N3_8  and  N5_12 
REMARK    5  A    between atoms: C4_16  and  C5_17 
REMARK    6  A    between atoms: C5_17  and  N6_18 
ROOT
HETATM    1  C1  UNL     1      11.407 -23.013 -17.068  1.00  0.00     0.677 A 
HETATM    2  N2  UNL     1      10.131 -23.132 -17.479  1.00  0.00    -0.173 N 
ATOM      3  H2  UNL     1       9.485 -23.659 -16.892  1.00  0.00     0.186 HD
HETATM    4  C2  UNL     1       9.662 -22.599 -18.616  1.00  0.00     0.161 A 
HETATM    5  C3  UNL     1      10.555 -21.891 -19.392  1.00  0.00     0.080 A 
HETATM    6  C4  UNL     1      11.875 -21.745 -19.007  1.00  0.00     0.055 A 
HETATM    7  N7  UNL     1      12.257 -22.315 -17.850  1.00  0.00    -0.194 N 
ATOM      8  H7  UNL     1      13.228 -22.215 -17.552  1.00  0.00     0.184 HD
ENDROOT
BRANCH   4   9
HETATM    9  N3  UNL     1       8.293 -22.764 -18.993  1.00  0.00    -0.192 N 
BRANCH   9  10
HETATM   10  N4  UNL     1       7.817 -22.109 -20.115  1.00  0.00    -0.323 N 
ATOM     11  H42 UNL     1       7.625 -22.644 -20.962  1.00  0.00     0.179 HD
ATOM     12  H41 UNL     1       7.664 -21.101 -20.077  1.00  0.00     0.179 HD
ENDBRANCH   9  10
BRANCH   9  13
HETATM   13  N5  UNL     1       7.438 -23.560 -18.262  1.00  0.00    -0.323 N 
ATOM     14  H52 UNL     1       6.430 -23.439 -18.365  1.00  0.00     0.179 HD
ATOM     15  H51 UNL     1       7.792 -24.269 -17.620  1.00  0.00     0.179 HD
ENDBRANCH   9  13
ENDBRANCH   4   9
BRANCH   1  16
HETATM   16  N1  UNL     1      11.817 -23.554 -15.947  1.00  0.00    -0.234 N 
ATOM     17  H12 UNL     1      11.713 -23.062 -15.061  1.00  0.00     0.174 HD
ATOM     18  H11 UNL     1      12.250 -24.477 -15.930  1.00  0.00     0.174 HD
ENDBRANCH   1  16
BRANCH   6  19
HETATM   19  C5  UNL     1      12.871 -21.007 -19.785  1.00  0.00     0.287 C 
BRANCH  19  20
HETATM   20  N6  UNL     1      13.059 -21.456 -21.115  1.00  0.00    -0.074 N 
ATOM     21  H63 UNL     1      13.287 -22.451 -21.119  1.00  0.00     0.274 HD
ATOM     22  H62 UNL     1      12.167 -21.474 -21.607  1.00  0.00     0.274 HD
ATOM     23  H61 UNL     1      13.748 -20.937 -21.659  1.00  0.00     0.274 HD
ENDBRANCH  19  20
ENDBRANCH   6  19
TORSDOF 6
ENDMDL
