MODEL 1
REMARK VINA RESULT: -6.667376481      0.000      0.000
REMARK  3 active torsions:
REMARK  status: ('A' for Active; 'I' for Inactive)
REMARK    1  A    between atoms: C4_7  and  N3_8 
REMARK    2  A    between atoms: C11_16  and  N5_17 
REMARK       I    between atoms: N5_17  and  C12_19 
REMARK    3  A    between atoms: C12_19  and  C13_21 
ROOT
HETATM    1  C1  UNL     1      21.676  35.026  15.636  1.00  0.00     0.072 C 
HETATM    2  C2  UNL     1      21.300  34.377  16.916  1.00  0.00     0.052 A 
HETATM    3  N1  UNL     1      20.621  34.913  17.914  1.00  0.00    -0.299 N 
ATOM      4  H1  UNL     1      20.260  35.866  17.928  1.00  0.00     0.187 HD
HETATM    5  N2  UNL     1      20.474  34.021  18.911  1.00  0.00    -0.279 N 
HETATM    6  C3  UNL     1      19.784  34.348  20.119  1.00  0.00     0.179 C 
HETATM    7  C4  UNL     1      21.061  32.851  18.592  1.00  0.00     0.149 A 
HETATM    8  C11 UNL     1      21.590  33.070  17.324  1.00  0.00     0.104 A 
ENDROOT
BRANCH   7   9
HETATM    9  N3  UNL     1      21.112  31.638  19.322  1.00  0.00    -0.356 N 
HETATM   10  C5  UNL     1      19.913  30.787  19.305  1.00  0.00     0.155 C 
HETATM   11  C6  UNL     1      20.078  29.500  20.079  1.00  0.00     0.291 C 
HETATM   12  N4  UNL     1      21.249  28.865  19.586  1.00  0.00     0.087 N 
HETATM   13  C7  UNL     1      21.319  27.513  20.093  1.00  0.00     0.310 C 
HETATM   14  C8  UNL     1      22.385  29.602  19.968  1.00  0.00     0.296 C 
HETATM   15  C9  UNL     1      22.156  31.114  20.113  1.00  0.00     0.110 C 
HETATM   16  C10 UNL     1      21.803  31.337  21.602  1.00  0.00     0.034 C 
ENDBRANCH   7   9
BRANCH   8  17
HETATM   17  N5  UNL     1      22.300  32.225  16.433  1.00  0.00    -0.322 N 
HETATM   18  C12 UNL     1      21.638  31.169  15.767  1.00  0.00     0.230 C 
HETATM   19  O1  UNL     1      20.414  30.995  15.978  1.00  0.00    -0.272 OA
ATOM     20  H5  UNL     1      23.295  32.380  16.272  1.00  0.00     0.169 HD
BRANCH  18  21
HETATM   21  C13 UNL     1      22.357  30.273  14.831  1.00  0.00     0.030 C 
HETATM   22  C14 UNL     1      22.033  28.812  15.139  1.00  0.00     0.025 C 
HETATM   23  C15 UNL     1      23.853  30.405  14.945  1.00  0.00     0.025 C 
HETATM   24  C16 UNL     1      21.935  30.541  13.419  1.00  0.00     0.025 C 
ENDBRANCH  18  21
ENDBRANCH   8  17
TORSDOF 3
ENDMDL
MODEL 2
REMARK VINA RESULT: -6.649922979      1.538      4.424
REMARK  3 active torsions:
REMARK  status: ('A' for Active; 'I' for Inactive)
REMARK    1  A    between atoms: C4_7  and  N3_8 
REMARK    2  A    between atoms: C11_16  and  N5_17 
REMARK       I    between atoms: N5_17  and  C12_19 
REMARK    3  A    between atoms: C12_19  and  C13_21 
ROOT
HETATM    1  C1  UNL     1      20.830  27.101  18.870  1.00  0.00     0.072 C 
HETATM    2  C2  UNL     1      20.877  28.517  19.312  1.00  0.00     0.052 A 
HETATM    3  N1  UNL     1      20.344  29.031  20.405  1.00  0.00    -0.299 N 
ATOM      4  H1  UNL     1      19.820  28.502  21.101  1.00  0.00     0.187 HD
HETATM    5  N2  UNL     1      20.591  30.351  20.468  1.00  0.00    -0.279 N 
HETATM    6  C3  UNL     1      20.115  31.155  21.550  1.00  0.00     0.179 C 
HETATM    7  C4  UNL     1      21.308  30.752  19.401  1.00  0.00     0.149 A 
HETATM    8  C11 UNL     1      21.494  29.591  18.659  1.00  0.00     0.104 A 
ENDROOT
BRANCH   7   9
HETATM    9  N3  UNL     1      21.820  32.036  19.088  1.00  0.00    -0.356 N 
HETATM   10  C5  UNL     1      23.224  32.307  19.429  1.00  0.00     0.155 C 
HETATM   11  C6  UNL     1      23.687  33.687  19.022  1.00  0.00     0.291 C 
HETATM   12  N4  UNL     1      23.385  33.836  17.643  1.00  0.00     0.087 N 
HETATM   13  C7  UNL     1      24.035  35.021  17.128  1.00  0.00     0.310 C 
HETATM   14  C8  UNL     1      21.991  33.915  17.468  1.00  0.00     0.296 C 
HETATM   15  C9  UNL     1      21.165  33.142  18.507  1.00  0.00     0.110 C 
HETATM   16  C10 UNL     1      20.845  34.164  19.622  1.00  0.00     0.034 C 
ENDBRANCH   7   9
BRANCH   8  17
HETATM   17  N5  UNL     1      22.187  29.339  17.447  1.00  0.00    -0.322 N 
HETATM   18  C12 UNL     1      21.681  29.820  16.219  1.00  0.00     0.230 C 
HETATM   19  O1  UNL     1      20.610  30.472  16.221  1.00  0.00    -0.272 OA
ATOM     20  H5  UNL     1      23.057  28.806  17.463  1.00  0.00     0.169 HD
BRANCH  18  21
HETATM   21  C13 UNL     1      22.387  29.569  14.940  1.00  0.00     0.030 C 
HETATM   22  C14 UNL     1      21.817  30.458  13.836  1.00  0.00     0.025 C 
HETATM   23  C15 UNL     1      22.225  28.150  14.463  1.00  0.00     0.025 C 
HETATM   24  C16 UNL     1      23.843  29.892  15.073  1.00  0.00     0.025 C 
ENDBRANCH  18  21
ENDBRANCH   8  17
TORSDOF 3
ENDMDL
MODEL 3
REMARK VINA RESULT: -6.510220561      1.667      4.405
REMARK  3 active torsions:
REMARK  status: ('A' for Active; 'I' for Inactive)
REMARK    1  A    between atoms: C4_7  and  N3_8 
REMARK    2  A    between atoms: C11_16  and  N5_17 
REMARK       I    between atoms: N5_17  and  C12_19 
REMARK    3  A    between atoms: C12_19  and  C13_21 
ROOT
HETATM    1  C1  UNL     1      20.833  27.027  18.812  1.00  0.00     0.072 C 
HETATM    2  C2  UNL     1      20.896  28.430  19.293  1.00  0.00     0.052 A 
HETATM    3  N1  UNL     1      20.362  28.921  20.396  1.00  0.00    -0.299 N 
ATOM      4  H1  UNL     1      19.825  28.381  21.074  1.00  0.00     0.187 HD
HETATM    5  N2  UNL     1      20.626  30.236  20.497  1.00  0.00    -0.279 N 
HETATM    6  C3  UNL     1      20.153  31.017  21.597  1.00  0.00     0.179 C 
HETATM    7  C4  UNL     1      21.356  30.656  19.447  1.00  0.00     0.149 A 
HETATM    8  C11 UNL     1      21.532  29.513  18.674  1.00  0.00     0.104 A 
ENDROOT
BRANCH   7   9
HETATM    9  N3  UNL     1      21.887  31.941  19.171  1.00  0.00    -0.356 N 
HETATM   10  C5  UNL     1      20.955  32.967  18.683  1.00  0.00     0.155 C 
HETATM   11  C6  UNL     1      21.607  34.312  18.455  1.00  0.00     0.291 C 
HETATM   12  N4  UNL     1      22.275  34.659  19.658  1.00  0.00     0.087 N 
HETATM   13  C7  UNL     1      22.694  36.042  19.600  1.00  0.00     0.310 C 
HETATM   14  C8  UNL     1      23.381  33.810  19.849  1.00  0.00     0.296 C 
HETATM   15  C9  UNL     1      23.218  32.397  19.267  1.00  0.00     0.110 C 
HETATM   16  C10 UNL     1      23.818  32.467  17.843  1.00  0.00     0.034 C 
ENDBRANCH   7   9
BRANCH   8  17
HETATM   17  N5  UNL     1      22.230  29.284  17.461  1.00  0.00    -0.322 N 
HETATM   18  C12 UNL     1      21.723  29.779  16.238  1.00  0.00     0.230 C 
HETATM   19  O1  UNL     1      20.647  30.423  16.247  1.00  0.00    -0.272 OA
ATOM     20  H5  UNL     1      23.104  28.759  17.471  1.00  0.00     0.169 HD
BRANCH  18  21
HETATM   21  C13 UNL     1      22.434  29.553  14.958  1.00  0.00     0.030 C 
HETATM   22  C14 UNL     1      21.878  30.472  13.871  1.00  0.00     0.025 C 
HETATM   23  C15 UNL     1      22.265  28.147  14.447  1.00  0.00     0.025 C 
HETATM   24  C16 UNL     1      23.892  29.862  15.106  1.00  0.00     0.025 C 
ENDBRANCH  18  21
ENDBRANCH   8  17
TORSDOF 3
ENDMDL
MODEL 4
REMARK VINA RESULT: -6.375619877      2.349      5.673
REMARK  3 active torsions:
REMARK  status: ('A' for Active; 'I' for Inactive)
REMARK    1  A    between atoms: C4_7  and  N3_8 
REMARK    2  A    between atoms: C11_16  and  N5_17 
REMARK       I    between atoms: N5_17  and  C12_19 
REMARK    3  A    between atoms: C12_19  and  C13_21 
ROOT
HETATM    1  C1  UNL     1      24.833  32.245  21.476  1.00  0.00     0.072 C 
HETATM    2  C2  UNL     1      24.753  32.026  20.011  1.00  0.00     0.052 A 
HETATM    3  N1  UNL     1      25.683  32.288  19.112  1.00  0.00    -0.299 N 
ATOM      4  H1  UNL     1      26.599  32.685  19.320  1.00  0.00     0.187 HD
HETATM    5  N2  UNL     1      25.249  31.959  17.882  1.00  0.00    -0.279 N 
HETATM    6  C3  UNL     1      26.060  32.151  16.720  1.00  0.00     0.179 C 
HETATM    7  C4  UNL     1      24.000  31.459  17.937  1.00  0.00     0.149 A 
HETATM    8  C11 UNL     1      23.675  31.499  19.289  1.00  0.00     0.104 A 
ENDROOT
BRANCH   7   9
HETATM    9  N3  UNL     1      23.183  30.952  16.895  1.00  0.00    -0.356 N 
HETATM   10  C5  UNL     1      22.149  31.844  16.352  1.00  0.00     0.155 C 
HETATM   11  C6  UNL     1      21.356  31.228  15.222  1.00  0.00     0.291 C 
HETATM   12  N4  UNL     1      22.293  30.770  14.259  1.00  0.00     0.087 N 
HETATM   13  C7  UNL     1      21.603  30.412  13.040  1.00  0.00     0.310 C 
HETATM   14  C8  UNL     1      23.002  29.669  14.773  1.00  0.00     0.296 C 
HETATM   15  C9  UNL     1      23.186  29.674  16.299  1.00  0.00     0.110 C 
HETATM   16  C10 UNL     1      21.993  28.867  16.860  1.00  0.00     0.034 C 
ENDBRANCH   7   9
BRANCH   8  17
HETATM   17  N5  UNL     1      22.518  31.091  20.000  1.00  0.00    -0.322 N 
HETATM   18  C12 UNL     1      21.404  31.952  20.111  1.00  0.00     0.230 C 
HETATM   19  O1  UNL     1      21.457  33.081  19.569  1.00  0.00    -0.272 OA
ATOM     20  H5  UNL     1      22.491  30.169  20.436  1.00  0.00     0.169 HD
BRANCH  18  21
HETATM   21  C13 UNL     1      20.184  31.548  20.849  1.00  0.00     0.030 C 
HETATM   22  C14 UNL     1      19.689  30.189  20.355  1.00  0.00     0.025 C 
HETATM   23  C15 UNL     1      19.044  32.510  20.643  1.00  0.00     0.025 C 
HETATM   24  C16 UNL     1      20.475  31.418  22.312  1.00  0.00     0.025 C 
ENDBRANCH  18  21
ENDBRANCH   8  17
TORSDOF 3
ENDMDL
MODEL 5
REMARK VINA RESULT: -6.374241614      1.813      6.212
REMARK  3 active torsions:
REMARK  status: ('A' for Active; 'I' for Inactive)
REMARK    1  A    between atoms: C4_7  and  N3_8 
REMARK    2  A    between atoms: C11_16  and  N5_17 
REMARK       I    between atoms: N5_17  and  C12_19 
REMARK    3  A    between atoms: C12_19  and  C13_21 
ROOT
HETATM    1  C1  UNL     1      20.875  26.731  19.756  1.00  0.00     0.072 C 
HETATM    2  C2  UNL     1      21.355  27.511  18.589  1.00  0.00     0.052 A 
HETATM    3  N1  UNL     1      21.569  27.066  17.364  1.00  0.00    -0.299 N 
ATOM      4  H1  UNL     1      21.425  26.103  17.061  1.00  0.00     0.187 HD
HETATM    5  N2  UNL     1      22.004  28.064  16.574  1.00  0.00    -0.279 N 
HETATM    6  C3  UNL     1      22.322  27.850  15.197  1.00  0.00     0.179 C 
HETATM    7  C4  UNL     1      22.090  29.215  17.267  1.00  0.00     0.149 A 
HETATM    8  C11 UNL     1      21.680  28.872  18.551  1.00  0.00     0.104 A 
ENDROOT
BRANCH   7   9
HETATM    9  N3  UNL     1      22.459  30.510  16.825  1.00  0.00    -0.356 N 
HETATM   10  C5  UNL     1      21.442  31.297  16.113  1.00  0.00     0.155 C 
HETATM   11  C6  UNL     1      21.918  32.676  15.716  1.00  0.00     0.291 C 
HETATM   12  N4  UNL     1      22.417  33.298  16.891  1.00  0.00     0.087 N 
HETATM   13  C7  UNL     1      22.642  34.703  16.639  1.00  0.00     0.310 C 
HETATM   14  C8  UNL     1      23.608  32.665  17.293  1.00  0.00     0.296 C 
HETATM   15  C9  UNL     1      23.699  31.173  16.938  1.00  0.00     0.110 C 
HETATM   16  C10 UNL     1      24.412  31.119  15.567  1.00  0.00     0.034 C 
ENDBRANCH   7   9
BRANCH   8  17
HETATM   17  N5  UNL     1      21.521  29.639  19.734  1.00  0.00    -0.322 N 
HETATM   18  C12 UNL     1      20.467  30.573  19.846  1.00  0.00     0.230 C 
HETATM   19  O1  UNL     1      19.677  30.711  18.883  1.00  0.00    -0.272 OA
ATOM     20  H5  UNL     1      22.172  29.515  20.509  1.00  0.00     0.169 HD
BRANCH  18  21
HETATM   21  C13 UNL     1      20.281  31.385  21.072  1.00  0.00     0.030 C 
HETATM   22  C14 UNL     1      19.383  32.587  20.781  1.00  0.00     0.025 C 
HETATM   23  C15 UNL     1      21.578  31.946  21.592  1.00  0.00     0.025 C 
HETATM   24  C16 UNL     1      19.618  30.575  22.142  1.00  0.00     0.025 C 
ENDBRANCH  18  21
ENDBRANCH   8  17
TORSDOF 3
ENDMDL
