MODEL 1
REMARK VINA RESULT: -5.319699323      0.000      0.000
REMARK  8 active torsions:
REMARK  status: ('A' for Active; 'I' for Inactive)
REMARK    1  A    between atoms: C2_2  and  C3_3 
REMARK    2  A    between atoms: C3_3  and  C4_4 
REMARK    3  A    between atoms: C4_4  and  N1_5 
REMARK    4  A    between atoms: N1_5  and  C5_8 
REMARK    5  A    between atoms: C5_8  and  C6_9 
REMARK    6  A    between atoms: C8_11  and  C9_12 
REMARK    7  A    between atoms: C9_12  and  C11_14 
REMARK    8  A    between atoms: C11_14  and  N2_15 
ROOT
HETATM    1  C6  UNL     1      63.685  11.445  24.715  1.00  0.00    -0.057 A 
HETATM    2  C7  UNL     1      64.494  11.878  25.666  1.00  0.00    -0.017 A 
HETATM    3  C8  UNL     1      64.570  10.529  26.234  1.00  0.00     0.018 A 
HETATM    4  C12 UNL     1      63.669  10.026  25.177  1.00  0.00     0.044 A 
ENDROOT
BRANCH   1   5
HETATM    5  C5  UNL     1      63.021  12.145  23.564  1.00  0.00     0.266 C 
BRANCH   5   6
HETATM    6  N1  UNL     1      63.958  13.030  22.950  1.00  0.00    -0.071 N 
ATOM      7  H12 UNL     1      64.415  13.622  23.643  1.00  0.00     0.277 HD
ATOM      8  H11 UNL     1      63.483  13.752  22.407  1.00  0.00     0.277 HD
BRANCH   6   9
HETATM    9  C4  UNL     1      64.935  12.319  22.140  1.00  0.00     0.236 C 
BRANCH   9  10
HETATM   10  C3  UNL     1      66.161  13.132  21.828  1.00  0.00     0.054 C 
BRANCH  10  11
HETATM   11  C2  UNL     1      67.354  12.625  22.544  1.00  0.00    -0.035 C 
HETATM   12  C1  UNL     1      67.499  12.690  23.852  1.00  0.00     0.007 C 
ENDBRANCH  10  11
ENDBRANCH   9  10
ENDBRANCH   6   9
ENDBRANCH   5   6
ENDBRANCH   1   5
BRANCH   3  13
HETATM   13  C9  UNL     1      65.957   9.945  26.340  1.00  0.00     0.015 C 
HETATM   14  C10 UNL     1      65.960   8.588  26.996  1.00  0.00     0.012 C 
BRANCH  13  15
HETATM   15  C11 UNL     1      66.776  10.894  27.173  1.00  0.00     0.234 C 
BRANCH  15  16
HETATM   16  N2  UNL     1      67.919  10.295  27.792  1.00  0.00    -0.079 N 
ATOM     17  H23 UNL     1      68.636  10.998  27.975  1.00  0.00     0.274 HD
ATOM     18  H22 UNL     1      67.702  10.017  28.749  1.00  0.00     0.274 HD
ATOM     19  H21 UNL     1      68.314   9.510  27.274  1.00  0.00     0.274 HD
ENDBRANCH  15  16
ENDBRANCH  13  15
ENDBRANCH   3  13
TORSDOF 8
ENDMDL
MODEL 2
REMARK VINA RESULT: -5.280098908      2.096      2.697
REMARK  8 active torsions:
REMARK  status: ('A' for Active; 'I' for Inactive)
REMARK    1  A    between atoms: C2_2  and  C3_3 
REMARK    2  A    between atoms: C3_3  and  C4_4 
REMARK    3  A    between atoms: C4_4  and  N1_5 
REMARK    4  A    between atoms: N1_5  and  C5_8 
REMARK    5  A    between atoms: C5_8  and  C6_9 
REMARK    6  A    between atoms: C8_11  and  C9_12 
REMARK    7  A    between atoms: C9_12  and  C11_14 
REMARK    8  A    between atoms: C11_14  and  N2_15 
ROOT
HETATM    1  C6  UNL     1      63.631  12.406  26.743  1.00  0.00    -0.057 A 
HETATM    2  C7  UNL     1      64.951  12.415  26.684  1.00  0.00    -0.017 A 
HETATM    3  C8  UNL     1      65.000  11.064  27.248  1.00  0.00     0.018 A 
HETATM    4  C12 UNL     1      63.525  11.033  27.319  1.00  0.00     0.044 A 
ENDROOT
BRANCH   1   5
HETATM    5  C5  UNL     1      62.599  13.426  26.355  1.00  0.00     0.266 C 
BRANCH   5   6
HETATM    6  N1  UNL     1      62.663  13.644  24.946  1.00  0.00    -0.071 N 
ATOM      7  H12 UNL     1      63.593  13.954  24.662  1.00  0.00     0.277 HD
ATOM      8  H11 UNL     1      62.128  14.470  24.675  1.00  0.00     0.277 HD
BRANCH   6   9
HETATM    9  C4  UNL     1      62.246  12.476  24.189  1.00  0.00     0.236 C 
BRANCH   9  10
HETATM   10  C3  UNL     1      63.237  12.054  23.140  1.00  0.00     0.054 C 
BRANCH  10  11
HETATM   11  C2  UNL     1      63.657  10.644  23.315  1.00  0.00    -0.035 C 
HETATM   12  C1  UNL     1      62.902   9.725  23.881  1.00  0.00     0.007 C 
ENDBRANCH  10  11
ENDBRANCH   9  10
ENDBRANCH   6   9
ENDBRANCH   5   6
ENDBRANCH   1   5
BRANCH   3  13
HETATM   13  C9  UNL     1      65.705  10.032  26.404  1.00  0.00     0.015 C 
HETATM   14  C10 UNL     1      65.446   8.626  26.879  1.00  0.00     0.012 C 
BRANCH  13  15
HETATM   15  C11 UNL     1      67.181  10.316  26.494  1.00  0.00     0.234 C 
BRANCH  15  16
HETATM   16  N2  UNL     1      67.789   9.877  27.713  1.00  0.00    -0.079 N 
ATOM     17  H23 UNL     1      68.488  10.551  28.026  1.00  0.00     0.274 HD
ATOM     18  H22 UNL     1      67.128   9.941  28.486  1.00  0.00     0.274 HD
ATOM     19  H21 UNL     1      68.193   8.941  27.666  1.00  0.00     0.274 HD
ENDBRANCH  15  16
ENDBRANCH  13  15
ENDBRANCH   3  13
TORSDOF 8
ENDMDL
MODEL 3
REMARK VINA RESULT: -5.224605377      2.025      3.325
REMARK  8 active torsions:
REMARK  status: ('A' for Active; 'I' for Inactive)
REMARK    1  A    between atoms: C2_2  and  C3_3 
REMARK    2  A    between atoms: C3_3  and  C4_4 
REMARK    3  A    between atoms: C4_4  and  N1_5 
REMARK    4  A    between atoms: N1_5  and  C5_8 
REMARK    5  A    between atoms: C5_8  and  C6_9 
REMARK    6  A    between atoms: C8_11  and  C9_12 
REMARK    7  A    between atoms: C9_12  and  C11_14 
REMARK    8  A    between atoms: C11_14  and  N2_15 
ROOT
HETATM    1  C6  UNL     1      63.777  11.872  25.803  1.00  0.00    -0.057 A 
HETATM    2  C7  UNL     1      64.992  12.176  26.226  1.00  0.00    -0.017 A 
HETATM    3  C8  UNL     1      65.078  10.898  26.937  1.00  0.00     0.018 A 
HETATM    4  C12 UNL     1      63.723  10.540  26.474  1.00  0.00     0.044 A 
ENDROOT
BRANCH   1   5
HETATM    5  C5  UNL     1      62.797  12.615  24.941  1.00  0.00     0.266 C 
BRANCH   5   6
HETATM    6  N1  UNL     1      63.390  12.864  23.666  1.00  0.00    -0.071 N 
ATOM      7  H12 UNL     1      64.409  12.854  23.725  1.00  0.00     0.277 HD
ATOM      8  H11 UNL     1      63.254  13.834  23.379  1.00  0.00     0.277 HD
BRANCH   6   9
HETATM    9  C4  UNL     1      62.914  11.942  22.648  1.00  0.00     0.236 C 
BRANCH   9  10
HETATM   10  C3  UNL     1      61.492  11.500  22.857  1.00  0.00     0.054 C 
BRANCH  10  11
HETATM   11  C2  UNL     1      60.578  12.091  21.852  1.00  0.00    -0.035 C 
HETATM   12  C1  UNL     1      59.442  12.682  22.160  1.00  0.00     0.007 C 
ENDBRANCH  10  11
ENDBRANCH   9  10
ENDBRANCH   6   9
ENDBRANCH   5   6
ENDBRANCH   1   5
BRANCH   3  13
HETATM   13  C9  UNL     1      66.234  10.012  26.546  1.00  0.00     0.015 C 
HETATM   14  C10 UNL     1      66.045   8.587  26.996  1.00  0.00     0.012 C 
BRANCH  13  15
HETATM   15  C11 UNL     1      67.467  10.573  27.203  1.00  0.00     0.234 C 
BRANCH  15  16
HETATM   16  N2  UNL     1      68.685   9.930  26.813  1.00  0.00    -0.079 N 
ATOM     17  H23 UNL     1      68.628   9.614  25.844  1.00  0.00     0.274 HD
ATOM     18  H22 UNL     1      69.438  10.613  26.727  1.00  0.00     0.274 HD
ATOM     19  H21 UNL     1      68.968   9.163  27.422  1.00  0.00     0.274 HD
ENDBRANCH  15  16
ENDBRANCH  13  15
ENDBRANCH   3  13
TORSDOF 8
ENDMDL
MODEL 4
REMARK VINA RESULT: -5.159782594      1.083      1.344
REMARK  8 active torsions:
REMARK  status: ('A' for Active; 'I' for Inactive)
REMARK    1  A    between atoms: C2_2  and  C3_3 
REMARK    2  A    between atoms: C3_3  and  C4_4 
REMARK    3  A    between atoms: C4_4  and  N1_5 
REMARK    4  A    between atoms: N1_5  and  C5_8 
REMARK    5  A    between atoms: C5_8  and  C6_9 
REMARK    6  A    between atoms: C8_11  and  C9_12 
REMARK    7  A    between atoms: C9_12  and  C11_14 
REMARK    8  A    between atoms: C11_14  and  N2_15 
ROOT
HETATM    1  C6  UNL     1      64.432  11.489  24.563  1.00  0.00    -0.057 A 
HETATM    2  C7  UNL     1      65.613  11.854  25.032  1.00  0.00    -0.017 A 
HETATM    3  C8  UNL     1      65.443  10.969  26.187  1.00  0.00     0.018 A 
HETATM    4  C12 UNL     1      64.122  10.547  25.680  1.00  0.00     0.044 A 
ENDROOT
BRANCH   1   5
HETATM    5  C5  UNL     1      63.673  11.884  23.329  1.00  0.00     0.266 C 
BRANCH   5   6
HETATM    6  N1  UNL     1      64.144  13.154  22.876  1.00  0.00    -0.071 N 
ATOM      7  H12 UNL     1      64.741  13.596  23.575  1.00  0.00     0.277 HD
ATOM      8  H11 UNL     1      63.389  13.840  22.851  1.00  0.00     0.277 HD
BRANCH   6   9
HETATM    9  C4  UNL     1      64.817  13.064  21.591  1.00  0.00     0.236 C 
BRANCH   9  10
HETATM   10  C3  UNL     1      66.316  13.098  21.694  1.00  0.00     0.054 C 
BRANCH  10  11
HETATM   11  C2  UNL     1      66.964  12.571  20.471  1.00  0.00    -0.035 C 
HETATM   12  C1  UNL     1      68.055  11.832  20.486  1.00  0.00     0.007 C 
ENDBRANCH  10  11
ENDBRANCH   9  10
ENDBRANCH   6   9
ENDBRANCH   5   6
ENDBRANCH   1   5
BRANCH   3  13
HETATM   13  C9  UNL     1      66.515   9.924  26.371  1.00  0.00     0.015 C 
HETATM   14  C10 UNL     1      66.009   8.701  27.089  1.00  0.00     0.012 C 
BRANCH  13  15
HETATM   15  C11 UNL     1      67.613  10.553  27.188  1.00  0.00     0.234 C 
BRANCH  15  16
HETATM   16  N2  UNL     1      68.923  10.058  26.890  1.00  0.00    -0.079 N 
ATOM     17  H23 UNL     1      69.128   9.231  27.450  1.00  0.00     0.274 HD
ATOM     18  H22 UNL     1      68.945   9.646  25.957  1.00  0.00     0.274 HD
ATOM     19  H21 UNL     1      69.665  10.750  26.991  1.00  0.00     0.274 HD
ENDBRANCH  15  16
ENDBRANCH  13  15
ENDBRANCH   3  13
TORSDOF 8
ENDMDL
MODEL 5
REMARK VINA RESULT: -5.157922382      3.431      5.304
REMARK  8 active torsions:
REMARK  status: ('A' for Active; 'I' for Inactive)
REMARK    1  A    between atoms: C2_2  and  C3_3 
REMARK    2  A    between atoms: C3_3  and  C4_4 
REMARK    3  A    between atoms: C4_4  and  N1_5 
REMARK    4  A    between atoms: N1_5  and  C5_8 
REMARK    5  A    between atoms: C5_8  and  C6_9 
REMARK    6  A    between atoms: C8_11  and  C9_12 
REMARK    7  A    between atoms: C9_12  and  C11_14 
REMARK    8  A    between atoms: C11_14  and  N2_15 
ROOT
HETATM    1  C6  UNL     1      62.487  11.619  23.492  1.00  0.00    -0.057 A 
HETATM    2  C7  UNL     1      63.432  10.718  23.694  1.00  0.00    -0.017 A 
HETATM    3  C8  UNL     1      63.861  11.420  24.906  1.00  0.00     0.018 A 
HETATM    4  C12 UNL     1      62.809  12.436  24.699  1.00  0.00     0.044 A 
ENDROOT
BRANCH   1   5
HETATM    5  C5  UNL     1      61.446  11.762  22.419  1.00  0.00     0.266 C 
BRANCH   5   6
HETATM    6  N1  UNL     1      60.524  12.787  22.794  1.00  0.00    -0.071 N 
ATOM      7  H12 UNL     1      60.939  13.713  22.686  1.00  0.00     0.277 HD
ATOM      8  H11 UNL     1      60.371  12.794  23.803  1.00  0.00     0.277 HD
BRANCH   6   9
HETATM    9  C4  UNL     1      59.267  12.687  22.071  1.00  0.00     0.236 C 
BRANCH   9  10
HETATM   10  C3  UNL     1      58.469  13.961  22.074  1.00  0.00     0.054 C 
BRANCH  10  11
HETATM   11  C2  UNL     1      57.044  13.719  21.750  1.00  0.00    -0.035 C 
HETATM   12  C1  UNL     1      56.589  12.575  21.282  1.00  0.00     0.007 C 
ENDBRANCH  10  11
ENDBRANCH   9  10
ENDBRANCH   6   9
ENDBRANCH   5   6
ENDBRANCH   1   5
BRANCH   3  13
HETATM   13  C9  UNL     1      63.838  10.603  26.174  1.00  0.00     0.015 C 
HETATM   14  C10 UNL     1      63.650  11.454  27.403  1.00  0.00     0.012 C 
BRANCH  13  15
HETATM   15  C11 UNL     1      65.162   9.891  26.268  1.00  0.00     0.234 C 
BRANCH  15  16
HETATM   16  N2  UNL     1      65.190   8.829  27.227  1.00  0.00    -0.079 N 
ATOM     17  H23 UNL     1      64.844   9.153  28.130  1.00  0.00     0.274 HD
ATOM     18  H22 UNL     1      64.478   8.132  27.009  1.00  0.00     0.274 HD
ATOM     19  H21 UNL     1      66.102   8.385  27.333  1.00  0.00     0.274 HD
ENDBRANCH  15  16
ENDBRANCH  13  15
ENDBRANCH   3  13
TORSDOF 8
ENDMDL
