MODEL 1
REMARK VINA RESULT: -5.228552162      0.000      0.000
REMARK  7 active torsions:
REMARK  status: ('A' for Active; 'I' for Inactive)
REMARK    1  A    between atoms: C2_2  and  C3_3 
REMARK    2  A    between atoms: C3_3  and  C4_4 
REMARK    3  A    between atoms: C3_3  and  N1_6 
REMARK    4  A    between atoms: N1_6  and  C6_8 
REMARK    5  A    between atoms: C6_8  and  C7_9 
REMARK    6  A    between atoms: C7_9  and  N2_10 
REMARK    7  A    between atoms: N2_10  and  C8_12 
ROOT
HETATM    1  C6  UNL     1      62.921  12.273  23.920  1.00  0.00     0.133 C 
ENDROOT
BRANCH   1   2
HETATM    2  N1  UNL     1      62.523  13.316  24.790  1.00  0.00    -0.416 N 
ATOM      3  H1  UNL     1      62.202  14.220  24.445  1.00  0.00     0.153 HD
BRANCH   2   4
HETATM    4  C3  UNL     1      62.602  13.016  26.184  1.00  0.00     0.076 C 
BRANCH   4   5
HETATM    5  C2  UNL     1      62.581  14.166  27.111  1.00  0.00     0.020 C 
HETATM    6  C1  UNL     1      61.449  14.251  28.065  1.00  0.00     0.007 C 
ENDBRANCH   4   5
BRANCH   4   7
HETATM    7  C4  UNL     1      63.725  12.041  26.438  1.00  0.00     0.020 C 
HETATM    8  C5  UNL     1      64.679  12.465  27.513  1.00  0.00     0.007 C 
ENDBRANCH   4   7
ENDBRANCH   2   4
ENDBRANCH   1   2
BRANCH   1   9
HETATM    9  C7  UNL     1      61.805  11.801  23.028  1.00  0.00     0.133 C 
BRANCH   9  10
HETATM   10  N2  UNL     1      60.800  12.787  22.933  1.00  0.00    -0.416 N 
ATOM     11  H2  UNL     1      60.915  13.703  23.365  1.00  0.00     0.153 HD
BRANCH  10  12
HETATM   12  C8  UNL     1      59.626  12.455  22.215  1.00  0.00     0.076 C 
HETATM   13  C9  UNL     1      58.586  13.516  22.039  1.00  0.00     0.024 C 
HETATM   14  C10 UNL     1      58.283  12.917  20.661  1.00  0.00     0.004 C 
HETATM   15  C11 UNL     1      59.718  12.371  20.709  1.00  0.00     0.024 C 
ENDBRANCH  10  12
ENDBRANCH   9  10
ENDBRANCH   1   9
TORSDOF 7
ENDMDL
MODEL 2
REMARK VINA RESULT: -5.218777938      1.203      2.216
REMARK  7 active torsions:
REMARK  status: ('A' for Active; 'I' for Inactive)
REMARK    1  A    between atoms: C2_2  and  C3_3 
REMARK    2  A    between atoms: C3_3  and  C4_4 
REMARK    3  A    between atoms: C3_3  and  N1_6 
REMARK    4  A    between atoms: N1_6  and  C6_8 
REMARK    5  A    between atoms: C6_8  and  C7_9 
REMARK    6  A    between atoms: C7_9  and  N2_10 
REMARK    7  A    between atoms: N2_10  and  C8_12 
ROOT
HETATM    1  C6  UNL     1      62.066  11.876  23.243  1.00  0.00     0.133 C 
ENDROOT
BRANCH   1   2
HETATM    2  N1  UNL     1      61.976  12.772  24.335  1.00  0.00    -0.416 N 
ATOM      3  H1  UNL     1      61.249  13.483  24.397  1.00  0.00     0.153 HD
BRANCH   2   4
HETATM    4  C3  UNL     1      62.975  12.611  25.343  1.00  0.00     0.076 C 
BRANCH   4   5
HETATM    5  C2  UNL     1      63.712  11.331  25.347  1.00  0.00     0.020 C 
HETATM    6  C1  UNL     1      63.766  10.578  26.623  1.00  0.00     0.007 C 
ENDBRANCH   4   5
BRANCH   4   7
HETATM    7  C4  UNL     1      62.416  13.004  26.689  1.00  0.00     0.020 C 
HETATM    8  C5  UNL     1      62.874  14.343  27.180  1.00  0.00     0.007 C 
ENDBRANCH   4   7
ENDBRANCH   2   4
ENDBRANCH   1   2
BRANCH   1   9
HETATM    9  C7  UNL     1      60.858  11.925  22.348  1.00  0.00     0.133 C 
BRANCH   9  10
HETATM   10  N2  UNL     1      60.076  13.064  22.639  1.00  0.00    -0.416 N 
ATOM     11  H2  UNL     1      60.284  13.658  23.441  1.00  0.00     0.153 HD
BRANCH  10  12
HETATM   12  C8  UNL     1      58.992  13.350  21.774  1.00  0.00     0.076 C 
HETATM   13  C9  UNL     1      57.910  12.326  21.641  1.00  0.00     0.024 C 
HETATM   14  C10 UNL     1      56.910  13.478  21.488  1.00  0.00     0.004 C 
HETATM   15  C11 UNL     1      57.941  14.322  22.255  1.00  0.00     0.024 C 
ENDBRANCH  10  12
ENDBRANCH   9  10
ENDBRANCH   1   9
TORSDOF 7
ENDMDL
MODEL 3
REMARK VINA RESULT: -5.108191520      1.172      6.277
REMARK  7 active torsions:
REMARK  status: ('A' for Active; 'I' for Inactive)
REMARK    1  A    between atoms: C2_2  and  C3_3 
REMARK    2  A    between atoms: C3_3  and  C4_4 
REMARK    3  A    between atoms: C3_3  and  N1_6 
REMARK    4  A    between atoms: N1_6  and  C6_8 
REMARK    5  A    between atoms: C6_8  and  C7_9 
REMARK    6  A    between atoms: C7_9  and  N2_10 
REMARK    7  A    between atoms: N2_10  and  C8_12 
ROOT
HETATM    1  C6  UNL     1      60.452  11.936  22.222  1.00  0.00     0.133 C 
ENDROOT
BRANCH   1   2
HETATM    2  N1  UNL     1      59.846  13.210  22.337  1.00  0.00    -0.416 N 
ATOM      3  H1  UNL     1      60.094  13.865  23.078  1.00  0.00     0.153 HD
BRANCH   2   4
HETATM    4  C3  UNL     1      58.865  13.515  21.345  1.00  0.00     0.076 C 
BRANCH   4   5
HETATM    5  C2  UNL     1      57.484  13.724  21.823  1.00  0.00     0.020 C 
HETATM    6  C1  UNL     1      56.448  12.773  21.354  1.00  0.00     0.007 C 
ENDBRANCH   4   5
BRANCH   4   7
HETATM    7  C4  UNL     1      58.979  12.546  20.194  1.00  0.00     0.020 C 
HETATM    8  C5  UNL     1      59.329  13.183  18.883  1.00  0.00     0.007 C 
ENDBRANCH   4   7
ENDBRANCH   2   4
ENDBRANCH   1   2
BRANCH   1   9
HETATM    9  C7  UNL     1      61.771  11.851  22.940  1.00  0.00     0.133 C 
BRANCH   9  10
HETATM   10  N2  UNL     1      61.763  12.679  24.083  1.00  0.00    -0.416 N 
ATOM     11  H2  UNL     1      60.968  13.280  24.295  1.00  0.00     0.153 HD
BRANCH  10  12
HETATM   12  C8  UNL     1      62.903  12.643  24.922  1.00  0.00     0.076 C 
HETATM   13  C9  UNL     1      62.708  12.898  26.384  1.00  0.00     0.024 C 
HETATM   14  C10 UNL     1      63.831  11.891  26.656  1.00  0.00     0.004 C 
HETATM   15  C11 UNL     1      63.469  11.292  25.288  1.00  0.00     0.024 C 
ENDBRANCH  10  12
ENDBRANCH   9  10
ENDBRANCH   1   9
TORSDOF 7
ENDMDL
MODEL 4
REMARK VINA RESULT: -5.079591208      0.469      1.830
REMARK  7 active torsions:
REMARK  status: ('A' for Active; 'I' for Inactive)
REMARK    1  A    between atoms: C2_2  and  C3_3 
REMARK    2  A    between atoms: C3_3  and  C4_4 
REMARK    3  A    between atoms: C3_3  and  N1_6 
REMARK    4  A    between atoms: N1_6  and  C6_8 
REMARK    5  A    between atoms: C6_8  and  C7_9 
REMARK    6  A    between atoms: C7_9  and  N2_10 
REMARK    7  A    between atoms: N2_10  and  C8_12 
ROOT
HETATM    1  C6  UNL     1      62.690  12.103  23.985  1.00  0.00     0.133 C 
ENDROOT
BRANCH   1   2
HETATM    2  N1  UNL     1      62.202  12.971  24.990  1.00  0.00    -0.416 N 
ATOM      3  H1  UNL     1      61.346  13.513  24.872  1.00  0.00     0.153 HD
BRANCH   2   4
HETATM    4  C3  UNL     1      62.990  13.038  26.179  1.00  0.00     0.076 C 
BRANCH   4   5
HETATM    5  C2  UNL     1      63.078  11.804  26.985  1.00  0.00     0.020 C 
HETATM    6  C1  UNL     1      64.429  11.352  27.396  1.00  0.00     0.007 C 
ENDBRANCH   4   5
BRANCH   4   7
HETATM    7  C4  UNL     1      62.621  14.267  26.973  1.00  0.00     0.020 C 
HETATM    8  C5  UNL     1      61.501  14.058  27.947  1.00  0.00     0.007 C 
ENDBRANCH   4   7
ENDBRANCH   2   4
ENDBRANCH   1   2
BRANCH   1   9
HETATM    9  C7  UNL     1      61.679  11.835  22.903  1.00  0.00     0.133 C 
BRANCH   9  10
HETATM   10  N2  UNL     1      60.693  12.845  22.892  1.00  0.00    -0.416 N 
ATOM     11  H2  UNL     1      60.843  13.737  23.362  1.00  0.00     0.153 HD
BRANCH  10  12
HETATM   12  C8  UNL     1      59.487  12.571  22.202  1.00  0.00     0.076 C 
HETATM   13  C9  UNL     1      58.529  13.699  21.985  1.00  0.00     0.024 C 
HETATM   14  C10 UNL     1      58.161  13.060  20.642  1.00  0.00     0.004 C 
HETATM   15  C11 UNL     1      59.551  12.407  20.702  1.00  0.00     0.024 C 
ENDBRANCH  10  12
ENDBRANCH   9  10
ENDBRANCH   1   9
TORSDOF 7
ENDMDL
MODEL 5
REMARK VINA RESULT: -5.023616377      3.339      6.255
REMARK  7 active torsions:
REMARK  status: ('A' for Active; 'I' for Inactive)
REMARK    1  A    between atoms: C2_2  and  C3_3 
REMARK    2  A    between atoms: C3_3  and  C4_4 
REMARK    3  A    between atoms: C3_3  and  N1_6 
REMARK    4  A    between atoms: N1_6  and  C6_8 
REMARK    5  A    between atoms: C6_8  and  C7_9 
REMARK    6  A    between atoms: C7_9  and  N2_10 
REMARK    7  A    between atoms: N2_10  and  C8_12 
ROOT
HETATM    1  C6  UNL     1      60.114  11.994  22.266  1.00  0.00     0.133 C 
ENDROOT
BRANCH   1   2
HETATM    2  N1  UNL     1      59.676  13.337  22.173  1.00  0.00    -0.416 N 
ATOM      3  H1  UNL     1      60.087  14.083  22.733  1.00  0.00     0.153 HD
BRANCH   2   4
HETATM    4  C3  UNL     1      58.620  13.575  21.242  1.00  0.00     0.076 C 
BRANCH   4   5
HETATM    5  C2  UNL     1      57.257  13.682  21.802  1.00  0.00     0.020 C 
HETATM    6  C1  UNL     1      56.228  12.754  21.274  1.00  0.00     0.007 C 
ENDBRANCH   4   5
BRANCH   4   7
HETATM    7  C4  UNL     1      58.734  12.621  20.079  1.00  0.00     0.020 C 
HETATM    8  C5  UNL     1      59.379  13.209  18.860  1.00  0.00     0.007 C 
ENDBRANCH   4   7
ENDBRANCH   2   4
ENDBRANCH   1   2
BRANCH   1   9
HETATM    9  C7  UNL     1      61.601  11.879  22.462  1.00  0.00     0.133 C 
BRANCH   9  10
HETATM   10  N2  UNL     1      62.286  12.339  21.317  1.00  0.00    -0.416 N 
ATOM     11  H2  UNL     1      61.788  12.784  20.546  1.00  0.00     0.153 HD
BRANCH  10  12
HETATM   12  C8  UNL     1      63.690  12.160  21.279  1.00  0.00     0.076 C 
HETATM   13  C9  UNL     1      64.504  13.142  20.497  1.00  0.00     0.024 C 
HETATM   14  C10 UNL     1      65.611  12.979  21.545  1.00  0.00     0.004 C 
HETATM   15  C11 UNL     1      64.486  12.553  22.501  1.00  0.00     0.024 C 
ENDBRANCH  10  12
ENDBRANCH   9  10
ENDBRANCH   1   9
TORSDOF 7
ENDMDL
