MODEL 1
REMARK VINA RESULT: -6.300539206      0.000      0.000
REMARK  2 active torsions:
REMARK  status: ('A' for Active; 'I' for Inactive)
REMARK    1  A    between atoms: C3_6  and  C4_7 
REMARK    2  A    between atoms: C4_7  and  N2_8 
ROOT
HETATM    1  C4  UNL     1      -2.503  14.053  50.076  1.00  0.00     0.154 C 
ENDROOT
BRANCH   1   2
HETATM    2  C3  UNL     1      -1.564  14.462  51.154  1.00  0.00     0.122 C 
HETATM    3  C2  UNL     1      -2.140  15.257  52.272  1.00  0.00     0.151 C 
HETATM    4  N1  UNL     1      -1.733  16.632  51.984  1.00  0.00    -0.341 N 
HETATM    5  C1  UNL     1      -0.590  16.560  51.107  1.00  0.00     0.316 C 
ATOM      6  H1  UNL     1      -2.174  17.482  52.337  1.00  0.00     0.164 HD
HETATM    7  O1  UNL     1       0.135  17.569  50.889  1.00  0.00    -0.247 OA
HETATM    8  N4  UNL     1      -0.477  15.246  50.600  1.00  0.00    -0.335 N 
ATOM      9  H4  UNL     1       0.241  14.908  49.959  1.00  0.00     0.164 HD
ENDBRANCH   1   2
BRANCH   1  10
HETATM   10  N2  UNL     1      -2.050  13.061  49.171  1.00  0.00    -0.326 N 
HETATM   11  C5  UNL     1      -2.200  11.612  49.334  1.00  0.00     0.253 C 
HETATM   12  N3  UNL     1      -2.177  11.095  47.969  1.00  0.00    -0.337 N 
HETATM   13  C6  UNL     1      -1.463  12.023  47.196  1.00  0.00     0.310 C 
ATOM     14  H3  UNL     1      -2.598  10.227  47.641  1.00  0.00     0.164 HD
HETATM   15  O2  UNL     1      -0.988  11.798  46.052  1.00  0.00    -0.262 OA
HETATM   16  C7  UNL     1      -1.378  13.264  47.943  1.00  0.00     0.312 C 
HETATM   17  O3  UNL     1      -0.797  14.331  47.545  1.00  0.00    -0.262 OA
ENDBRANCH   1  10
TORSDOF 2
ENDMDL
MODEL 2
REMARK VINA RESULT: -6.287918695      1.262      5.211
REMARK  2 active torsions:
REMARK  status: ('A' for Active; 'I' for Inactive)
REMARK    1  A    between atoms: C3_6  and  C4_7 
REMARK    2  A    between atoms: C4_7  and  N2_8 
ROOT
HETATM    1  C4  UNL     1      -1.385  13.157  50.197  1.00  0.00     0.154 C 
ENDROOT
BRANCH   1   2
HETATM    2  C3  UNL     1      -1.998  12.933  48.860  1.00  0.00     0.122 C 
HETATM    3  C2  UNL     1      -2.459  11.551  48.561  1.00  0.00     0.151 C 
HETATM    4  N1  UNL     1      -1.413  11.001  47.699  1.00  0.00    -0.341 N 
HETATM    5  C1  UNL     1      -0.712  12.120  47.117  1.00  0.00     0.316 C 
ATOM      6  H1  UNL     1      -1.217  10.013  47.539  1.00  0.00     0.164 HD
HETATM    7  O1  UNL     1       0.072  11.968  46.141  1.00  0.00    -0.247 OA
HETATM    8  N4  UNL     1      -1.062  13.299  47.813  1.00  0.00    -0.335 N 
ATOM      9  H4  UNL     1      -0.719  14.239  47.615  1.00  0.00     0.164 HD
ENDBRANCH   1   2
BRANCH   1  10
HETATM   10  N2  UNL     1      -1.534  14.446  50.765  1.00  0.00    -0.326 N 
HETATM   11  C5  UNL     1      -2.555  14.848  51.736  1.00  0.00     0.253 C 
HETATM   12  N3  UNL     1      -1.948  15.966  52.451  1.00  0.00    -0.337 N 
HETATM   13  C6  UNL     1      -1.002  16.536  51.585  1.00  0.00     0.310 C 
ATOM     14  H3  UNL     1      -2.168  16.274  53.398  1.00  0.00     0.164 HD
HETATM   15  O2  UNL     1      -0.488  17.676  51.726  1.00  0.00    -0.262 OA
HETATM   16  C7  UNL     1      -0.735  15.587  50.520  1.00  0.00     0.312 C 
HETATM   17  O3  UNL     1       0.077  15.771  49.550  1.00  0.00    -0.262 OA
ENDBRANCH   1  10
TORSDOF 2
ENDMDL
MODEL 3
REMARK VINA RESULT: -6.280697549      1.635      5.406
REMARK  2 active torsions:
REMARK  status: ('A' for Active; 'I' for Inactive)
REMARK    1  A    between atoms: C3_6  and  C4_7 
REMARK    2  A    between atoms: C4_7  and  N2_8 
ROOT
HETATM    1  C4  UNL     1      -0.706  12.795  49.214  1.00  0.00     0.154 C 
ENDROOT
BRANCH   1   2
HETATM    2  C3  UNL     1      -1.535  12.076  48.209  1.00  0.00     0.122 C 
HETATM    3  C2  UNL     1      -1.426  10.593  48.195  1.00  0.00     0.151 C 
HETATM    4  N1  UNL     1      -0.558  10.306  47.053  1.00  0.00    -0.341 N 
HETATM    5  C1  UNL     1      -0.613  11.454  46.180  1.00  0.00     0.316 C 
ATOM      6  H1  UNL     1      -0.016   9.455  46.901  1.00  0.00     0.164 HD
HETATM    7  O1  UNL     1      -0.173  11.403  45.000  1.00  0.00    -0.247 OA
HETATM    8  N4  UNL     1      -1.207  12.533  46.872  1.00  0.00    -0.335 N 
ATOM      9  H4  UNL     1      -1.376  13.467  46.498  1.00  0.00     0.164 HD
ENDBRANCH   1   2
BRANCH   1  10
HETATM   10  N2  UNL     1      -1.336  13.835  49.942  1.00  0.00    -0.326 N 
HETATM   11  C5  UNL     1      -2.645  13.758  50.596  1.00  0.00     0.253 C 
HETATM   12  N3  UNL     1      -2.567  14.746  51.667  1.00  0.00    -0.337 N 
HETATM   13  C6  UNL     1      -1.615  15.699  51.272  1.00  0.00     0.310 C 
ATOM     14  H3  UNL     1      -3.102  14.745  52.536  1.00  0.00     0.164 HD
HETATM   15  O2  UNL     1      -1.479  16.840  51.785  1.00  0.00    -0.262 OA
HETATM   16  C7  UNL     1      -0.835  15.134  50.186  1.00  0.00     0.312 C 
HETATM   17  O3  UNL     1       0.123  15.723  49.578  1.00  0.00    -0.262 OA
ENDBRANCH   1  10
TORSDOF 2
ENDMDL
MODEL 4
REMARK VINA RESULT: -6.172587231      1.855      5.069
REMARK  2 active torsions:
REMARK  status: ('A' for Active; 'I' for Inactive)
REMARK    1  A    between atoms: C3_6  and  C4_7 
REMARK    2  A    between atoms: C4_7  and  N2_8 
ROOT
HETATM    1  C4  UNL     1      -2.537  12.772  49.394  1.00  0.00     0.154 C 
ENDROOT
BRANCH   1   2
HETATM    2  C3  UNL     1      -1.647  11.648  48.995  1.00  0.00     0.122 C 
HETATM    3  C2  UNL     1      -0.234  11.725  49.452  1.00  0.00     0.151 C 
HETATM    4  N1  UNL     1       0.504  12.165  48.269  1.00  0.00    -0.341 N 
HETATM    5  C1  UNL     1      -0.307  11.843  47.120  1.00  0.00     0.316 C 
ATOM      6  H1  UNL     1       1.420  12.615  48.257  1.00  0.00     0.164 HD
HETATM    7  O1  UNL     1       0.168  11.870  45.952  1.00  0.00    -0.247 OA
HETATM    8  N4  UNL     1      -1.614  11.525  47.550  1.00  0.00    -0.335 N 
ATOM      9  H4  UNL     1      -2.396  11.256  46.953  1.00  0.00     0.164 HD
ENDBRANCH   1   2
BRANCH   1  10
HETATM   10  N2  UNL     1      -1.913  13.999  49.730  1.00  0.00    -0.326 N 
HETATM   11  C5  UNL     1      -1.351  14.967  48.785  1.00  0.00     0.253 C 
HETATM   12  N3  UNL     1      -1.419  16.240  49.495  1.00  0.00    -0.337 N 
HETATM   13  C6  UNL     1      -1.405  15.942  50.866  1.00  0.00     0.310 C 
ATOM     14  H3  UNL     1      -1.468  17.168  49.075  1.00  0.00     0.164 HD
HETATM   15  O2  UNL     1      -1.164  16.769  51.783  1.00  0.00    -0.262 OA
HETATM   16  C7  UNL     1      -1.715  14.533  51.025  1.00  0.00     0.312 C 
HETATM   17  O3  UNL     1      -1.789  13.911  52.139  1.00  0.00    -0.262 OA
ENDBRANCH   1  10
TORSDOF 2
ENDMDL
MODEL 5
REMARK VINA RESULT: -6.166491935      1.377      4.723
REMARK  2 active torsions:
REMARK  status: ('A' for Active; 'I' for Inactive)
REMARK    1  A    between atoms: C3_6  and  C4_7 
REMARK    2  A    between atoms: C4_7  and  N2_8 
ROOT
HETATM    1  C4  UNL     1      -2.648  12.836  49.371  1.00  0.00     0.154 C 
ENDROOT
BRANCH   1   2
HETATM    2  C3  UNL     1      -1.646  11.774  49.087  1.00  0.00     0.122 C 
HETATM    3  C2  UNL     1      -0.243  12.056  49.496  1.00  0.00     0.151 C 
HETATM    4  N1  UNL     1       0.428  12.425  48.250  1.00  0.00    -0.341 N 
HETATM    5  C1  UNL     1      -0.357  11.881  47.168  1.00  0.00     0.316 C 
ATOM      6  H1  UNL     1       1.289  12.966  48.161  1.00  0.00     0.164 HD
HETATM    7  O1  UNL     1       0.098  11.817  45.994  1.00  0.00    -0.247 OA
HETATM    8  N4  UNL     1      -1.617  11.480  47.667  1.00  0.00    -0.335 N 
ATOM      9  H4  UNL     1      -2.372  11.059  47.125  1.00  0.00     0.164 HD
ENDBRANCH   1   2
BRANCH   1  10
HETATM   10  N2  UNL     1      -2.170  14.026  49.974  1.00  0.00    -0.326 N 
HETATM   11  C5  UNL     1      -2.413  14.451  51.355  1.00  0.00     0.253 C 
HETATM   12  N3  UNL     1      -1.279  15.313  51.668  1.00  0.00    -0.337 N 
HETATM   13  C6  UNL     1      -0.813  15.830  50.450  1.00  0.00     0.310 C 
ATOM     14  H3  UNL     1      -0.897  15.504  52.595  1.00  0.00     0.164 HD
HETATM   15  O2  UNL     1      -0.045  16.820  50.331  1.00  0.00    -0.262 OA
HETATM   16  C7  UNL     1      -1.368  15.026  49.377  1.00  0.00     0.312 C 
HETATM   17  O3  UNL     1      -1.158  15.209  48.129  1.00  0.00    -0.262 OA
ENDBRANCH   1  10
TORSDOF 2
ENDMDL
