MODEL 1
REMARK VINA RESULT: -8.258297850      0.000      0.000
REMARK  6 active torsions:
REMARK  status: ('A' for Active; 'I' for Inactive)
REMARK    1  A    between atoms: C2_2  and  O1_3 
REMARK    2  A    between atoms: C2_2  and  O2_5 
REMARK    3  A    between atoms: C2_2  and  C3_7 
REMARK    4  A    between atoms: C3_7  and  S1_8 
REMARK    5  A    between atoms: S1_8  and  C4_9 
REMARK    6  A    between atoms: C4_9  and  C5_10 
ROOT
HETATM    1  C4  UNL     1       5.884   6.232  -0.984  1.00  0.00     0.261 C 
HETATM    2  N2  UNL     1       5.507   7.373  -1.747  1.00  0.00    -0.078 NA
HETATM    3  N3  UNL     1       4.156   7.232  -2.036  1.00  0.00    -0.018 NA
HETATM    4  N4  UNL     1       3.821   5.893  -1.870  1.00  0.00    -0.018 NA
HETATM    5  N5  UNL     1       4.972   5.201  -1.487  1.00  0.00    -0.078 NA
ENDROOT
BRANCH   1   6
HETATM    6  S1  UNL     1       7.547   5.653  -1.240  1.00  0.00    -0.108 SA
BRANCH   6   7
HETATM    7  C3  UNL     1       7.673   3.863  -1.420  1.00  0.00     0.145 C 
BRANCH   7   8
HETATM    8  C2  UNL     1       7.890   3.226  -0.054  1.00  0.00     0.164 C 
HETATM    9  C1  UNL     1       6.704   2.402   0.379  1.00  0.00     0.079 C 
BRANCH   8  10
HETATM   10  O1  UNL     1       9.051   2.445  -0.053  1.00  0.00    -0.365 OA
ATOM     11  H1  UNL     1       9.495   2.514  -0.889  1.00  0.00     0.213 HD
ENDBRANCH   8  10
BRANCH   8  12
HETATM   12  O2  UNL     1       8.025   4.268   0.888  1.00  0.00    -0.365 OA
ATOM     13  H2  UNL     1       8.336   5.028   0.412  1.00  0.00     0.213 HD
ENDBRANCH   8  12
ENDBRANCH   7   8
ENDBRANCH   6   7
ENDBRANCH   1   6
BRANCH   1  14
HETATM   14  C5  UNL     1       5.533   6.458   0.439  1.00  0.00     0.285 C 
HETATM   15  N1  UNL     1       5.445   7.762   0.970  1.00  0.00    -0.058 NA
HETATM   16  O3  UNL     1       5.303   5.495   1.206  1.00  0.00    -0.272 OA
ENDBRANCH   1  14
TORSDOF 6
ENDMDL
MODEL 2
REMARK VINA RESULT: -7.842458467      1.465      1.727
REMARK  6 active torsions:
REMARK  status: ('A' for Active; 'I' for Inactive)
REMARK    1  A    between atoms: C2_2  and  O1_3 
REMARK    2  A    between atoms: C2_2  and  O2_5 
REMARK    3  A    between atoms: C2_2  and  C3_7 
REMARK    4  A    between atoms: C3_7  and  S1_8 
REMARK    5  A    between atoms: S1_8  and  C4_9 
REMARK    6  A    between atoms: C4_9  and  C5_10 
ROOT
HETATM    1  C4  UNL     1       5.845   6.101  -1.072  1.00  0.00     0.261 C 
HETATM    2  N2  UNL     1       5.575   7.335  -1.729  1.00  0.00    -0.078 NA
HETATM    3  N3  UNL     1       4.202   7.384  -1.936  1.00  0.00    -0.018 NA
HETATM    4  N4  UNL     1       3.708   6.088  -1.840  1.00  0.00    -0.018 NA
HETATM    5  N5  UNL     1       4.782   5.231  -1.583  1.00  0.00    -0.078 NA
ENDROOT
BRANCH   1   6
HETATM    6  S1  UNL     1       7.403   5.342  -1.477  1.00  0.00    -0.108 SA
BRANCH   6   7
HETATM    7  C3  UNL     1       7.245   3.685  -2.172  1.00  0.00     0.145 C 
BRANCH   7   8
HETATM    8  C2  UNL     1       7.096   2.671  -1.047  1.00  0.00     0.164 C 
HETATM    9  C1  UNL     1       8.093   2.905   0.060  1.00  0.00     0.079 C 
BRANCH   8  10
HETATM   10  O1  UNL     1       5.792   2.688  -0.538  1.00  0.00    -0.365 OA
ATOM     11  H1  UNL     1       5.227   3.210  -1.096  1.00  0.00     0.213 HD
ENDBRANCH   8  10
BRANCH   8  12
HETATM   12  O2  UNL     1       7.373   1.395  -1.580  1.00  0.00    -0.365 OA
ATOM     13  H2  UNL     1       6.603   1.129  -2.068  1.00  0.00     0.213 HD
ENDBRANCH   8  12
ENDBRANCH   7   8
ENDBRANCH   6   7
ENDBRANCH   1   6
BRANCH   1  14
HETATM   14  C5  UNL     1       5.608   6.259   0.383  1.00  0.00     0.285 C 
HETATM   15  N1  UNL     1       5.561   5.140   1.240  1.00  0.00    -0.058 NA
HETATM   16  O3  UNL     1       5.444   7.393   0.890  1.00  0.00    -0.272 OA
ENDBRANCH   1  14
TORSDOF 6
ENDMDL
MODEL 3
REMARK VINA RESULT: -7.287209886      2.608      3.155
REMARK  6 active torsions:
REMARK  status: ('A' for Active; 'I' for Inactive)
REMARK    1  A    between atoms: C2_2  and  O1_3 
REMARK    2  A    between atoms: C2_2  and  O2_5 
REMARK    3  A    between atoms: C2_2  and  C3_7 
REMARK    4  A    between atoms: C3_7  and  S1_8 
REMARK    5  A    between atoms: S1_8  and  C4_9 
REMARK    6  A    between atoms: C4_9  and  C5_10 
ROOT
HETATM    1  C4  UNL     1       5.883   5.997  -1.452  1.00  0.00     0.261 C 
HETATM    2  N2  UNL     1       5.732   7.399  -1.642  1.00  0.00    -0.078 NA
HETATM    3  N3  UNL     1       5.700   7.972  -0.377  1.00  0.00    -0.018 NA
HETATM    4  N4  UNL     1       5.387   6.974   0.538  1.00  0.00    -0.018 NA
HETATM    5  N5  UNL     1       5.215   5.778  -0.165  1.00  0.00    -0.078 NA
ENDROOT
BRANCH   1   6
HETATM    6  S1  UNL     1       5.078   4.967  -2.659  1.00  0.00    -0.108 SA
BRANCH   6   7
HETATM    7  C3  UNL     1       6.118   3.632  -3.285  1.00  0.00     0.145 C 
BRANCH   7   8
HETATM    8  C2  UNL     1       5.915   2.386  -2.435  1.00  0.00     0.164 C 
HETATM    9  C1  UNL     1       7.205   1.637  -2.215  1.00  0.00     0.079 C 
BRANCH   8  10
HETATM   10  O1  UNL     1       5.329   2.717  -1.207  1.00  0.00    -0.365 OA
ATOM     11  H1  UNL     1       4.483   2.294  -1.122  1.00  0.00     0.213 HD
ENDBRANCH   8  10
BRANCH   8  12
HETATM   12  O2  UNL     1       5.058   1.518  -3.144  1.00  0.00    -0.365 OA
ATOM     13  H2  UNL     1       4.179   1.682  -2.825  1.00  0.00     0.213 HD
ENDBRANCH   8  12
ENDBRANCH   7   8
ENDBRANCH   6   7
ENDBRANCH   1   6
BRANCH   1  14
HETATM   14  C5  UNL     1       7.318   5.683  -1.248  1.00  0.00     0.285 C 
HETATM   15  N1  UNL     1       7.727   4.713  -0.309  1.00  0.00    -0.058 NA
HETATM   16  O3  UNL     1       8.207   6.272  -1.907  1.00  0.00    -0.272 OA
ENDBRANCH   1  14
TORSDOF 6
ENDMDL
MODEL 4
REMARK VINA RESULT: -7.220848563      1.830      2.418
REMARK  6 active torsions:
REMARK  status: ('A' for Active; 'I' for Inactive)
REMARK    1  A    between atoms: C2_2  and  O1_3 
REMARK    2  A    between atoms: C2_2  and  O2_5 
REMARK    3  A    between atoms: C2_2  and  C3_7 
REMARK    4  A    between atoms: C3_7  and  S1_8 
REMARK    5  A    between atoms: S1_8  and  C4_9 
REMARK    6  A    between atoms: C4_9  and  C5_10 
ROOT
HETATM    1  C4  UNL     1       6.424   5.875  -1.142  1.00  0.00     0.261 C 
HETATM    2  N2  UNL     1       7.766   6.331  -1.266  1.00  0.00    -0.078 NA
HETATM    3  N3  UNL     1       7.997   6.530  -2.621  1.00  0.00    -0.018 NA
HETATM    4  N4  UNL     1       7.036   5.816  -3.328  1.00  0.00    -0.018 NA
HETATM    5  N5  UNL     1       6.213   5.163  -2.406  1.00  0.00    -0.078 NA
ENDROOT
BRANCH   1   6
HETATM    6  S1  UNL     1       6.123   4.724   0.181  1.00  0.00    -0.108 SA
BRANCH   6   7
HETATM    7  C3  UNL     1       7.594   3.824   0.710  1.00  0.00     0.145 C 
BRANCH   7   8
HETATM    8  C2  UNL     1       8.070   2.916  -0.415  1.00  0.00     0.164 C 
HETATM    9  C1  UNL     1       6.964   2.032  -0.932  1.00  0.00     0.079 C 
BRANCH   8  10
HETATM   10  O1  UNL     1       8.617   3.671  -1.459  1.00  0.00    -0.365 OA
ATOM     11  H1  UNL     1       9.546   3.806  -1.316  1.00  0.00     0.213 HD
ENDBRANCH   8  10
BRANCH   8  12
HETATM   12  O2  UNL     1       9.059   2.061   0.113  1.00  0.00    -0.365 OA
ATOM     13  H2  UNL     1       9.505   1.668  -0.628  1.00  0.00     0.213 HD
ENDBRANCH   8  12
ENDBRANCH   7   8
ENDBRANCH   6   7
ENDBRANCH   1   6
BRANCH   1  14
HETATM   14  C5  UNL     1       5.509   7.042  -1.150  1.00  0.00     0.285 C 
HETATM   15  N1  UNL     1       4.304   7.019  -1.885  1.00  0.00    -0.058 NA
HETATM   16  O3  UNL     1       5.781   8.079  -0.502  1.00  0.00    -0.272 OA
ENDBRANCH   1  14
TORSDOF 6
ENDMDL
MODEL 5
REMARK VINA RESULT: -7.192328582      1.528      2.084
REMARK  6 active torsions:
REMARK  status: ('A' for Active; 'I' for Inactive)
REMARK    1  A    between atoms: C2_2  and  O1_3 
REMARK    2  A    between atoms: C2_2  and  O2_5 
REMARK    3  A    between atoms: C2_2  and  C3_7 
REMARK    4  A    between atoms: C3_7  and  S1_8 
REMARK    5  A    between atoms: S1_8  and  C4_9 
REMARK    6  A    between atoms: C4_9  and  C5_10 
ROOT
HETATM    1  C4  UNL     1       5.669   5.646  -1.744  1.00  0.00     0.261 C 
HETATM    2  N2  UNL     1       4.641   6.138  -2.596  1.00  0.00    -0.078 NA
HETATM    3  N3  UNL     1       4.161   7.303  -2.011  1.00  0.00    -0.018 NA
HETATM    4  N4  UNL     1       4.531   7.293  -0.672  1.00  0.00    -0.018 NA
HETATM    5  N5  UNL     1       5.235   6.112  -0.424  1.00  0.00    -0.078 NA
ENDROOT
BRANCH   1   6
HETATM    6  S1  UNL     1       5.821   3.875  -1.668  1.00  0.00    -0.108 SA
BRANCH   6   7
HETATM    7  C3  UNL     1       7.528   3.293  -1.634  1.00  0.00     0.145 C 
BRANCH   7   8
HETATM    8  C2  UNL     1       7.947   3.025  -0.195  1.00  0.00     0.164 C 
HETATM    9  C1  UNL     1       6.866   2.322   0.586  1.00  0.00     0.079 C 
BRANCH   8  10
HETATM   10  O1  UNL     1       9.134   2.283  -0.158  1.00  0.00    -0.365 OA
ATOM     11  H1  UNL     1       9.854   2.796  -0.504  1.00  0.00     0.213 HD
ENDBRANCH   8  10
BRANCH   8  12
HETATM   12  O2  UNL     1       8.155   4.272   0.431  1.00  0.00    -0.365 OA
ATOM     13  H2  UNL     1       9.032   4.551   0.198  1.00  0.00     0.213 HD
ENDBRANCH   8  12
ENDBRANCH   7   8
ENDBRANCH   6   7
ENDBRANCH   1   6
BRANCH   1  14
HETATM   14  C5  UNL     1       6.937   6.351  -2.052  1.00  0.00     0.285 C 
HETATM   15  N1  UNL     1       7.205   6.837  -3.349  1.00  0.00    -0.058 NA
HETATM   16  O3  UNL     1       7.804   6.534  -1.166  1.00  0.00    -0.272 OA
ENDBRANCH   1  14
TORSDOF 6
ENDMDL
