MODEL 1
REMARK VINA RESULT: -4.060333036      0.000      0.000
REMARK  1 active torsions:
REMARK  status: ('A' for Active; 'I' for Inactive)
REMARK    1  A    between atoms: C2_2  and  C3_3 
ROOT
HETATM    1  C3  UNL     1       6.932  30.858  20.564  1.00  0.00     0.083 C 
HETATM    2  C4  UNL     1       5.689  31.374  21.272  1.00  0.00     0.172 C 
HETATM    3  N1  UNL     1       5.754  32.756  20.835  1.00  0.00    -0.139 NA
HETATM    4  N2  UNL     1       6.164  32.670  19.501  1.00  0.00    -0.310 N 
ATOM      5  H2  UNL     1       5.953  33.364  18.785  1.00  0.00     0.181 HD
HETATM    6  C5  UNL     1       6.842  31.595  19.298  1.00  0.00     0.029 C 
HETATM    7  C6  UNL     1       7.471  31.052  18.079  1.00  0.00     0.061 C 
HETATM    8  C7  UNL     1       7.019  29.610  17.992  1.00  0.00     0.050 C 
HETATM    9  C8  UNL     1       7.163  28.838  19.231  1.00  0.00     0.057 C 
HETATM   10  N3  UNL     1       6.917  29.459  20.461  1.00  0.00    -0.387 N 
ATOM     11  H3  UNL     1       6.727  28.891  21.287  1.00  0.00     0.159 HD
ENDROOT
BRANCH   1  12
HETATM   12  C2  UNL     1       8.094  31.396  21.400  1.00  0.00     0.034 C 
HETATM   13  C1  UNL     1       8.142  30.853  22.781  1.00  0.00     0.008 C 
ENDBRANCH   1  12
TORSDOF 1
ENDMDL
MODEL 2
REMARK VINA RESULT: -3.618077200      1.506      2.787
REMARK  1 active torsions:
REMARK  status: ('A' for Active; 'I' for Inactive)
REMARK    1  A    between atoms: C2_2  and  C3_3 
ROOT
HETATM    1  C3  UNL     1       6.926  30.946  19.585  1.00  0.00     0.083 C 
HETATM    2  C4  UNL     1       7.772  31.582  20.676  1.00  0.00     0.172 C 
HETATM    3  N1  UNL     1       7.366  30.732  21.781  1.00  0.00    -0.139 NA
HETATM    4  N2  UNL     1       7.286  29.457  21.214  1.00  0.00    -0.310 N 
ATOM      5  H2  UNL     1       7.409  28.585  21.730  1.00  0.00     0.181 HD
HETATM    6  C5  UNL     1       7.035  29.530  19.954  1.00  0.00     0.029 C 
HETATM    7  C6  UNL     1       6.871  28.483  18.929  1.00  0.00     0.061 C 
HETATM    8  C7  UNL     1       7.760  28.895  17.775  1.00  0.00     0.050 C 
HETATM    9  C8  UNL     1       7.617  30.292  17.349  1.00  0.00     0.057 C 
HETATM   10  N3  UNL     1       7.399  31.286  18.309  1.00  0.00    -0.387 N 
ATOM     11  H3  UNL     1       7.585  32.262  18.080  1.00  0.00     0.159 HD
ENDROOT
BRANCH   1  12
HETATM   12  C2  UNL     1       5.508  31.450  19.864  1.00  0.00     0.034 C 
HETATM   13  C1  UNL     1       5.369  32.926  19.784  1.00  0.00     0.008 C 
ENDBRANCH   1  12
TORSDOF 1
ENDMDL
MODEL 3
REMARK VINA RESULT: -3.432040900      1.574      3.270
REMARK  1 active torsions:
REMARK  status: ('A' for Active; 'I' for Inactive)
REMARK    1  A    between atoms: C2_2  and  C3_3 
ROOT
HETATM    1  C3  UNL     1       6.810  30.304  20.370  1.00  0.00     0.083 C 
HETATM    2  C4  UNL     1       6.717  29.428  21.609  1.00  0.00     0.172 C 
HETATM    3  N1  UNL     1       8.102  29.511  22.033  1.00  0.00    -0.139 NA
HETATM    4  N2  UNL     1       8.449  30.844  21.794  1.00  0.00    -0.310 N 
ATOM      5  H2  UNL     1       9.172  31.354  22.301  1.00  0.00     0.181 HD
HETATM    6  C5  UNL     1       7.732  31.342  20.847  1.00  0.00     0.029 C 
HETATM    7  C6  UNL     1       7.709  32.687  20.244  1.00  0.00     0.061 C 
HETATM    8  C7  UNL     1       6.254  33.106  20.233  1.00  0.00     0.050 C 
HETATM    9  C8  UNL     1       5.324  32.105  19.698  1.00  0.00     0.057 C 
HETATM   10  N3  UNL     1       5.544  30.749  19.962  1.00  0.00    -0.387 N 
ATOM     11  H3  UNL     1       4.780  30.081  19.858  1.00  0.00     0.159 HD
ENDROOT
BRANCH   1  12
HETATM   12  C2  UNL     1       7.509  29.421  19.334  1.00  0.00     0.034 C 
HETATM   13  C1  UNL     1       7.089  29.690  17.936  1.00  0.00     0.008 C 
ENDBRANCH   1  12
TORSDOF 1
ENDMDL
MODEL 4
REMARK VINA RESULT: -2.739802298      1.553      3.165
REMARK  1 active torsions:
REMARK  status: ('A' for Active; 'I' for Inactive)
REMARK    1  A    between atoms: C2_2  and  C3_3 
ROOT
HETATM    1  C3  UNL     1       6.668  31.362  20.420  1.00  0.00     0.083 C 
HETATM    2  C4  UNL     1       7.232  32.276  19.345  1.00  0.00     0.172 C 
HETATM    3  N1  UNL     1       6.926  33.551  19.966  1.00  0.00    -0.139 NA
HETATM    4  N2  UNL     1       7.197  33.340  21.321  1.00  0.00    -0.310 N 
ATOM      5  H2  UNL     1       7.465  34.072  21.979  1.00  0.00     0.181 HD
HETATM    6  C5  UNL     1       7.063  32.097  21.628  1.00  0.00     0.029 C 
HETATM    7  C6  UNL     1       7.246  31.380  22.904  1.00  0.00     0.061 C 
HETATM    8  C7  UNL     1       8.127  30.192  22.584  1.00  0.00     0.050 C 
HETATM    9  C8  UNL     1       7.709  29.405  21.418  1.00  0.00     0.057 C 
HETATM   10  N3  UNL     1       7.175  30.059  20.302  1.00  0.00    -0.387 N 
ATOM     11  H3  UNL     1       7.153  29.586  19.398  1.00  0.00     0.159 HD
ENDROOT
BRANCH   1  12
HETATM   12  C2  UNL     1       5.152  31.446  20.231  1.00  0.00     0.034 C 
HETATM   13  C1  UNL     1       4.715  31.304  18.819  1.00  0.00     0.008 C 
ENDBRANCH   1  12
TORSDOF 1
ENDMDL
MODEL 5
REMARK VINA RESULT: -2.635067111      1.767      3.219
REMARK  1 active torsions:
REMARK  status: ('A' for Active; 'I' for Inactive)
REMARK    1  A    between atoms: C2_2  and  C3_3 
ROOT
HETATM    1  C3  UNL     1       6.917  31.710  20.945  1.00  0.00     0.083 C 
HETATM    2  C4  UNL     1       5.601  31.682  20.186  1.00  0.00     0.172 C 
HETATM    3  N1  UNL     1       6.040  30.926  19.027  1.00  0.00    -0.139 NA
HETATM    4  N2  UNL     1       6.890  29.953  19.562  1.00  0.00    -0.310 N 
ATOM      5  H2  UNL     1       7.069  29.044  19.136  1.00  0.00     0.181 HD
HETATM    6  C5  UNL     1       7.416  30.359  20.665  1.00  0.00     0.029 C 
HETATM    7  C6  UNL     1       8.353  29.706  21.598  1.00  0.00     0.061 C 
HETATM    8  C7  UNL     1       7.741  29.870  22.973  1.00  0.00     0.050 C 
HETATM    9  C8  UNL     1       7.297  31.230  23.297  1.00  0.00     0.057 C 
HETATM   10  N3  UNL     1       6.720  32.022  22.299  1.00  0.00    -0.387 N 
ATOM     11  H3  UNL     1       6.153  32.830  22.556  1.00  0.00     0.159 HD
ENDROOT
BRANCH   1  12
HETATM   12  C2  UNL     1       7.762  32.744  20.198  1.00  0.00     0.034 C 
HETATM   13  C1  UNL     1       7.271  34.138  20.343  1.00  0.00     0.008 C 
ENDBRANCH   1  12
TORSDOF 1
ENDMDL
