MODEL 1
REMARK VINA RESULT: -8.085569338      0.000      0.000
REMARK  11 active torsions:
REMARK  status: ('A' for Active; 'I' for Inactive)
REMARK    1  A    between atoms: C2_2  and  C3_3 
REMARK    2  A    between atoms: C3_3  and  O1_4 
REMARK    3  A    between atoms: O1_4  and  C4_5 
REMARK    4  A    between atoms: C4_5  and  C5_6 
REMARK    5  A    between atoms: C5_6  and  N1_7 
REMARK    6  A    between atoms: N1_7  and  C6_10 
REMARK    7  A    between atoms: C6_10  and  C7_11 
REMARK    8  A    between atoms: C7_11  and  S1_12 
REMARK    9  A    between atoms: S1_12  and  N2_15 
REMARK   10  A    between atoms: N2_15  and  C8_17 
REMARK   11  A    between atoms: N4_25  and  N5_26 
ROOT
HETATM    1  C8  UNL     1      -1.338  -1.044  17.476  1.00  0.00     0.047 C 
HETATM    2  C9  UNL     1      -1.243  -0.258  18.801  1.00  0.00     0.033 C 
HETATM    3  C10 UNL     1      -0.924  -1.539  19.526  1.00  0.00     0.011 C 
HETATM    4  C11 UNL     1      -0.749  -2.183  18.168  1.00  0.00     0.033 C 
HETATM    5  C12 UNL     1      -1.351  -3.511  18.035  1.00  0.00     0.138 C 
HETATM    6  N3  UNL     1      -2.610  -3.601  18.736  1.00  0.00    -0.320 N 
HETATM    7  C13 UNL     1      -3.631  -2.759  18.574  1.00  0.00     0.091 A 
HETATM    8  C14 UNL     1      -4.669  -3.143  19.396  1.00  0.00     0.151 A 
HETATM    9  N4  UNL     1      -4.253  -4.229  20.056  1.00  0.00    -0.218 N 
HETATM   10  C15 UNL     1      -3.000  -4.503  19.651  1.00  0.00     0.201 A 
HETATM   11  S2  UNL     1      -2.063  -5.758  20.185  1.00  0.00    -0.038 SA
HETATM   12  N6  UNL     1      -5.850  -2.340  19.344  1.00  0.00    -0.350 N 
ATOM     13  H6  UNL     1      -6.699  -2.704  19.777  1.00  0.00     0.162 HD
HETATM   14  C16 UNL     1      -5.911  -1.035  18.712  1.00  0.00     0.357 C 
HETATM   15  N7  UNL     1      -4.504  -0.599  18.571  1.00  0.00    -0.050 N 
ATOM     16  H71 UNL     1      -4.035  -0.458  19.467  1.00  0.00     0.280 HD
ATOM     17  H72 UNL     1      -4.413   0.357  18.226  1.00  0.00     0.280 HD
HETATM   18  C17 UNL     1      -3.846  -1.567  17.735  1.00  0.00     0.243 C 
HETATM   19  C18 UNL     1      -2.709  -1.138  16.926  1.00  0.00     0.071 C 
ENDROOT
BRANCH   1  20
HETATM   20  N2  UNL     1      -0.509  -0.308  16.545  1.00  0.00    -0.309 N 
ATOM     21  H2  UNL     1       0.215  -0.810  16.030  1.00  0.00     0.173 HD
BRANCH  20  22
HETATM   22  S1  UNL     1      -0.689   1.297  16.289  1.00  0.00     0.228 S 
HETATM   23  O2  UNL     1      -1.943   1.993  16.584  1.00  0.00    -0.206 OA
HETATM   24  O3  UNL     1       0.411   2.060  17.024  1.00  0.00    -0.206 OA
BRANCH  22  25
HETATM   25  C7  UNL     1      -0.355   1.631  14.543  1.00  0.00     0.190 C 
BRANCH  25  26
HETATM   26  C6  UNL     1      -1.660   1.880  13.816  1.00  0.00     0.249 C 
BRANCH  26  27
HETATM   27  N1  UNL     1      -2.431   0.678  13.656  1.00  0.00    -0.072 N 
ATOM     28  H12 UNL     1      -2.105  -0.059  14.283  1.00  0.00     0.277 HD
ATOM     29  H11 UNL     1      -2.234   0.227  12.762  1.00  0.00     0.277 HD
BRANCH  27  30
HETATM   30  C5  UNL     1      -3.850   0.920  13.821  1.00  0.00     0.258 C 
BRANCH  30  31
HETATM   31  C4  UNL     1      -4.138   2.383  13.508  1.00  0.00     0.195 C 
BRANCH  31  32
HETATM   32  O1  UNL     1      -5.446   2.524  13.066  1.00  0.00    -0.386 OA
BRANCH  32  33
HETATM   33  C3  UNL     1      -5.912   1.284  12.644  1.00  0.00     0.194 C 
BRANCH  33  34
HETATM   34  C2  UNL     1      -6.921   1.389  11.565  1.00  0.00    -0.011 C 
HETATM   35  C1  UNL     1      -7.576   2.528  11.392  1.00  0.00     0.009 C 
ENDBRANCH  33  34
ENDBRANCH  32  33
ENDBRANCH  31  32
ENDBRANCH  30  31
ENDBRANCH  27  30
ENDBRANCH  26  27
ENDBRANCH  25  26
ENDBRANCH  22  25
ENDBRANCH  20  22
ENDBRANCH   1  20
BRANCH   9  36
HETATM   36  N5  UNL     1      -5.029  -4.926  20.997  1.00  0.00    -0.335 N 
ATOM     37  H52 UNL     1      -5.034  -4.816  22.011  1.00  0.00     0.177 HD
ATOM     38  H51 UNL     1      -5.703  -5.653  20.759  1.00  0.00     0.177 HD
ENDBRANCH   9  36
TORSDOF 11
ENDMDL
MODEL 2
REMARK VINA RESULT: -8.051099768      3.278      6.995
REMARK  11 active torsions:
REMARK  status: ('A' for Active; 'I' for Inactive)
REMARK    1  A    between atoms: C2_2  and  C3_3 
REMARK    2  A    between atoms: C3_3  and  O1_4 
REMARK    3  A    between atoms: O1_4  and  C4_5 
REMARK    4  A    between atoms: C4_5  and  C5_6 
REMARK    5  A    between atoms: C5_6  and  N1_7 
REMARK    6  A    between atoms: N1_7  and  C6_10 
REMARK    7  A    between atoms: C6_10  and  C7_11 
REMARK    8  A    between atoms: C7_11  and  S1_12 
REMARK    9  A    between atoms: S1_12  and  N2_15 
REMARK   10  A    between atoms: N2_15  and  C8_17 
REMARK   11  A    between atoms: N4_25  and  N5_26 
ROOT
HETATM    1  C8  UNL     1      -1.308  -0.516  17.668  1.00  0.00     0.047 C 
HETATM    2  C9  UNL     1      -1.467   0.751  18.535  1.00  0.00     0.033 C 
HETATM    3  C10 UNL     1      -2.932   0.796  18.183  1.00  0.00     0.011 C 
HETATM    4  C11 UNL     1      -2.762  -0.590  17.599  1.00  0.00     0.033 C 
HETATM    5  C12 UNL     1      -3.424  -0.799  16.311  1.00  0.00     0.138 C 
HETATM    6  N3  UNL     1      -3.338   0.371  15.469  1.00  0.00    -0.320 N 
HETATM    7  C13 UNL     1      -2.205   1.002  15.158  1.00  0.00     0.091 A 
HETATM    8  C14 UNL     1      -2.493   2.071  14.338  1.00  0.00     0.151 A 
HETATM    9  N4  UNL     1      -3.818   2.073  14.161  1.00  0.00    -0.218 N 
HETATM   10  C15 UNL     1      -4.327   1.037  14.851  1.00  0.00     0.201 A 
HETATM   11  S2  UNL     1      -5.928   0.626  14.940  1.00  0.00    -0.038 SA
HETATM   12  N6  UNL     1      -1.380   2.860  13.910  1.00  0.00    -0.350 N 
ATOM     13  H6  UNL     1      -1.526   3.524  13.149  1.00  0.00     0.162 HD
HETATM   14  C16 UNL     1      -0.055   2.770  14.494  1.00  0.00     0.357 C 
HETATM   15  N7  UNL     1      -0.243   2.086  15.793  1.00  0.00    -0.050 N 
ATOM     16  H71 UNL     1      -0.807   2.623  16.452  1.00  0.00     0.280 HD
ATOM     17  H72 UNL     1       0.609   2.049  16.354  1.00  0.00     0.280 HD
HETATM   18  C17 UNL     1      -0.790   0.787  15.508  1.00  0.00     0.243 C 
HETATM   19  C18 UNL     1      -0.517  -0.308  16.435  1.00  0.00     0.071 C 
ENDROOT
BRANCH   1  20
HETATM   20  N2  UNL     1      -0.616  -1.463  18.515  1.00  0.00    -0.309 N 
ATOM     21  H2  UNL     1      -0.048  -1.109  19.285  1.00  0.00     0.173 HD
BRANCH  20  22
HETATM   22  S1  UNL     1      -0.709  -3.080  18.285  1.00  0.00     0.228 S 
HETATM   23  O2  UNL     1      -1.575  -3.667  17.260  1.00  0.00    -0.206 OA
HETATM   24  O3  UNL     1       0.689  -3.645  18.044  1.00  0.00    -0.206 OA
BRANCH  22  25
HETATM   25  C7  UNL     1      -1.223  -3.844  19.842  1.00  0.00     0.190 C 
BRANCH  25  26
HETATM   26  C6  UNL     1      -1.145  -5.351  19.717  1.00  0.00     0.249 C 
BRANCH  26  27
HETATM   27  N1  UNL     1      -2.346  -5.913  19.160  1.00  0.00    -0.072 N 
ATOM     28  H12 UNL     1      -2.331  -6.932  19.198  1.00  0.00     0.277 HD
ATOM     29  H11 UNL     1      -2.378  -5.790  18.148  1.00  0.00     0.277 HD
BRANCH  27  30
HETATM   30  C5  UNL     1      -3.535  -5.379  19.793  1.00  0.00     0.258 C 
BRANCH  30  31
HETATM   31  C4  UNL     1      -4.589  -5.124  18.723  1.00  0.00     0.195 C 
BRANCH  31  32
HETATM   32  O1  UNL     1      -4.906  -3.774  18.683  1.00  0.00    -0.386 OA
BRANCH  32  33
HETATM   33  C3  UNL     1      -4.970  -3.291  19.985  1.00  0.00     0.194 C 
BRANCH  33  34
HETATM   34  C2  UNL     1      -5.058  -1.813  20.043  1.00  0.00    -0.011 C 
HETATM   35  C1  UNL     1      -5.898  -1.177  19.239  1.00  0.00     0.009 C 
ENDBRANCH  33  34
ENDBRANCH  32  33
ENDBRANCH  31  32
ENDBRANCH  30  31
ENDBRANCH  27  30
ENDBRANCH  26  27
ENDBRANCH  25  26
ENDBRANCH  22  25
ENDBRANCH  20  22
ENDBRANCH   1  20
BRANCH   9  36
HETATM   36  N5  UNL     1      -4.509   3.015  13.380  1.00  0.00    -0.335 N 
ATOM     37  H52 UNL     1      -4.585   4.021  13.531  1.00  0.00     0.177 HD
ATOM     38  H51 UNL     1      -5.036   2.785  12.538  1.00  0.00     0.177 HD
ENDBRANCH   9  36
TORSDOF 11
ENDMDL
MODEL 3
REMARK VINA RESULT: -8.025615447      1.680      2.064
REMARK  11 active torsions:
REMARK  status: ('A' for Active; 'I' for Inactive)
REMARK    1  A    between atoms: C2_2  and  C3_3 
REMARK    2  A    between atoms: C3_3  and  O1_4 
REMARK    3  A    between atoms: O1_4  and  C4_5 
REMARK    4  A    between atoms: C4_5  and  C5_6 
REMARK    5  A    between atoms: C5_6  and  N1_7 
REMARK    6  A    between atoms: N1_7  and  C6_10 
REMARK    7  A    between atoms: C6_10  and  C7_11 
REMARK    8  A    between atoms: C7_11  and  S1_12 
REMARK    9  A    between atoms: S1_12  and  N2_15 
REMARK   10  A    between atoms: N2_15  and  C8_17 
REMARK   11  A    between atoms: N4_25  and  N5_26 
ROOT
HETATM    1  C8  UNL     1      -2.260   0.144  16.958  1.00  0.00     0.047 C 
HETATM    2  C9  UNL     1      -2.083   0.853  18.318  1.00  0.00     0.033 C 
HETATM    3  C10 UNL     1      -1.191  -0.270  18.777  1.00  0.00     0.011 C 
HETATM    4  C11 UNL     1      -1.176  -0.751  17.342  1.00  0.00     0.033 C 
HETATM    5  C12 UNL     1      -1.329  -2.198  17.178  1.00  0.00     0.138 C 
HETATM    6  N3  UNL     1      -2.264  -2.749  18.130  1.00  0.00    -0.320 N 
HETATM    7  C13 UNL     1      -3.508  -2.305  18.317  1.00  0.00     0.091 A 
HETATM    8  C14 UNL     1      -4.114  -3.061  19.297  1.00  0.00     0.151 A 
HETATM    9  N4  UNL     1      -3.214  -3.966  19.697  1.00  0.00    -0.218 N 
HETATM   10  C15 UNL     1      -2.090  -3.771  18.983  1.00  0.00     0.201 A 
HETATM   11  S2  UNL     1      -0.693  -4.647  19.120  1.00  0.00    -0.038 SA
HETATM   12  N6  UNL     1      -5.462  -2.715  19.623  1.00  0.00    -0.350 N 
ATOM     13  H6  UNL     1      -6.004  -3.370  20.186  1.00  0.00     0.162 HD
HETATM   14  C16 UNL     1      -6.104  -1.485  19.197  1.00  0.00     0.357 C 
HETATM   15  N7  UNL     1      -5.000  -0.582  18.797  1.00  0.00    -0.050 N 
ATOM     16  H71 UNL     1      -4.387  -0.329  19.572  1.00  0.00     0.280 HD
ATOM     17  H72 UNL     1      -5.316   0.361  18.569  1.00  0.00     0.280 HD
HETATM   18  C17 UNL     1      -4.306  -1.224  17.714  1.00  0.00     0.243 C 
HETATM   19  C18 UNL     1      -3.620  -0.393  16.729  1.00  0.00     0.071 C 
ENDROOT
BRANCH   1  20
HETATM   20  N2  UNL     1      -1.985   1.162  15.968  1.00  0.00    -0.309 N 
ATOM     21  H2  UNL     1      -2.729   1.437  15.326  1.00  0.00     0.173 HD
BRANCH  20  22
HETATM   22  S1  UNL     1      -0.526   1.891  15.838  1.00  0.00     0.228 S 
HETATM   23  O2  UNL     1       0.404   1.970  16.966  1.00  0.00    -0.206 OA
HETATM   24  O3  UNL     1       0.253   1.274  14.679  1.00  0.00    -0.206 OA
BRANCH  22  25
HETATM   25  C7  UNL     1      -0.794   3.602  15.316  1.00  0.00     0.190 C 
BRANCH  25  26
HETATM   26  C6  UNL     1      -1.891   4.222  16.156  1.00  0.00     0.249 C 
BRANCH  26  27
HETATM   27  N1  UNL     1      -2.973   4.723  15.352  1.00  0.00    -0.072 N 
ATOM     28  H12 UNL     1      -3.052   5.738  15.427  1.00  0.00     0.277 HD
ATOM     29  H11 UNL     1      -3.878   4.462  15.743  1.00  0.00     0.277 HD
BRANCH  27  30
HETATM   30  C5  UNL     1      -2.857   4.305  13.969  1.00  0.00     0.258 C 
BRANCH  30  31
HETATM   31  C4  UNL     1      -3.984   3.329  13.655  1.00  0.00     0.195 C 
BRANCH  31  32
HETATM   32  O1  UNL     1      -3.469   2.053  13.473  1.00  0.00    -0.386 OA
BRANCH  32  33
HETATM   33  C3  UNL     1      -4.525   1.155  13.375  1.00  0.00     0.194 C 
BRANCH  33  34
HETATM   34  C2  UNL     1      -4.139  -0.113  12.713  1.00  0.00    -0.011 C 
HETATM   35  C1  UNL     1      -4.899  -0.602  11.743  1.00  0.00     0.009 C 
ENDBRANCH  33  34
ENDBRANCH  32  33
ENDBRANCH  31  32
ENDBRANCH  30  31
ENDBRANCH  27  30
ENDBRANCH  26  27
ENDBRANCH  25  26
ENDBRANCH  22  25
ENDBRANCH  20  22
ENDBRANCH   1  20
BRANCH   9  36
HETATM   36  N5  UNL     1      -3.451  -4.930  20.691  1.00  0.00    -0.335 N 
ATOM     37  H52 UNL     1      -4.318  -5.110  21.197  1.00  0.00     0.177 HD
ATOM     38  H51 UNL     1      -2.748  -5.585  21.033  1.00  0.00     0.177 HD
ENDBRANCH   9  36
TORSDOF 11
ENDMDL
MODEL 4
REMARK VINA RESULT: -7.991393809      3.253      7.021
REMARK  11 active torsions:
REMARK  status: ('A' for Active; 'I' for Inactive)
REMARK    1  A    between atoms: C2_2  and  C3_3 
REMARK    2  A    between atoms: C3_3  and  O1_4 
REMARK    3  A    between atoms: O1_4  and  C4_5 
REMARK    4  A    between atoms: C4_5  and  C5_6 
REMARK    5  A    between atoms: C5_6  and  N1_7 
REMARK    6  A    between atoms: N1_7  and  C6_10 
REMARK    7  A    between atoms: C6_10  and  C7_11 
REMARK    8  A    between atoms: C7_11  and  S1_12 
REMARK    9  A    between atoms: S1_12  and  N2_15 
REMARK   10  A    between atoms: N2_15  and  C8_17 
REMARK   11  A    between atoms: N4_25  and  N5_26 
ROOT
HETATM    1  C8  UNL     1      -1.382  -0.404  17.768  1.00  0.00     0.047 C 
HETATM    2  C9  UNL     1      -0.091  -0.255  16.935  1.00  0.00     0.033 C 
HETATM    3  C10 UNL     1      -0.056   1.213  17.271  1.00  0.00     0.011 C 
HETATM    4  C11 UNL     1      -1.140   0.934  18.291  1.00  0.00     0.033 C 
HETATM    5  C12 UNL     1      -2.225   1.916  18.319  1.00  0.00     0.138 C 
HETATM    6  N3  UNL     1      -2.562   2.380  16.994  1.00  0.00    -0.320 N 
HETATM    7  C13 UNL     1      -2.862   1.586  15.965  1.00  0.00     0.091 A 
HETATM    8  C14 UNL     1      -3.133   2.363  14.859  1.00  0.00     0.151 A 
HETATM    9  N4  UNL     1      -2.988   3.636  15.239  1.00  0.00    -0.218 N 
HETATM   10  C15 UNL     1      -2.640   3.641  16.539  1.00  0.00     0.201 A 
HETATM   11  S2  UNL     1      -2.349   4.986  17.458  1.00  0.00    -0.038 SA
HETATM   12  N6  UNL     1      -3.475   1.663  13.661  1.00  0.00    -0.350 N 
ATOM     13  H6  UNL     1      -3.875   2.197  12.889  1.00  0.00     0.162 HD
HETATM   14  C16 UNL     1      -3.287   0.236  13.478  1.00  0.00     0.357 C 
HETATM   15  N7  UNL     1      -2.333  -0.174  14.533  1.00  0.00    -0.050 N 
ATOM     16  H71 UNL     1      -1.411   0.249  14.428  1.00  0.00     0.280 HD
ATOM     17  H72 UNL     1      -2.039  -1.148  14.452  1.00  0.00     0.280 HD
HETATM   18  C17 UNL     1      -2.952   0.125  15.797  1.00  0.00     0.243 C 
HETATM   19  C18 UNL     1      -2.593  -0.678  16.962  1.00  0.00     0.071 C 
ENDROOT
BRANCH   1  20
HETATM   20  N2  UNL     1      -1.135  -1.532  18.640  1.00  0.00    -0.309 N 
ATOM     21  H2  UNL     1      -1.101  -1.376  19.648  1.00  0.00     0.173 HD
BRANCH  20  22
HETATM   22  S1  UNL     1      -0.908  -3.049  18.071  1.00  0.00     0.228 S 
HETATM   23  O2  UNL     1      -1.715  -3.596  16.979  1.00  0.00    -0.206 OA
HETATM   24  O3  UNL     1       0.552  -3.230  17.660  1.00  0.00    -0.206 OA
BRANCH  22  25
HETATM   25  C7  UNL     1      -1.117  -4.206  19.446  1.00  0.00     0.190 C 
BRANCH  25  26
HETATM   26  C6  UNL     1      -1.294  -5.609  18.906  1.00  0.00     0.249 C 
BRANCH  26  27
HETATM   27  N1  UNL     1      -2.624  -5.837  18.410  1.00  0.00    -0.072 N 
ATOM     28  H12 UNL     1      -2.759  -6.812  18.142  1.00  0.00     0.277 HD
ATOM     29  H11 UNL     1      -2.760  -5.400  17.498  1.00  0.00     0.277 HD
BRANCH  27  30
HETATM   30  C5  UNL     1      -3.634  -5.406  19.355  1.00  0.00     0.258 C 
BRANCH  30  31
HETATM   31  C4  UNL     1      -4.733  -4.671  18.599  1.00  0.00     0.195 C 
BRANCH  31  32
HETATM   32  O1  UNL     1      -5.389  -3.793  19.451  1.00  0.00    -0.386 OA
BRANCH  32  33
HETATM   33  C3  UNL     1      -4.449  -2.954  20.039  1.00  0.00     0.194 C 
BRANCH  33  34
HETATM   34  C2  UNL     1      -4.857  -1.531  20.014  1.00  0.00    -0.011 C 
HETATM   35  C1  UNL     1      -5.729  -1.117  19.105  1.00  0.00     0.009 C 
ENDBRANCH  33  34
ENDBRANCH  32  33
ENDBRANCH  31  32
ENDBRANCH  30  31
ENDBRANCH  27  30
ENDBRANCH  26  27
ENDBRANCH  25  26
ENDBRANCH  22  25
ENDBRANCH  20  22
ENDBRANCH   1  20
BRANCH   9  36
HETATM   36  N5  UNL     1      -3.178   4.740  14.391  1.00  0.00    -0.335 N 
ATOM     37  H52 UNL     1      -2.803   5.684  14.495  1.00  0.00     0.177 HD
ATOM     38  H51 UNL     1      -3.739   4.719  13.540  1.00  0.00     0.177 HD
ENDBRANCH   9  36
TORSDOF 11
ENDMDL
MODEL 5
REMARK VINA RESULT: -7.981025627      1.105      1.428
REMARK  11 active torsions:
REMARK  status: ('A' for Active; 'I' for Inactive)
REMARK    1  A    between atoms: C2_2  and  C3_3 
REMARK    2  A    between atoms: C3_3  and  O1_4 
REMARK    3  A    between atoms: O1_4  and  C4_5 
REMARK    4  A    between atoms: C4_5  and  C5_6 
REMARK    5  A    between atoms: C5_6  and  N1_7 
REMARK    6  A    between atoms: N1_7  and  C6_10 
REMARK    7  A    between atoms: C6_10  and  C7_11 
REMARK    8  A    between atoms: C7_11  and  S1_12 
REMARK    9  A    between atoms: S1_12  and  N2_15 
REMARK   10  A    between atoms: N2_15  and  C8_17 
REMARK   11  A    between atoms: N4_25  and  N5_26 
ROOT
HETATM    1  C8  UNL     1      -1.439  -1.205  17.599  1.00  0.00     0.047 C 
HETATM    2  C9  UNL     1      -1.306  -0.451  18.940  1.00  0.00     0.033 C 
HETATM    3  C10 UNL     1      -1.014  -1.757  19.633  1.00  0.00     0.011 C 
HETATM    4  C11 UNL     1      -0.874  -2.375  18.259  1.00  0.00     0.033 C 
HETATM    5  C12 UNL     1      -1.514  -3.682  18.105  1.00  0.00     0.138 C 
HETATM    6  N3  UNL     1      -2.766  -3.753  18.820  1.00  0.00    -0.320 N 
HETATM    7  C13 UNL     1      -3.766  -2.879  18.689  1.00  0.00     0.091 A 
HETATM    8  C14 UNL     1      -4.803  -3.252  19.516  1.00  0.00     0.151 A 
HETATM    9  N4  UNL     1      -4.411  -4.364  20.147  1.00  0.00    -0.218 N 
HETATM   10  C15 UNL     1      -3.171  -4.664  19.719  1.00  0.00     0.201 A 
HETATM   11  S2  UNL     1      -2.263  -5.955  20.214  1.00  0.00    -0.038 SA
HETATM   12  N6  UNL     1      -5.962  -2.416  19.497  1.00  0.00    -0.350 N 
ATOM     13  H6  UNL     1      -6.815  -2.766  19.933  1.00  0.00     0.162 HD
HETATM   14  C16 UNL     1      -5.994  -1.096  18.895  1.00  0.00     0.357 C 
HETATM   15  N7  UNL     1      -4.577  -0.696  18.745  1.00  0.00    -0.050 N 
ATOM     16  H71 UNL     1      -4.094  -0.588  19.637  1.00  0.00     0.280 HD
ATOM     17  H72 UNL     1      -4.464   0.265  18.420  1.00  0.00     0.280 HD
HETATM   18  C17 UNL     1      -3.957  -1.663  17.880  1.00  0.00     0.243 C 
HETATM   19  C18 UNL     1      -2.819  -1.248  17.066  1.00  0.00     0.071 C 
ENDROOT
BRANCH   1  20
HETATM   20  N2  UNL     1      -0.602  -0.472  16.675  1.00  0.00    -0.309 N 
ATOM     21  H2  UNL     1       0.154  -0.966  16.198  1.00  0.00     0.173 HD
BRANCH  20  22
HETATM   22  S1  UNL     1      -0.820   1.119  16.364  1.00  0.00     0.228 S 
HETATM   23  O2  UNL     1      -2.030   1.831  16.780  1.00  0.00    -0.206 OA
HETATM   24  O3  UNL     1       0.361   1.916  16.915  1.00  0.00    -0.206 OA
BRANCH  22  25
HETATM   25  C7  UNL     1      -0.710   1.366  14.575  1.00  0.00     0.190 C 
BRANCH  25  26
HETATM   26  C6  UNL     1      -0.057   2.701  14.286  1.00  0.00     0.249 C 
BRANCH  26  27
HETATM   27  N1  UNL     1      -0.729   3.789  14.943  1.00  0.00    -0.072 N 
ATOM     28  H12 UNL     1      -0.064   4.424  15.384  1.00  0.00     0.277 HD
ATOM     29  H11 UNL     1      -1.224   3.470  15.776  1.00  0.00     0.277 HD
BRANCH  27  30
HETATM   30  C5  UNL     1      -1.616   4.498  14.042  1.00  0.00     0.258 C 
BRANCH  30  31
HETATM   31  C4  UNL     1      -3.055   4.261  14.482  1.00  0.00     0.195 C 
BRANCH  31  32
HETATM   32  O1  UNL     1      -3.761   3.624  13.471  1.00  0.00    -0.386 OA
BRANCH  32  33
HETATM   33  C3  UNL     1      -4.217   2.400  13.947  1.00  0.00     0.194 C 
BRANCH  33  34
HETATM   34  C2  UNL     1      -5.309   1.836  13.121  1.00  0.00    -0.011 C 
HETATM   35  C1  UNL     1      -6.317   2.613  12.752  1.00  0.00     0.009 C 
ENDBRANCH  33  34
ENDBRANCH  32  33
ENDBRANCH  31  32
ENDBRANCH  30  31
ENDBRANCH  27  30
ENDBRANCH  26  27
ENDBRANCH  25  26
ENDBRANCH  22  25
ENDBRANCH  20  22
ENDBRANCH   1  20
BRANCH   9  36
HETATM   36  N5  UNL     1      -5.194  -5.060  21.083  1.00  0.00    -0.335 N 
ATOM     37  H52 UNL     1      -5.921  -5.752  20.902  1.00  0.00     0.177 HD
ATOM     38  H51 UNL     1      -5.119  -4.942  22.093  1.00  0.00     0.177 HD
ENDBRANCH   9  36
TORSDOF 11
ENDMDL
