MODEL 1
REMARK VINA RESULT: -8.515690937      0.000      0.000
REMARK  12 active torsions:
REMARK  status: ('A' for Active; 'I' for Inactive)
REMARK    1  A    between atoms: C2_2  and  O1_3 
REMARK    2  A    between atoms: O1_3  and  C3_4 
REMARK    3  A    between atoms: C3_4  and  C4_5 
REMARK    4  A    between atoms: C4_5  and  O2_6 
REMARK    5  A    between atoms: O2_6  and  C5_7 
REMARK    6  A    between atoms: C8_11  and  O4_12 
REMARK    7  A    between atoms: C9_14  and  S1_15 
REMARK    8  A    between atoms: S1_15  and  C10_16 
REMARK    9  A    between atoms: C10_16  and  C11_17 
REMARK   10  A    between atoms: C14_20  and  C15_21 
REMARK   11  A    between atoms: C17_29  and  O5_30 
REMARK   12  A    between atoms: C18_32  and  O6_33 
ROOT
HETATM    1  C5  UNL     1      30.151  14.302   0.887  1.00  0.00     0.418 C 
HETATM    2  O3  UNL     1      28.835  14.816   0.792  1.00  0.00    -0.308 OA
HETATM    3  C6  UNL     1      27.883  13.998   0.167  1.00  0.00     0.149 C 
HETATM    4  C7  UNL     1      28.328  13.367  -0.914  1.00  0.00     0.008 C 
HETATM    5  C8  UNL     1      27.374  12.482  -1.631  1.00  0.00     0.168 C 
HETATM    6  C9  UNL     1      28.076  11.614  -2.649  1.00  0.00     0.111 C 
HETATM    7  C17 UNL     1      29.172  12.433  -3.363  1.00  0.00     0.166 C 
HETATM    8  C18 UNL     1      30.253  12.668  -2.339  1.00  0.00     0.187 C 
HETATM    9  C19 UNL     1      29.725  13.608  -1.296  1.00  0.00     0.118 C 
HETATM   10  C20 UNL     1      29.930  15.032  -1.808  1.00  0.00     0.054 C 
HETATM   11  O7  UNL     1      30.503  13.465  -0.158  1.00  0.00    -0.320 OA
ENDROOT
BRANCH   6  12
HETATM   12  S1  UNL     1      28.869  10.194  -1.956  1.00  0.00    -0.158 SA
BRANCH  12  13
HETATM   13  C10 UNL     1      27.980   9.250  -0.750  1.00  0.00     0.080 C 
BRANCH  13  14
HETATM   14  C11 UNL     1      28.655   9.096   0.584  1.00  0.00     0.021 C 
HETATM   15  C12 UNL     1      29.861  10.032   0.592  1.00  0.00     0.009 C 
HETATM   16  C13 UNL     1      30.697   9.673   1.786  1.00  0.00     0.039 C 
HETATM   17  C14 UNL     1      29.871   9.373   3.004  1.00  0.00     0.223 C 
HETATM   18  N2  UNL     1      28.524   9.889   2.902  1.00  0.00    -0.066 N 
HETATM   19  C16 UNL     1      27.799   9.342   1.765  1.00  0.00     0.238 C 
ATOM     20  H22 UNL     1      28.009   9.742   3.770  1.00  0.00     0.278 HD
ATOM     21  H21 UNL     1      28.523  10.909   2.880  1.00  0.00     0.278 HD
BRANCH  17  22
HETATM   22  C15 UNL     1      30.508  10.052   4.165  1.00  0.00     0.085 C 
HETATM   23  N1  UNL     1      30.488   9.491   5.315  1.00  0.00    -0.409 N 
ATOM     24  H12 UNL     1      30.034   8.583   5.418  1.00  0.00     0.155 HD
ATOM     25  H11 UNL     1      30.925   9.956   6.110  1.00  0.00     0.155 HD
ENDBRANCH  17  22
ENDBRANCH  13  14
ENDBRANCH  12  13
ENDBRANCH   6  12
BRANCH   5  26
HETATM   26  O4  UNL     1      26.605  11.732  -0.758  1.00  0.00    -0.390 OA
ATOM     27  H4  UNL     1      25.715  11.623  -1.072  1.00  0.00     0.210 HD
ENDBRANCH   5  26
BRANCH   7  28
HETATM   28  O5  UNL     1      28.650  13.595  -3.886  1.00  0.00    -0.392 OA
ATOM     29  H5  UNL     1      29.290  14.035  -4.435  1.00  0.00     0.210 HD
ENDBRANCH   7  28
BRANCH   8  30
HETATM   30  O6  UNL     1      31.370  13.222  -2.986  1.00  0.00    -0.390 OA
ATOM     31  H6  UNL     1      31.687  13.954  -2.470  1.00  0.00     0.210 HD
ENDBRANCH   8  30
BRANCH   1  32
HETATM   32  O2  UNL     1      30.332  13.605   2.054  1.00  0.00    -0.337 OA
BRANCH  32  33
HETATM   33  C4  UNL     1      31.625  13.381   2.439  1.00  0.00     0.199 C 
BRANCH  33  34
HETATM   34  C3  UNL     1      32.492  14.612   2.394  1.00  0.00     0.193 C 
BRANCH  34  35
HETATM   35  O1  UNL     1      33.672  14.329   1.686  1.00  0.00    -0.389 OA
BRANCH  35  36
HETATM   36  C2  UNL     1      34.083  15.459   0.998  1.00  0.00     0.163 C 
HETATM   37  C1  UNL     1      33.018  16.519   1.164  1.00  0.00     0.033 C 
ENDBRANCH  35  36
ENDBRANCH  34  35
ENDBRANCH  33  34
ENDBRANCH  32  33
ENDBRANCH   1  32
TORSDOF 12
ENDMDL
MODEL 2
REMARK VINA RESULT: -8.351102912      0.713      1.180
REMARK  12 active torsions:
REMARK  status: ('A' for Active; 'I' for Inactive)
REMARK    1  A    between atoms: C2_2  and  O1_3 
REMARK    2  A    between atoms: O1_3  and  C3_4 
REMARK    3  A    between atoms: C3_4  and  C4_5 
REMARK    4  A    between atoms: C4_5  and  O2_6 
REMARK    5  A    between atoms: O2_6  and  C5_7 
REMARK    6  A    between atoms: C8_11  and  O4_12 
REMARK    7  A    between atoms: C9_14  and  S1_15 
REMARK    8  A    between atoms: S1_15  and  C10_16 
REMARK    9  A    between atoms: C10_16  and  C11_17 
REMARK   10  A    between atoms: C14_20  and  C15_21 
REMARK   11  A    between atoms: C17_29  and  O5_30 
REMARK   12  A    between atoms: C18_32  and  O6_33 
ROOT
HETATM    1  C5  UNL     1      30.099  14.433   0.807  1.00  0.00     0.418 C 
HETATM    2  O3  UNL     1      28.782  14.935   0.669  1.00  0.00    -0.308 OA
HETATM    3  C6  UNL     1      27.842  14.082   0.073  1.00  0.00     0.149 C 
HETATM    4  C7  UNL     1      28.304  13.399  -0.969  1.00  0.00     0.008 C 
HETATM    5  C8  UNL     1      27.365  12.474  -1.653  1.00  0.00     0.168 C 
HETATM    6  C9  UNL     1      28.084  11.560  -2.617  1.00  0.00     0.111 C 
HETATM    7  C17 UNL     1      29.187  12.348  -3.356  1.00  0.00     0.166 C 
HETATM    8  C18 UNL     1      30.251  12.639  -2.331  1.00  0.00     0.187 C 
HETATM    9  C19 UNL     1      29.706  13.627  -1.343  1.00  0.00     0.118 C 
HETATM   10  C20 UNL     1      29.911  15.026  -1.924  1.00  0.00     0.054 C 
HETATM   11  O7  UNL     1      30.468  13.546  -0.190  1.00  0.00    -0.320 OA
ENDROOT
BRANCH   6  12
HETATM   12  S1  UNL     1      28.874  10.181  -1.843  1.00  0.00    -0.158 SA
BRANCH  12  13
HETATM   13  C10 UNL     1      27.927   9.213  -0.701  1.00  0.00     0.080 C 
BRANCH  13  14
HETATM   14  C11 UNL     1      28.564   8.981   0.641  1.00  0.00     0.021 C 
HETATM   15  C12 UNL     1      29.863   9.782   0.670  1.00  0.00     0.009 C 
HETATM   16  C13 UNL     1      30.640   9.330   1.872  1.00  0.00     0.039 C 
HETATM   17  C14 UNL     1      29.769   9.115   3.078  1.00  0.00     0.223 C 
HETATM   18  N2  UNL     1      28.487   9.773   2.961  1.00  0.00    -0.066 N 
HETATM   19  C16 UNL     1      27.723   9.312   1.812  1.00  0.00     0.238 C 
ATOM     20  H22 UNL     1      27.948   9.677   3.822  1.00  0.00     0.278 HD
ATOM     21  H21 UNL     1      28.596  10.787   2.946  1.00  0.00     0.278 HD
BRANCH  17  22
HETATM   22  C15 UNL     1      30.461   9.716   4.251  1.00  0.00     0.085 C 
HETATM   23  N1  UNL     1      30.154   9.329   5.432  1.00  0.00    -0.409 N 
ATOM     24  H12 UNL     1      29.439   8.612   5.551  1.00  0.00     0.155 HD
ATOM     25  H11 UNL     1      30.628   9.741   6.236  1.00  0.00     0.155 HD
ENDBRANCH  17  22
ENDBRANCH  13  14
ENDBRANCH  12  13
ENDBRANCH   6  12
BRANCH   5  26
HETATM   26  O4  UNL     1      26.587  11.766  -0.754  1.00  0.00    -0.390 OA
ATOM     27  H4  UNL     1      25.768  12.209  -0.565  1.00  0.00     0.210 HD
ENDBRANCH   5  26
BRANCH   7  28
HETATM   28  O5  UNL     1      28.666  13.479  -3.945  1.00  0.00    -0.392 OA
ATOM     29  H5  UNL     1      28.812  13.468  -4.883  1.00  0.00     0.210 HD
ENDBRANCH   7  28
BRANCH   8  30
HETATM   30  O6  UNL     1      31.375  13.166  -2.990  1.00  0.00    -0.390 OA
ATOM     31  H6  UNL     1      32.148  12.702  -2.690  1.00  0.00     0.210 HD
ENDBRANCH   8  30
BRANCH   1  32
HETATM   32  O2  UNL     1      30.267  13.796   2.009  1.00  0.00    -0.337 OA
BRANCH  32  33
HETATM   33  C4  UNL     1      31.187  14.337   2.866  1.00  0.00     0.199 C 
BRANCH  33  34
HETATM   34  C3  UNL     1      32.509  14.650   2.214  1.00  0.00     0.193 C 
BRANCH  34  35
HETATM   35  O1  UNL     1      33.437  13.644   2.529  1.00  0.00    -0.389 OA
BRANCH  35  36
HETATM   36  C2  UNL     1      33.286  12.583   1.652  1.00  0.00     0.163 C 
HETATM   37  C1  UNL     1      33.510  11.303   2.425  1.00  0.00     0.033 C 
ENDBRANCH  35  36
ENDBRANCH  34  35
ENDBRANCH  33  34
ENDBRANCH  32  33
ENDBRANCH   1  32
TORSDOF 12
ENDMDL
MODEL 3
REMARK VINA RESULT: -8.047476294      3.872      7.039
REMARK  12 active torsions:
REMARK  status: ('A' for Active; 'I' for Inactive)
REMARK    1  A    between atoms: C2_2  and  O1_3 
REMARK    2  A    between atoms: O1_3  and  C3_4 
REMARK    3  A    between atoms: C3_4  and  C4_5 
REMARK    4  A    between atoms: C4_5  and  O2_6 
REMARK    5  A    between atoms: O2_6  and  C5_7 
REMARK    6  A    between atoms: C8_11  and  O4_12 
REMARK    7  A    between atoms: C9_14  and  S1_15 
REMARK    8  A    between atoms: S1_15  and  C10_16 
REMARK    9  A    between atoms: C10_16  and  C11_17 
REMARK   10  A    between atoms: C14_20  and  C15_21 
REMARK   11  A    between atoms: C17_29  and  O5_30 
REMARK   12  A    between atoms: C18_32  and  O6_33 
ROOT
HETATM    1  C5  UNL     1      28.778   9.026   2.150  1.00  0.00     0.418 C 
HETATM    2  O3  UNL     1      30.129   8.827   1.777  1.00  0.00    -0.308 OA
HETATM    3  C6  UNL     1      30.857   9.970   1.415  1.00  0.00     0.149 C 
HETATM    4  C7  UNL     1      30.181  10.838   0.669  1.00  0.00     0.008 C 
HETATM    5  C8  UNL     1      30.888  12.074   0.246  1.00  0.00     0.168 C 
HETATM    6  C9  UNL     1      29.934  13.090  -0.338  1.00  0.00     0.111 C 
HETATM    7  C17 UNL     1      28.882  12.374  -1.211  1.00  0.00     0.166 C 
HETATM    8  C18 UNL     1      27.998  11.610  -0.260  1.00  0.00     0.187 C 
HETATM    9  C19 UNL     1      28.795  10.486   0.334  1.00  0.00     0.118 C 
HETATM   10  C20 UNL     1      28.733   9.309  -0.637  1.00  0.00     0.054 C 
HETATM   11  O7  UNL     1      28.168  10.088   1.503  1.00  0.00    -0.320 OA
ENDROOT
BRANCH   6  12
HETATM   12  S1  UNL     1      29.044  14.017   0.876  1.00  0.00    -0.158 SA
BRANCH  12  13
HETATM   13  C10 UNL     1      29.904  15.307   1.733  1.00  0.00     0.080 C 
BRANCH  13  14
HETATM   14  C11 UNL     1      30.786  16.178   0.882  1.00  0.00     0.021 C 
HETATM   15  C12 UNL     1      30.208  17.590   0.930  1.00  0.00     0.009 C 
HETATM   16  C13 UNL     1      30.898  18.391  -0.135  1.00  0.00     0.039 C 
HETATM   17  C14 UNL     1      32.370  18.098  -0.219  1.00  0.00     0.223 C 
HETATM   18  N2  UNL     1      32.876  17.457   0.974  1.00  0.00    -0.066 N 
HETATM   19  C16 UNL     1      32.218  16.190   1.253  1.00  0.00     0.238 C 
ATOM     20  H22 UNL     1      33.889  17.341   0.924  1.00  0.00     0.278 HD
ATOM     21  H21 UNL     1      32.821  18.083   1.778  1.00  0.00     0.278 HD
BRANCH  17  22
HETATM   22  C15 UNL     1      33.085  19.397  -0.351  1.00  0.00     0.085 C 
HETATM   23  N1  UNL     1      32.417  20.488  -0.370  1.00  0.00    -0.409 N 
ATOM     24  H12 UNL     1      31.400  20.450  -0.294  1.00  0.00     0.155 HD
ATOM     25  H11 UNL     1      32.907  21.378  -0.460  1.00  0.00     0.155 HD
ENDBRANCH  17  22
ENDBRANCH  13  14
ENDBRANCH  12  13
ENDBRANCH   6  12
BRANCH   5  26
HETATM   26  O4  UNL     1      31.651  12.611   1.268  1.00  0.00    -0.390 OA
ATOM     27  H4  UNL     1      31.504  12.166   2.094  1.00  0.00     0.210 HD
ENDBRANCH   5  26
BRANCH   7  28
HETATM   28  O5  UNL     1      29.493  11.577  -2.154  1.00  0.00    -0.392 OA
ATOM     29  H5  UNL     1      30.407  11.815  -2.256  1.00  0.00     0.210 HD
ENDBRANCH   7  28
BRANCH   8  30
HETATM   30  O6  UNL     1      26.897  11.112  -0.975  1.00  0.00    -0.390 OA
ATOM     31  H6  UNL     1      27.213  10.691  -1.766  1.00  0.00     0.210 HD
ENDBRANCH   8  30
BRANCH   1  32
HETATM   32  O2  UNL     1      28.658   9.239   3.498  1.00  0.00    -0.337 OA
BRANCH  32  33
HETATM   33  C4  UNL     1      29.171   8.272   4.319  1.00  0.00     0.199 C 
BRANCH  33  34
HETATM   34  C3  UNL     1      30.249   8.773   5.244  1.00  0.00     0.193 C 
BRANCH  34  35
HETATM   35  O1  UNL     1      29.695   9.047   6.506  1.00  0.00    -0.389 OA
BRANCH  35  36
HETATM   36  C2  UNL     1      29.000   7.937   6.957  1.00  0.00     0.163 C 
HETATM   37  C1  UNL     1      27.892   8.418   7.866  1.00  0.00     0.033 C 
ENDBRANCH  35  36
ENDBRANCH  34  35
ENDBRANCH  33  34
ENDBRANCH  32  33
ENDBRANCH   1  32
TORSDOF 12
ENDMDL
MODEL 4
REMARK VINA RESULT: -8.001191092      3.640      6.642
REMARK  12 active torsions:
REMARK  status: ('A' for Active; 'I' for Inactive)
REMARK    1  A    between atoms: C2_2  and  O1_3 
REMARK    2  A    between atoms: O1_3  and  C3_4 
REMARK    3  A    between atoms: C3_4  and  C4_5 
REMARK    4  A    between atoms: C4_5  and  O2_6 
REMARK    5  A    between atoms: O2_6  and  C5_7 
REMARK    6  A    between atoms: C8_11  and  O4_12 
REMARK    7  A    between atoms: C9_14  and  S1_15 
REMARK    8  A    between atoms: S1_15  and  C10_16 
REMARK    9  A    between atoms: C10_16  and  C11_17 
REMARK   10  A    between atoms: C14_20  and  C15_21 
REMARK   11  A    between atoms: C17_29  and  O5_30 
REMARK   12  A    between atoms: C18_32  and  O6_33 
ROOT
HETATM    1  C5  UNL     1      28.595   9.008   1.933  1.00  0.00     0.418 C 
HETATM    2  O3  UNL     1      29.948   8.817   1.565  1.00  0.00    -0.308 OA
HETATM    3  C6  UNL     1      30.689   9.971   1.268  1.00  0.00     0.149 C 
HETATM    4  C7  UNL     1      30.027  10.880   0.558  1.00  0.00     0.008 C 
HETATM    5  C8  UNL     1      30.748  12.129   0.205  1.00  0.00     0.168 C 
HETATM    6  C9  UNL     1      29.808  13.181  -0.338  1.00  0.00     0.111 C 
HETATM    7  C17 UNL     1      28.760  12.517  -1.257  1.00  0.00     0.166 C 
HETATM    8  C18 UNL     1      27.860  11.714  -0.354  1.00  0.00     0.187 C 
HETATM    9  C19 UNL     1      28.642  10.556   0.193  1.00  0.00     0.118 C 
HETATM   10  C20 UNL     1      28.582   9.428  -0.836  1.00  0.00     0.054 C 
HETATM   11  O7  UNL     1      28.000  10.106   1.334  1.00  0.00    -0.320 OA
ENDROOT
BRANCH   6  12
HETATM   12  S1  UNL     1      28.912  14.053   0.911  1.00  0.00    -0.158 SA
BRANCH  12  13
HETATM   13  C10 UNL     1      29.726  15.392   1.736  1.00  0.00     0.080 C 
BRANCH  13  14
HETATM   14  C11 UNL     1      30.711  16.167   0.905  1.00  0.00     0.021 C 
HETATM   15  C12 UNL     1      30.280  17.630   0.938  1.00  0.00     0.009 C 
HETATM   16  C13 UNL     1      31.073  18.353  -0.111  1.00  0.00     0.039 C 
HETATM   17  C14 UNL     1      32.508  17.911  -0.160  1.00  0.00     0.223 C 
HETATM   18  N2  UNL     1      32.919  17.226   1.044  1.00  0.00    -0.066 N 
HETATM   19  C16 UNL     1      32.129  16.034   1.309  1.00  0.00     0.238 C 
ATOM     20  H22 UNL     1      33.915  17.006   1.019  1.00  0.00     0.278 HD
ATOM     21  H21 UNL     1      32.910  17.857   1.846  1.00  0.00     0.278 HD
BRANCH  17  22
HETATM   22  C15 UNL     1      33.356  19.130  -0.277  1.00  0.00     0.085 C 
HETATM   23  N1  UNL     1      33.873  19.434  -1.407  1.00  0.00    -0.409 N 
ATOM     24  H12 UNL     1      33.695  18.834  -2.214  1.00  0.00     0.155 HD
ATOM     25  H11 UNL     1      34.454  20.269  -1.487  1.00  0.00     0.155 HD
ENDBRANCH  17  22
ENDBRANCH  13  14
ENDBRANCH  12  13
ENDBRANCH   6  12
BRANCH   5  26
HETATM   26  O4  UNL     1      31.504  12.609   1.259  1.00  0.00    -0.390 OA
ATOM     27  H4  UNL     1      32.349  12.178   1.317  1.00  0.00     0.210 HD
ENDBRANCH   5  26
BRANCH   7  28
HETATM   28  O5  UNL     1      29.375  11.762  -2.232  1.00  0.00    -0.392 OA
ATOM     29  H5  UNL     1      30.311  11.715  -2.080  1.00  0.00     0.210 HD
ENDBRANCH   7  28
BRANCH   8  30
HETATM   30  O6  UNL     1      26.762  11.261  -1.104  1.00  0.00    -0.390 OA
ATOM     31  H6  UNL     1      26.005  11.791  -0.885  1.00  0.00     0.210 HD
ENDBRANCH   8  30
BRANCH   1  32
HETATM   32  O2  UNL     1      28.462   9.155   3.289  1.00  0.00    -0.337 OA
BRANCH  32  33
HETATM   33  C4  UNL     1      28.983   8.158   4.068  1.00  0.00     0.199 C 
BRANCH  33  34
HETATM   34  C3  UNL     1      29.742   8.661   5.268  1.00  0.00     0.193 C 
BRANCH  34  35
HETATM   35  O1  UNL     1      30.535   9.759   4.895  1.00  0.00    -0.389 OA
BRANCH  35  36
HETATM   36  C2  UNL     1      31.831   9.333   4.653  1.00  0.00     0.163 C 
HETATM   37  C1  UNL     1      32.500   9.092   5.987  1.00  0.00     0.033 C 
ENDBRANCH  35  36
ENDBRANCH  34  35
ENDBRANCH  33  34
ENDBRANCH  32  33
ENDBRANCH   1  32
TORSDOF 12
ENDMDL
MODEL 5
REMARK VINA RESULT: -7.917861722      1.569      2.249
REMARK  12 active torsions:
REMARK  status: ('A' for Active; 'I' for Inactive)
REMARK    1  A    between atoms: C2_2  and  O1_3 
REMARK    2  A    between atoms: O1_3  and  C3_4 
REMARK    3  A    between atoms: C3_4  and  C4_5 
REMARK    4  A    between atoms: C4_5  and  O2_6 
REMARK    5  A    between atoms: O2_6  and  C5_7 
REMARK    6  A    between atoms: C8_11  and  O4_12 
REMARK    7  A    between atoms: C9_14  and  S1_15 
REMARK    8  A    between atoms: S1_15  and  C10_16 
REMARK    9  A    between atoms: C10_16  and  C11_17 
REMARK   10  A    between atoms: C14_20  and  C15_21 
REMARK   11  A    between atoms: C17_29  and  O5_30 
REMARK   12  A    between atoms: C18_32  and  O6_33 
ROOT
HETATM    1  C5  UNL     1      31.187  15.662   0.183  1.00  0.00     0.418 C 
HETATM    2  O3  UNL     1      29.845  16.046   0.419  1.00  0.00    -0.308 OA
HETATM    3  C6  UNL     1      28.923  15.012   0.639  1.00  0.00     0.149 C 
HETATM    4  C7  UNL     1      29.083  13.957  -0.154  1.00  0.00     0.008 C 
HETATM    5  C8  UNL     1      28.142  12.822   0.019  1.00  0.00     0.168 C 
HETATM    6  C9  UNL     1      28.607  11.592  -0.727  1.00  0.00     0.111 C 
HETATM    7  C17 UNL     1      29.195  12.006  -2.093  1.00  0.00     0.166 C 
HETATM    8  C18 UNL     1      30.492  12.713  -1.795  1.00  0.00     0.187 C 
HETATM    9  C19 UNL     1      30.180  14.020  -1.129  1.00  0.00     0.118 C 
HETATM   10  C20 UNL     1      29.898  15.045  -2.227  1.00  0.00     0.054 C 
HETATM   11  O7  UNL     1      31.316  14.440  -0.457  1.00  0.00    -0.320 OA
ENDROOT
BRANCH   6  12
HETATM   12  S1  UNL     1      29.865  10.677   0.114  1.00  0.00    -0.158 SA
BRANCH  12  13
HETATM   13  C10 UNL     1      29.412   9.137   0.863  1.00  0.00     0.080 C 
BRANCH  13  14
HETATM   14  C11 UNL     1      29.510   9.089   2.363  1.00  0.00     0.021 C 
HETATM   15  C12 UNL     1      30.566   8.045   2.714  1.00  0.00     0.009 C 
HETATM   16  C13 UNL     1      30.462   7.783   4.188  1.00  0.00     0.039 C 
HETATM   17  C14 UNL     1      30.235   9.036   4.986  1.00  0.00     0.223 C 
HETATM   18  N2  UNL     1      30.581  10.232   4.251  1.00  0.00    -0.066 N 
HETATM   19  C16 UNL     1      29.813  10.378   3.024  1.00  0.00     0.238 C 
ATOM     20  H22 UNL     1      30.493  11.061   4.838  1.00  0.00     0.278 HD
ATOM     21  H21 UNL     1      31.583  10.269   4.061  1.00  0.00     0.278 HD
BRANCH  17  22
HETATM   22  C15 UNL     1      31.127   8.985   6.177  1.00  0.00     0.085 C 
HETATM   23  N1  UNL     1      32.280   9.539   6.127  1.00  0.00    -0.409 N 
ATOM     24  H12 UNL     1      32.570  10.008   5.269  1.00  0.00     0.155 HD
ATOM     25  H11 UNL     1      32.891   9.504   6.942  1.00  0.00     0.155 HD
ENDBRANCH  17  22
ENDBRANCH  13  14
ENDBRANCH  12  13
ENDBRANCH   6  12
BRANCH   5  26
HETATM   26  O4  UNL     1      27.895  12.551   1.354  1.00  0.00    -0.390 OA
ATOM     27  H4  UNL     1      28.552  11.976   1.729  1.00  0.00     0.210 HD
ENDBRANCH   5  26
BRANCH   7  28
HETATM   28  O5  UNL     1      28.298  12.778  -2.797  1.00  0.00    -0.392 OA
ATOM     29  H5  UNL     1      28.154  12.420  -3.665  1.00  0.00     0.210 HD
ENDBRANCH   7  28
BRANCH   8  30
HETATM   30  O6  UNL     1      31.176  12.923  -3.003  1.00  0.00    -0.390 OA
ATOM     31  H6  UNL     1      32.093  13.079  -2.810  1.00  0.00     0.210 HD
ENDBRANCH   8  30
BRANCH   1  32
HETATM   32  O2  UNL     1      31.900  15.594   1.351  1.00  0.00    -0.337 OA
BRANCH  32  33
HETATM   33  C4  UNL     1      33.263  15.549   1.235  1.00  0.00     0.199 C 
BRANCH  33  34
HETATM   34  C3  UNL     1      33.866  14.242   1.679  1.00  0.00     0.193 C 
BRANCH  34  35
HETATM   35  O1  UNL     1      32.925  13.525   2.437  1.00  0.00    -0.389 OA
BRANCH  35  36
HETATM   36  C2  UNL     1      32.632  12.329   1.801  1.00  0.00     0.163 C 
HETATM   37  C1  UNL     1      33.485  11.248   2.425  1.00  0.00     0.033 C 
ENDBRANCH  35  36
ENDBRANCH  34  35
ENDBRANCH  33  34
ENDBRANCH  32  33
ENDBRANCH   1  32
TORSDOF 12
ENDMDL
