MODEL 1
REMARK VINA RESULT: -7.467365116      0.000      0.000
REMARK  19 active torsions:
REMARK  status: ('A' for Active; 'I' for Inactive)
REMARK    1  A    between atoms: O1_2  and  C2_3 
REMARK    2  A    between atoms: C2_3  and  C3_5 
REMARK    3  A    between atoms: C3_5  and  C4_6 
REMARK    4  A    between atoms: C4_6  and  C5_7 
REMARK    5  A    between atoms: C6_8  and  C7_9 
REMARK    6  A    between atoms: C8_14  and  N2_15 
REMARK    7  A    between atoms: C9_16  and  C10_17 
REMARK    8  A    between atoms: C11_18  and  C12_19 
REMARK    9  A    between atoms: C15_22  and  O6_23 
REMARK   10  A    between atoms: O6_23  and  S1_24 
REMARK   11  A    between atoms: S1_24  and  N3_25 
REMARK   12  A    between atoms: C18_36  and  C19_37 
REMARK   13  A    between atoms: C19_37  and  N6_38 
REMARK   14  A    between atoms: C19_37  and  C20_42 
REMARK   15  A    between atoms: C20_42  and  O9_43 
REMARK   16  A    between atoms: N7_45  and  N8_47 
REMARK   17  A    between atoms: S2_51  and  N9_53 
REMARK   18  A    between atoms: N9_53  and  N10_55 
REMARK   19  A    between atoms: N10_55  and  N11_57 
ROOT
HETATM    1  N2  UNL     1      94.716  17.108   4.410  1.00  0.00    -0.285 N 
HETATM    2  C9  UNL     1      94.702  18.234   5.328  1.00  0.00     0.125 A 
HETATM    3  N4  UNL     1      93.540  18.198   5.944  1.00  0.00    -0.284 N 
ATOM      4  H4  UNL     1      93.244  18.871   6.652  1.00  0.00     0.188 HD
HETATM    5  N5  UNL     1      92.831  17.216   5.542  1.00  0.00    -0.285 N 
ATOM      6  H5  UNL     1      91.894  16.977   5.866  1.00  0.00     0.188 HD
HETATM    7  C18 UNL     1      93.529  16.568   4.632  1.00  0.00     0.141 A 
ENDROOT
BRANCH   1   8
HETATM    8  C8  UNL     1      95.859  16.865   3.687  1.00  0.00     0.299 C 
HETATM    9  O5  UNL     1      95.424  16.592   2.253  1.00  0.00    -0.246 OA
HETATM   10  N1  UNL     1      96.767  16.339   1.964  1.00  0.00    -0.226 N 
HETATM   11  C6  UNL     1      97.865  16.616   1.134  1.00  0.00     0.150 C 
HETATM   12  C21 UNL     1      96.671  15.700   3.302  1.00  0.00     0.269 C 
HETATM   13  C5  UNL     1      99.051  16.322   1.500  1.00  0.00     0.035 C 
HETATM   14  C22 UNL     1      99.269  15.232   2.516  1.00  0.00     0.171 C 
HETATM   15  S2  UNL     1      98.307  15.620   3.932  1.00  0.00     0.072 S 
HETATM   16  O10 UNL     1      98.820  16.879   4.532  1.00  0.00    -0.246 OA
BRANCH  11  17
HETATM   17  C7  UNL     1      97.542  17.574   0.079  1.00  0.00     0.230 C 
HETATM   18  O3  UNL     1      97.288  18.728   0.337  1.00  0.00    -0.643 OA
HETATM   19  O4  UNL     1      97.525  17.198  -1.245  1.00  0.00    -0.643 OA
ENDBRANCH  11  17
BRANCH  13  20
HETATM   20  C4  UNL     1     100.346  16.928   0.962  1.00  0.00    -0.111 C 
BRANCH  20  21
HETATM   21  C3  UNL     1     101.281  17.364   0.580  1.00  0.00     0.138 C 
BRANCH  21  22
HETATM   22  C2  UNL     1     101.753  18.488  -0.276  1.00  0.00     0.290 C 
HETATM   23  O2  UNL     1     103.022  18.677  -0.429  1.00  0.00    -0.260 OA
BRANCH  22  24
HETATM   24  O1  UNL     1     100.993  19.378  -0.935  1.00  0.00    -0.323 OA
HETATM   25  C1  UNL     1     100.288  20.490  -0.458  1.00  0.00     0.213 C 
ENDBRANCH  22  24
ENDBRANCH  21  22
ENDBRANCH  20  21
ENDBRANCH  13  20
BRANCH  15  26
HETATM   26  N9  UNL     1      98.465  14.512   5.063  1.00  0.00    -0.243 N 
ATOM     27  H9  UNL     1      98.994  13.648   4.944  1.00  0.00     0.198 HD
BRANCH  26  28
HETATM   28  N10 UNL     1      97.801  14.860   6.230  1.00  0.00    -0.242 N 
ATOM     29  H10 UNL     1      96.880  14.470   6.432  1.00  0.00     0.208 HD
BRANCH  28  30
HETATM   30  N11 UNL     1      98.401  15.748   7.126  1.00  0.00    -0.330 N 
ATOM     31 2H11 UNL     1      99.415  15.731   7.241  1.00  0.00     0.178 HD
ATOM     32 1H11 UNL     1      97.821  16.400   7.653  1.00  0.00     0.178 HD
ENDBRANCH  28  30
ENDBRANCH  26  28
ENDBRANCH  15  26
ENDBRANCH   1   8
BRANCH   2  33
HETATM   33  C10 UNL     1      95.729  19.219   5.290  1.00  0.00     0.051 C 
HETATM   34  C11 UNL     1      95.884  20.385   5.751  1.00  0.00     0.015 C 
BRANCH  34  35
HETATM   35  C12 UNL     1      94.985  21.166   6.568  1.00  0.00    -0.036 A 
HETATM   36  C13 UNL     1      95.288  21.262   7.964  1.00  0.00     0.014 A 
HETATM   37  C14 UNL     1      94.425  21.815   8.848  1.00  0.00     0.039 A 
HETATM   38  C15 UNL     1      93.164  22.331   8.416  1.00  0.00     0.091 A 
HETATM   39  C16 UNL     1      92.862  22.256   7.114  1.00  0.00     0.039 A 
HETATM   40  C17 UNL     1      93.792  21.670   6.225  1.00  0.00     0.014 A 
BRANCH  38  41
HETATM   41  O6  UNL     1      92.383  22.858   9.465  1.00  0.00    -0.217 OA
BRANCH  41  42
HETATM   42  S1  UNL     1      91.566  21.645  10.383  1.00  0.00     0.360 S 
HETATM   43  O7  UNL     1      92.533  20.946  11.296  1.00  0.00    -0.176 OA
HETATM   44  O8  UNL     1      90.974  20.652   9.469  1.00  0.00    -0.176 OA
BRANCH  42  45
HETATM   45  N3  UNL     1      90.312  22.397  11.339  1.00  0.00    -0.305 N 
ATOM     46  H32 UNL     1      90.109  23.397  11.346  1.00  0.00     0.171 HD
ATOM     47  H31 UNL     1      89.826  21.680  11.878  1.00  0.00     0.171 HD
ENDBRANCH  42  45
ENDBRANCH  41  42
ENDBRANCH  38  41
ENDBRANCH  34  35
ENDBRANCH   2  33
BRANCH   7  48
HETATM   48  C19 UNL     1      92.936  15.346   3.942  1.00  0.00     0.327 C 
BRANCH  48  49
HETATM   49  N6  UNL     1      92.010  14.766   4.914  1.00  0.00    -0.061 N 
ATOM     50  H63 UNL     1      92.378  14.736   5.866  1.00  0.00     0.275 HD
ATOM     51  H62 UNL     1      91.204  15.358   5.118  1.00  0.00     0.275 HD
ATOM     52  H61 UNL     1      91.764  13.851   4.539  1.00  0.00     0.275 HD
ENDBRANCH  48  49
BRANCH  48  53
HETATM   53  C20 UNL     1      92.142  15.948   2.841  1.00  0.00     0.168 C 
HETATM   54  N7  UNL     1      92.335  16.426   1.615  1.00  0.00    -0.288 N 
ATOM     55  H7  UNL     1      93.258  16.396   1.183  1.00  0.00     0.188 HD
BRANCH  53  56
HETATM   56  O9  UNL     1      90.828  16.006   3.283  1.00  0.00    -0.346 OA
ATOM     57  H9  UNL     1      90.295  15.606   2.606  1.00  0.00     0.219 HD
ENDBRANCH  53  56
BRANCH  54  58
HETATM   58  N8  UNL     1      91.187  17.000   0.894  1.00  0.00    -0.343 N 
ATOM     59  H82 UNL     1      90.543  17.623   1.382  1.00  0.00     0.176 HD
ATOM     60  H81 UNL     1      91.059  16.760  -0.089  1.00  0.00     0.176 HD
ENDBRANCH  54  58
ENDBRANCH  48  53
ENDBRANCH   7  48
TORSDOF 19
ENDMDL
MODEL 2
REMARK VINA RESULT: -7.436782917      4.749      9.036
REMARK  19 active torsions:
REMARK  status: ('A' for Active; 'I' for Inactive)
REMARK    1  A    between atoms: O1_2  and  C2_3 
REMARK    2  A    between atoms: C2_3  and  C3_5 
REMARK    3  A    between atoms: C3_5  and  C4_6 
REMARK    4  A    between atoms: C4_6  and  C5_7 
REMARK    5  A    between atoms: C6_8  and  C7_9 
REMARK    6  A    between atoms: C8_14  and  N2_15 
REMARK    7  A    between atoms: C9_16  and  C10_17 
REMARK    8  A    between atoms: C11_18  and  C12_19 
REMARK    9  A    between atoms: C15_22  and  O6_23 
REMARK   10  A    between atoms: O6_23  and  S1_24 
REMARK   11  A    between atoms: S1_24  and  N3_25 
REMARK   12  A    between atoms: C18_36  and  C19_37 
REMARK   13  A    between atoms: C19_37  and  N6_38 
REMARK   14  A    between atoms: C19_37  and  C20_42 
REMARK   15  A    between atoms: C20_42  and  O9_43 
REMARK   16  A    between atoms: N7_45  and  N8_47 
REMARK   17  A    between atoms: S2_51  and  N9_53 
REMARK   18  A    between atoms: N9_53  and  N10_55 
REMARK   19  A    between atoms: N10_55  and  N11_57 
ROOT
HETATM    1  N2  UNL     1      96.655  15.148   5.103  1.00  0.00    -0.285 N 
HETATM    2  C9  UNL     1      97.709  14.703   5.999  1.00  0.00     0.125 A 
HETATM    3  N4  UNL     1      98.306  13.695   5.401  1.00  0.00    -0.284 N 
ATOM      4  H4  UNL     1      99.091  13.176   5.795  1.00  0.00     0.188 HD
HETATM    5  N5  UNL     1      97.777  13.449   4.266  1.00  0.00    -0.285 N 
ATOM      6  H5  UNL     1      98.061  12.717   3.615  1.00  0.00     0.188 HD
HETATM    7  C18 UNL     1      96.797  14.312   4.088  1.00  0.00     0.141 A 
ENDROOT
BRANCH   1   8
HETATM    8  C8  UNL     1      95.916  16.251   5.456  1.00  0.00     0.299 C 
HETATM    9  O5  UNL     1      94.844  16.424   4.388  1.00  0.00    -0.246 OA
HETATM   10  N1  UNL     1      94.457  17.586   5.059  1.00  0.00    -0.226 N 
HETATM   11  C6  UNL     1      93.407  18.319   5.635  1.00  0.00     0.150 C 
HETATM   12  C21 UNL     1      95.933  17.698   5.190  1.00  0.00     0.269 C 
HETATM   13  C5  UNL     1      93.645  19.271   6.449  1.00  0.00     0.035 C 
HETATM   14  C22 UNL     1      94.975  19.977   6.403  1.00  0.00     0.171 C 
HETATM   15  S2  UNL     1      96.231  18.761   6.553  1.00  0.00     0.072 S 
HETATM   16  O10 UNL     1      96.126  18.123   7.892  1.00  0.00    -0.246 OA
BRANCH  11  17
HETATM   17  C7  UNL     1      92.118  17.640   5.515  1.00  0.00     0.230 C 
HETATM   18  O3  UNL     1      91.404  17.477   6.477  1.00  0.00    -0.643 OA
HETATM   19  O4  UNL     1      91.670  17.170   4.301  1.00  0.00    -0.643 OA
ENDBRANCH  11  17
BRANCH  13  20
HETATM   20  C4  UNL     1      92.676  19.854   7.476  1.00  0.00    -0.111 C 
BRANCH  20  21
HETATM   21  C3  UNL     1      91.973  20.275   8.211  1.00  0.00     0.138 C 
BRANCH  21  22
HETATM   22  C2  UNL     1      91.359  19.942   9.526  1.00  0.00     0.290 C 
HETATM   23  O2  UNL     1      90.859  18.766   9.713  1.00  0.00    -0.260 OA
BRANCH  22  24
HETATM   24  O1  UNL     1      91.243  20.751  10.593  1.00  0.00    -0.323 OA
HETATM   25  C1  UNL     1      91.305  22.148  10.677  1.00  0.00     0.213 C 
ENDBRANCH  22  24
ENDBRANCH  21  22
ENDBRANCH  20  21
ENDBRANCH  13  20
BRANCH  15  26
HETATM   26  N9  UNL     1      97.680  19.414   6.505  1.00  0.00    -0.243 N 
ATOM     27  H9  UNL     1      98.495  18.962   6.090  1.00  0.00     0.198 HD
BRANCH  26  28
HETATM   28  N10 UNL     1      97.706  20.671   7.092  1.00  0.00    -0.242 N 
ATOM     29  H10 UNL     1      97.740  21.508   6.511  1.00  0.00     0.208 HD
BRANCH  28  30
HETATM   30  N11 UNL     1      97.685  20.781   8.484  1.00  0.00    -0.330 N 
ATOM     31 2H11 UNL     1      97.275  20.029   9.038  1.00  0.00     0.178 HD
ATOM     32 1H11 UNL     1      98.081  21.609   8.929  1.00  0.00     0.178 HD
ENDBRANCH  28  30
ENDBRANCH  26  28
ENDBRANCH  15  26
ENDBRANCH   1   8
BRANCH   2  33
HETATM   33  C10 UNL     1      97.804  15.214   7.324  1.00  0.00     0.051 C 
HETATM   34  C11 UNL     1      97.543  14.784   8.483  1.00  0.00     0.015 C 
BRANCH  34  35
HETATM   35  C12 UNL     1      97.033  13.493   8.878  1.00  0.00    -0.036 A 
HETATM   36  C13 UNL     1      97.857  12.700   9.740  1.00  0.00     0.014 A 
HETATM   37  C14 UNL     1      97.561  11.410  10.028  1.00  0.00     0.039 A 
HETATM   38  C15 UNL     1      96.400  10.785   9.477  1.00  0.00     0.091 A 
HETATM   39  C16 UNL     1      95.611  11.509   8.673  1.00  0.00     0.039 A 
HETATM   40  C17 UNL     1      95.959  12.852   8.398  1.00  0.00     0.014 A 
BRANCH  38  41
HETATM   41  O6  UNL     1      96.248   9.439   9.868  1.00  0.00    -0.217 OA
BRANCH  41  42
HETATM   42  S1  UNL     1      95.908   8.380   8.547  1.00  0.00     0.360 S 
HETATM   43  O7  UNL     1      95.672   9.174   7.293  1.00  0.00    -0.176 OA
HETATM   44  O8  UNL     1      94.697   7.595   8.845  1.00  0.00    -0.176 OA
BRANCH  42  45
HETATM   45  N3  UNL     1      97.267   7.310   8.304  1.00  0.00    -0.305 N 
ATOM     46  H32 UNL     1      98.164   7.396   8.782  1.00  0.00     0.171 HD
ATOM     47  H31 UNL     1      97.016   6.599   7.617  1.00  0.00     0.171 HD
ENDBRANCH  42  45
ENDBRANCH  41  42
ENDBRANCH  38  41
ENDBRANCH  34  35
ENDBRANCH   2  33
BRANCH   7  48
HETATM   48  C19 UNL     1      95.954  14.258   2.821  1.00  0.00     0.327 C 
BRANCH  48  49
HETATM   49  N6  UNL     1      96.764  13.525   1.849  1.00  0.00    -0.061 N 
ATOM     50  H63 UNL     1      96.839  13.989   0.943  1.00  0.00     0.275 HD
ATOM     51  H62 UNL     1      97.761  13.522   2.064  1.00  0.00     0.275 HD
ATOM     52  H61 UNL     1      96.350  12.595   1.801  1.00  0.00     0.275 HD
ENDBRANCH  48  49
BRANCH  48  53
HETATM   53  C20 UNL     1      94.814  13.396   3.225  1.00  0.00     0.168 C 
HETATM   54  N7  UNL     1      93.563  13.530   3.657  1.00  0.00    -0.288 N 
ATOM     55  H7  UNL     1      93.139  14.453   3.749  1.00  0.00     0.188 HD
BRANCH  53  56
HETATM   56  O9  UNL     1      95.244  12.084   3.099  1.00  0.00    -0.346 OA
ATOM     57  H9  UNL     1      94.688  11.560   3.664  1.00  0.00     0.219 HD
ENDBRANCH  53  56
BRANCH  54  58
HETATM   58  N8  UNL     1      92.803  12.317   4.000  1.00  0.00    -0.343 N 
ATOM     59  H82 UNL     1      93.288  11.425   4.091  1.00  0.00     0.176 HD
ATOM     60  H81 UNL     1      91.795  12.396   4.140  1.00  0.00     0.176 HD
ENDBRANCH  54  58
ENDBRANCH  48  53
ENDBRANCH   7  48
TORSDOF 19
ENDMDL
MODEL 3
REMARK VINA RESULT: -7.423024723      4.882      9.414
REMARK  19 active torsions:
REMARK  status: ('A' for Active; 'I' for Inactive)
REMARK    1  A    between atoms: O1_2  and  C2_3 
REMARK    2  A    between atoms: C2_3  and  C3_5 
REMARK    3  A    between atoms: C3_5  and  C4_6 
REMARK    4  A    between atoms: C4_6  and  C5_7 
REMARK    5  A    between atoms: C6_8  and  C7_9 
REMARK    6  A    between atoms: C8_14  and  N2_15 
REMARK    7  A    between atoms: C9_16  and  C10_17 
REMARK    8  A    between atoms: C11_18  and  C12_19 
REMARK    9  A    between atoms: C15_22  and  O6_23 
REMARK   10  A    between atoms: O6_23  and  S1_24 
REMARK   11  A    between atoms: S1_24  and  N3_25 
REMARK   12  A    between atoms: C18_36  and  C19_37 
REMARK   13  A    between atoms: C19_37  and  N6_38 
REMARK   14  A    between atoms: C19_37  and  C20_42 
REMARK   15  A    between atoms: C20_42  and  O9_43 
REMARK   16  A    between atoms: N7_45  and  N8_47 
REMARK   17  A    between atoms: S2_51  and  N9_53 
REMARK   18  A    between atoms: N9_53  and  N10_55 
REMARK   19  A    between atoms: N10_55  and  N11_57 
ROOT
HETATM    1  N2  UNL     1      96.850  15.274   5.222  1.00  0.00    -0.285 N 
HETATM    2  C9  UNL     1      97.609  14.631   6.281  1.00  0.00     0.125 A 
HETATM    3  N4  UNL     1      98.325  13.689   5.708  1.00  0.00    -0.284 N 
ATOM      4  H4  UNL     1      98.962  13.067   6.207  1.00  0.00     0.188 HD
HETATM    5  N5  UNL     1      98.123  13.653   4.449  1.00  0.00    -0.285 N 
ATOM      6  H5  UNL     1      98.560  13.012   3.786  1.00  0.00     0.188 HD
HETATM    7  C18 UNL     1      97.248  14.594   4.159  1.00  0.00     0.141 A 
ENDROOT
BRANCH   1   8
HETATM    8  C8  UNL     1      96.065  16.356   5.540  1.00  0.00     0.299 C 
HETATM    9  O5  UNL     1      94.999  16.461   4.457  1.00  0.00    -0.246 OA
HETATM   10  N1  UNL     1      94.561  17.624   5.095  1.00  0.00    -0.226 N 
HETATM   11  C6  UNL     1      93.477  18.329   5.643  1.00  0.00     0.150 C 
HETATM   12  C21 UNL     1      96.030  17.796   5.238  1.00  0.00     0.269 C 
HETATM   13  C5  UNL     1      93.670  19.310   6.436  1.00  0.00     0.035 C 
HETATM   14  C22 UNL     1      94.972  20.065   6.385  1.00  0.00     0.171 C 
HETATM   15  S2  UNL     1      96.273  18.902   6.577  1.00  0.00     0.072 S 
HETATM   16  O10 UNL     1      96.179  18.294   7.930  1.00  0.00    -0.246 OA
BRANCH  11  17
HETATM   17  C7  UNL     1      92.217  17.599   5.528  1.00  0.00     0.230 C 
HETATM   18  O3  UNL     1      91.484  17.462   6.479  1.00  0.00    -0.643 OA
HETATM   19  O4  UNL     1      91.818  17.049   4.330  1.00  0.00    -0.643 OA
ENDBRANCH  11  17
BRANCH  13  20
HETATM   20  C4  UNL     1      92.669  19.880   7.438  1.00  0.00    -0.111 C 
BRANCH  20  21
HETATM   21  C3  UNL     1      91.946  20.284   8.162  1.00  0.00     0.138 C 
BRANCH  21  22
HETATM   22  C2  UNL     1      91.280  19.915   9.443  1.00  0.00     0.290 C 
HETATM   23  O2  UNL     1      90.595  18.822   9.508  1.00  0.00    -0.260 OA
BRANCH  22  24
HETATM   24  O1  UNL     1      91.294  20.611  10.592  1.00  0.00    -0.323 OA
HETATM   25  C1  UNL     1      91.322  21.994  10.809  1.00  0.00     0.213 C 
ENDBRANCH  22  24
ENDBRANCH  21  22
ENDBRANCH  20  21
ENDBRANCH  13  20
BRANCH  15  26
HETATM   26  N9  UNL     1      97.697  19.610   6.526  1.00  0.00    -0.243 N 
ATOM     27  H9  UNL     1      98.517  19.207   6.073  1.00  0.00     0.198 HD
BRANCH  26  28
HETATM   28  N10 UNL     1      97.692  20.839   7.169  1.00  0.00    -0.242 N 
ATOM     29  H10 UNL     1      97.705  21.702   6.627  1.00  0.00     0.208 HD
BRANCH  28  30
HETATM   30  N11 UNL     1      97.668  20.885   8.566  1.00  0.00    -0.330 N 
ATOM     31 2H11 UNL     1      96.859  20.515   9.064  1.00  0.00     0.178 HD
ATOM     32 1H11 UNL     1      98.458  21.288   9.069  1.00  0.00     0.178 HD
ENDBRANCH  28  30
ENDBRANCH  26  28
ENDBRANCH  15  26
ENDBRANCH   1   8
BRANCH   2  33
HETATM   33  C10 UNL     1      97.348  14.928   7.649  1.00  0.00     0.051 C 
HETATM   34  C11 UNL     1      97.026  14.266   8.675  1.00  0.00     0.015 C 
BRANCH  34  35
HETATM   35  C12 UNL     1      96.819  12.843   8.810  1.00  0.00    -0.036 A 
HETATM   36  C13 UNL     1      95.643  12.294   8.205  1.00  0.00     0.014 A 
HETATM   37  C14 UNL     1      95.259  11.014   8.418  1.00  0.00     0.039 A 
HETATM   38  C15 UNL     1      96.023  10.151   9.263  1.00  0.00     0.091 A 
HETATM   39  C16 UNL     1      97.129  10.641   9.835  1.00  0.00     0.039 A 
HETATM   40  C17 UNL     1      97.493  11.985   9.587  1.00  0.00     0.014 A 
BRANCH  38  41
HETATM   41  O6  UNL     1      95.477   8.856   9.387  1.00  0.00    -0.217 OA
BRANCH  41  42
HETATM   42  S1  UNL     1      95.886   7.815   8.071  1.00  0.00     0.360 S 
HETATM   43  O7  UNL     1      95.771   8.555   6.769  1.00  0.00    -0.176 OA
HETATM   44  O8  UNL     1      94.962   6.667   8.047  1.00  0.00    -0.176 OA
BRANCH  42  45
HETATM   45  N3  UNL     1      97.528   7.255   8.272  1.00  0.00    -0.305 N 
ATOM     46  H32 UNL     1      97.981   7.098   9.173  1.00  0.00     0.171 HD
ATOM     47  H31 UNL     1      97.949   7.115   7.354  1.00  0.00     0.171 HD
ENDBRANCH  42  45
ENDBRANCH  41  42
ENDBRANCH  38  41
ENDBRANCH  34  35
ENDBRANCH   2  33
BRANCH   7  48
HETATM   48  C19 UNL     1      96.783  14.788   2.722  1.00  0.00     0.327 C 
BRANCH  48  49
HETATM   49  N6  UNL     1      97.167  16.155   2.373  1.00  0.00    -0.061 N 
ATOM     50  H63 UNL     1      96.491  16.860   2.669  1.00  0.00     0.275 HD
ATOM     51  H62 UNL     1      97.955  16.511   2.914  1.00  0.00     0.275 HD
ATOM     52  H61 UNL     1      97.332  16.140   1.367  1.00  0.00     0.275 HD
ENDBRANCH  48  49
BRANCH  48  53
HETATM   53  C20 UNL     1      97.654  13.850   1.969  1.00  0.00     0.168 C 
HETATM   54  N7  UNL     1      98.797  13.874   1.289  1.00  0.00    -0.288 N 
ATOM     55  H7  UNL     1      99.345  14.732   1.221  1.00  0.00     0.188 HD
BRANCH  53  56
HETATM   56  O9  UNL     1      97.040  12.607   2.022  1.00  0.00    -0.346 OA
ATOM     57  H9  UNL     1      96.880  12.344   1.124  1.00  0.00     0.219 HD
ENDBRANCH  53  56
BRANCH  54  58
HETATM   58  N8  UNL     1      99.255  12.637   0.637  1.00  0.00    -0.343 N 
ATOM     59  H82 UNL     1     100.012  12.095   1.055  1.00  0.00     0.176 HD
ATOM     60  H81 UNL     1      98.801  12.344  -0.229  1.00  0.00     0.176 HD
ENDBRANCH  54  58
ENDBRANCH  48  53
ENDBRANCH   7  48
TORSDOF 19
ENDMDL
MODEL 4
REMARK VINA RESULT: -7.420492999      3.649      6.072
REMARK  19 active torsions:
REMARK  status: ('A' for Active; 'I' for Inactive)
REMARK    1  A    between atoms: O1_2  and  C2_3 
REMARK    2  A    between atoms: C2_3  and  C3_5 
REMARK    3  A    between atoms: C3_5  and  C4_6 
REMARK    4  A    between atoms: C4_6  and  C5_7 
REMARK    5  A    between atoms: C6_8  and  C7_9 
REMARK    6  A    between atoms: C8_14  and  N2_15 
REMARK    7  A    between atoms: C9_16  and  C10_17 
REMARK    8  A    between atoms: C11_18  and  C12_19 
REMARK    9  A    between atoms: C15_22  and  O6_23 
REMARK   10  A    between atoms: O6_23  and  S1_24 
REMARK   11  A    between atoms: S1_24  and  N3_25 
REMARK   12  A    between atoms: C18_36  and  C19_37 
REMARK   13  A    between atoms: C19_37  and  N6_38 
REMARK   14  A    between atoms: C19_37  and  C20_42 
REMARK   15  A    between atoms: C20_42  and  O9_43 
REMARK   16  A    between atoms: N7_45  and  N8_47 
REMARK   17  A    between atoms: S2_51  and  N9_53 
REMARK   18  A    between atoms: N9_53  and  N10_55 
REMARK   19  A    between atoms: N10_55  and  N11_57 
ROOT
HETATM    1  N2  UNL     1      94.910  18.824   4.344  1.00  0.00    -0.285 N 
HETATM    2  C9  UNL     1      94.615  19.891   5.285  1.00  0.00     0.125 A 
HETATM    3  N4  UNL     1      94.213  20.918   4.569  1.00  0.00    -0.284 N 
ATOM      4  H4  UNL     1      93.934  21.819   4.961  1.00  0.00     0.188 HD
HETATM    5  N5  UNL     1      94.215  20.646   3.323  1.00  0.00    -0.285 N 
ATOM      6  H5  UNL     1      93.946  21.276   2.567  1.00  0.00     0.188 HD
HETATM    7  C18 UNL     1      94.628  19.402   3.188  1.00  0.00     0.141 A 
ENDROOT
BRANCH   1   8
HETATM    8  C8  UNL     1      95.283  17.597   4.839  1.00  0.00     0.299 C 
HETATM    9  O5  UNL     1      96.738  17.721   5.274  1.00  0.00    -0.246 OA
HETATM   10  N1  UNL     1      96.692  16.359   5.581  1.00  0.00    -0.226 N 
HETATM   11  C6  UNL     1      96.928  15.359   6.538  1.00  0.00     0.150 C 
HETATM   12  C21 UNL     1      95.896  16.362   4.325  1.00  0.00     0.269 C 
HETATM   13  C5  UNL     1      96.402  14.204   6.419  1.00  0.00     0.035 C 
HETATM   14  C22 UNL     1      95.988  13.709   5.058  1.00  0.00     0.171 C 
HETATM   15  S2  UNL     1      94.915  14.908   4.356  1.00  0.00     0.072 S 
HETATM   16  O10 UNL     1      93.681  14.990   5.179  1.00  0.00    -0.246 OA
BRANCH  11  17
HETATM   17  C7  UNL     1      97.467  15.895   7.786  1.00  0.00     0.230 C 
HETATM   18  O3  UNL     1      97.011  16.898   8.285  1.00  0.00    -0.643 OA
HETATM   19  O4  UNL     1      98.506  15.272   8.441  1.00  0.00    -0.643 OA
ENDBRANCH  11  17
BRANCH  13  20
HETATM   20  C4  UNL     1      96.184  13.184   7.535  1.00  0.00    -0.111 C 
BRANCH  20  21
HETATM   21  C3  UNL     1      96.029  12.445   8.336  1.00  0.00     0.138 C 
BRANCH  21  22
HETATM   22  C2  UNL     1      96.754  11.836   9.486  1.00  0.00     0.290 C 
HETATM   23  O2  UNL     1      96.546  10.595   9.779  1.00  0.00    -0.260 OA
BRANCH  22  24
HETATM   24  O1  UNL     1      97.631  12.442  10.303  1.00  0.00    -0.323 OA
HETATM   25  C1  UNL     1      99.019  12.291  10.409  1.00  0.00     0.213 C 
ENDBRANCH  22  24
ENDBRANCH  21  22
ENDBRANCH  20  21
ENDBRANCH  13  20
BRANCH  15  26
HETATM   26  N9  UNL     1      94.432  14.475   2.904  1.00  0.00    -0.243 N 
ATOM     27  H9  UNL     1      93.497  14.655   2.538  1.00  0.00     0.198 HD
BRANCH  26  28
HETATM   28  N10 UNL     1      95.430  13.823   2.194  1.00  0.00    -0.242 N 
ATOM     29  H10 UNL     1      95.621  12.836   2.365  1.00  0.00     0.208 HD
BRANCH  28  30
HETATM   30  N11 UNL     1      96.172  14.529   1.244  1.00  0.00    -0.330 N 
ATOM     31 2H11 UNL     1      97.169  14.338   1.147  1.00  0.00     0.178 HD
ATOM     32 1H11 UNL     1      95.709  15.225   0.659  1.00  0.00     0.178 HD
ENDBRANCH  28  30
ENDBRANCH  26  28
ENDBRANCH  15  26
ENDBRANCH   1   8
BRANCH   2  33
HETATM   33  C10 UNL     1      94.959  19.767   6.661  1.00  0.00     0.051 C 
HETATM   34  C11 UNL     1      94.472  20.163   7.757  1.00  0.00     0.015 C 
BRANCH  34  35
HETATM   35  C12 UNL     1      93.273  20.933   7.992  1.00  0.00    -0.036 A 
HETATM   36  C13 UNL     1      92.148  20.239   8.542  1.00  0.00     0.014 A 
HETATM   37  C14 UNL     1      90.927  20.814   8.637  1.00  0.00     0.039 A 
HETATM   38  C15 UNL     1      90.712  22.154   8.187  1.00  0.00     0.091 A 
HETATM   39  C16 UNL     1      91.750  22.824   7.674  1.00  0.00     0.039 A 
HETATM   40  C17 UNL     1      93.009  22.184   7.592  1.00  0.00     0.014 A 
BRANCH  38  41
HETATM   41  O6  UNL     1      89.381  22.593   8.346  1.00  0.00    -0.217 OA
BRANCH  41  42
HETATM   42  S1  UNL     1      89.234  23.954   9.399  1.00  0.00     0.360 S 
HETATM   43  O7  UNL     1      90.301  23.909  10.457  1.00  0.00    -0.176 OA
HETATM   44  O8  UNL     1      87.915  23.928  10.056  1.00  0.00    -0.176 OA
BRANCH  42  45
HETATM   45  N3  UNL     1      89.408  25.422   8.468  1.00  0.00    -0.305 N 
ATOM     46  H32 UNL     1      88.761  25.725   7.740  1.00  0.00     0.171 HD
ATOM     47  H31 UNL     1      90.248  25.914   8.771  1.00  0.00     0.171 HD
ENDBRANCH  42  45
ENDBRANCH  41  42
ENDBRANCH  38  41
ENDBRANCH  34  35
ENDBRANCH   2  33
BRANCH   7  48
HETATM   48  C19 UNL     1      94.759  18.786   1.801  1.00  0.00     0.327 C 
BRANCH  48  49
HETATM   49  N6  UNL     1      96.038  18.077   1.813  1.00  0.00    -0.061 N 
ATOM     50  H63 UNL     1      96.322  17.757   2.739  1.00  0.00     0.275 HD
ATOM     51  H62 UNL     1      96.001  17.156   1.375  1.00  0.00     0.275 HD
ATOM     52  H61 UNL     1      96.703  18.714   1.376  1.00  0.00     0.275 HD
ENDBRANCH  48  49
BRANCH  48  53
HETATM   53  C20 UNL     1      93.666  17.781   1.787  1.00  0.00     0.168 C 
HETATM   54  N7  UNL     1      92.407  17.667   2.198  1.00  0.00    -0.288 N 
ATOM     55  H7  UNL     1      91.931  18.452   2.644  1.00  0.00     0.188 HD
BRANCH  53  56
HETATM   56  O9  UNL     1      94.170  16.655   1.152  1.00  0.00    -0.346 OA
ATOM     57  H9  UNL     1      94.428  16.049   1.837  1.00  0.00     0.219 HD
ENDBRANCH  53  56
BRANCH  54  58
HETATM   58  N8  UNL     1      91.713  16.385   1.997  1.00  0.00    -0.343 N 
ATOM     59  H82 UNL     1      92.241  15.513   2.031  1.00  0.00     0.176 HD
ATOM     60  H81 UNL     1      90.707  16.397   1.825  1.00  0.00     0.176 HD
ENDBRANCH  54  58
ENDBRANCH  48  53
ENDBRANCH   7  48
TORSDOF 19
ENDMDL
MODEL 5
REMARK VINA RESULT: -7.328586863      3.702      6.269
REMARK  19 active torsions:
REMARK  status: ('A' for Active; 'I' for Inactive)
REMARK    1  A    between atoms: O1_2  and  C2_3 
REMARK    2  A    between atoms: C2_3  and  C3_5 
REMARK    3  A    between atoms: C3_5  and  C4_6 
REMARK    4  A    between atoms: C4_6  and  C5_7 
REMARK    5  A    between atoms: C6_8  and  C7_9 
REMARK    6  A    between atoms: C8_14  and  N2_15 
REMARK    7  A    between atoms: C9_16  and  C10_17 
REMARK    8  A    between atoms: C11_18  and  C12_19 
REMARK    9  A    between atoms: C15_22  and  O6_23 
REMARK   10  A    between atoms: O6_23  and  S1_24 
REMARK   11  A    between atoms: S1_24  and  N3_25 
REMARK   12  A    between atoms: C18_36  and  C19_37 
REMARK   13  A    between atoms: C19_37  and  N6_38 
REMARK   14  A    between atoms: C19_37  and  C20_42 
REMARK   15  A    between atoms: C20_42  and  O9_43 
REMARK   16  A    between atoms: N7_45  and  N8_47 
REMARK   17  A    between atoms: S2_51  and  N9_53 
REMARK   18  A    between atoms: N9_53  and  N10_55 
REMARK   19  A    between atoms: N10_55  and  N11_57 
ROOT
HETATM    1  N2  UNL     1      94.618  18.044   4.148  1.00  0.00    -0.285 N 
HETATM    2  C9  UNL     1      94.524  19.264   4.931  1.00  0.00     0.125 A 
HETATM    3  N4  UNL     1      93.998  20.175   4.141  1.00  0.00    -0.284 N 
ATOM      4  H4  UNL     1      93.811  21.139   4.419  1.00  0.00     0.188 HD
HETATM    5  N5  UNL     1      93.753  19.700   2.983  1.00  0.00    -0.285 N 
ATOM      6  H5  UNL     1      93.346  20.207   2.197  1.00  0.00     0.188 HD
HETATM    7  C18 UNL     1      94.119  18.434   2.986  1.00  0.00     0.141 A 
ENDROOT
BRANCH   1   8
HETATM    8  C8  UNL     1      95.069  16.902   4.764  1.00  0.00     0.299 C 
HETATM    9  O5  UNL     1      96.528  17.144   5.127  1.00  0.00    -0.246 OA
HETATM   10  N1  UNL     1      96.563  15.826   5.588  1.00  0.00    -0.226 N 
HETATM   11  C6  UNL     1      96.881  14.955   6.642  1.00  0.00     0.150 C 
HETATM   12  C21 UNL     1      95.729  15.647   4.370  1.00  0.00     0.269 C 
HETATM   13  C5  UNL     1      96.412  13.769   6.674  1.00  0.00     0.035 C 
HETATM   14  C22 UNL     1      95.982  13.103   5.394  1.00  0.00     0.171 C 
HETATM   15  S2  UNL     1      94.827  14.160   4.601  1.00  0.00     0.072 S 
HETATM   16  O10 UNL     1      93.616  14.277   5.456  1.00  0.00    -0.246 OA
BRANCH  11  17
HETATM   17  C7  UNL     1      97.430  15.655   7.801  1.00  0.00     0.230 C 
HETATM   18  O3  UNL     1      96.920  16.669   8.219  1.00  0.00    -0.643 OA
HETATM   19  O4  UNL     1      98.541  15.181   8.461  1.00  0.00    -0.643 OA
ENDBRANCH  11  17
BRANCH  13  20
HETATM   20  C4  UNL     1      96.283  12.875   7.906  1.00  0.00    -0.111 C 
BRANCH  20  21
HETATM   21  C3  UNL     1      96.184  12.234   8.795  1.00  0.00     0.138 C 
BRANCH  21  22
HETATM   22  C2  UNL     1      97.021  11.402   9.704  1.00  0.00     0.290 C 
HETATM   23  O2  UNL     1      96.964  10.115   9.616  1.00  0.00    -0.260 OA
BRANCH  22  24
HETATM   24  O1  UNL     1      97.862  11.840  10.656  1.00  0.00    -0.323 OA
HETATM   25  C1  UNL     1      99.160  12.353  10.546  1.00  0.00     0.213 C 
ENDBRANCH  22  24
ENDBRANCH  21  22
ENDBRANCH  20  21
ENDBRANCH  13  20
BRANCH  15  26
HETATM   26  N9  UNL     1      94.321  13.540   3.227  1.00  0.00    -0.243 N 
ATOM     27  H9  UNL     1      94.942  13.199   2.493  1.00  0.00     0.198 HD
BRANCH  26  28
HETATM   28  N10 UNL     1      92.936  13.519   3.142  1.00  0.00    -0.242 N 
ATOM     29  H10 UNL     1      92.427  12.646   3.281  1.00  0.00     0.208 HD
BRANCH  28  30
HETATM   30  N11 UNL     1      92.245  14.701   2.866  1.00  0.00    -0.330 N 
ATOM     31 2H11 UNL     1      92.317  15.485   3.514  1.00  0.00     0.178 HD
ATOM     32 1H11 UNL     1      91.678  14.766   2.020  1.00  0.00     0.178 HD
ENDBRANCH  28  30
ENDBRANCH  26  28
ENDBRANCH  15  26
ENDBRANCH   1   8
BRANCH   2  33
HETATM   33  C10 UNL     1      95.131  19.355   6.216  1.00  0.00     0.051 C 
HETATM   34  C11 UNL     1      94.850  19.911   7.314  1.00  0.00     0.015 C 
BRANCH  34  35
HETATM   35  C12 UNL     1      93.691  20.699   7.662  1.00  0.00    -0.036 A 
HETATM   36  C13 UNL     1      92.642  20.036   8.378  1.00  0.00     0.014 A 
HETATM   37  C14 UNL     1      91.442  20.624   8.598  1.00  0.00     0.039 A 
HETATM   38  C15 UNL     1      91.176  21.945   8.121  1.00  0.00     0.091 A 
HETATM   39  C16 UNL     1      92.144  22.585   7.454  1.00  0.00     0.039 A 
HETATM   40  C17 UNL     1      93.381  21.933   7.245  1.00  0.00     0.014 A 
BRANCH  38  41
HETATM   41  O6  UNL     1      89.876  22.400   8.425  1.00  0.00    -0.217 OA
BRANCH  41  42
HETATM   42  S1  UNL     1      89.863  23.799   9.438  1.00  0.00     0.360 S 
HETATM   43  O7  UNL     1      90.211  25.022   8.638  1.00  0.00    -0.176 OA
HETATM   44  O8  UNL     1      90.859  23.637  10.512  1.00  0.00    -0.176 OA
BRANCH  42  45
HETATM   45  N3  UNL     1      88.269  23.994  10.126  1.00  0.00    -0.305 N 
ATOM     46  H32 UNL     1      87.781  23.281  10.668  1.00  0.00     0.171 HD
ATOM     47  H31 UNL     1      87.918  24.924   9.899  1.00  0.00     0.171 HD
ENDBRANCH  42  45
ENDBRANCH  41  42
ENDBRANCH  38  41
ENDBRANCH  34  35
ENDBRANCH   2  33
BRANCH   7  48
HETATM   48  C19 UNL     1      93.969  17.592   1.725  1.00  0.00     0.327 C 
BRANCH  48  49
HETATM   49  N6  UNL     1      92.899  18.231   0.960  1.00  0.00    -0.061 N 
ATOM     50  H63 UNL     1      92.544  19.088   1.386  1.00  0.00     0.275 HD
ATOM     51  H62 UNL     1      93.214  18.654   0.087  1.00  0.00     0.275 HD
ATOM     52  H61 UNL     1      92.189  17.509   0.835  1.00  0.00     0.275 HD
ENDBRANCH  48  49
BRANCH  48  53
HETATM   53  C20 UNL     1      95.254  17.830   1.021  1.00  0.00     0.168 C 
HETATM   54  N7  UNL     1      96.491  18.228   1.304  1.00  0.00    -0.288 N 
ATOM     55  H7  UNL     1      96.766  18.430   2.265  1.00  0.00     0.188 HD
BRANCH  53  56
HETATM   56  O9  UNL     1      95.033  17.540  -0.318  1.00  0.00    -0.346 OA
ATOM     57  H9  UNL     1      94.091  17.489  -0.433  1.00  0.00     0.219 HD
ENDBRANCH  53  56
BRANCH  54  58
HETATM   58  N8  UNL     1      97.455  18.370   0.201  1.00  0.00    -0.343 N 
ATOM     59  H82 UNL     1      98.108  19.154   0.197  1.00  0.00     0.176 HD
ATOM     60  H81 UNL     1      97.451  17.673  -0.544  1.00  0.00     0.176 HD
ENDBRANCH  54  58
ENDBRANCH  48  53
ENDBRANCH   7  48
TORSDOF 19
ENDMDL
