MODEL 1
REMARK VINA RESULT: -6.697805761      0.000      0.000
REMARK  10 active torsions:
REMARK  status: ('A' for Active; 'I' for Inactive)
REMARK    1  A    between atoms: C11_11  and  C12_12 
REMARK       I    between atoms: C12_12  and  N1_14 
REMARK    2  A    between atoms: N1_14  and  C13_16 
REMARK    3  A    between atoms: C13_16  and  C14_17 
REMARK    4  A    between atoms: C14_17  and  C15_18 
REMARK    5  A    between atoms: C15_18  and  C16_19 
REMARK    6  A    between atoms: C16_19  and  C17_20 
REMARK       I    between atoms: C17_20  and  N2_22 
REMARK    7  A    between atoms: N2_22  and  C18_24 
REMARK    8  A    between atoms: C18_24  and  C19_25 
REMARK    9  A    between atoms: C19_25  and  C20_26 
REMARK   10  A    between atoms: C20_26  and  N3_27 
ROOT
HETATM    1  C12 UNL     1       2.112  12.896   7.235  1.00  0.00     0.222 C 
HETATM    2  O1  UNL     1       1.898  13.615   6.245  1.00  0.00    -0.273 OA
HETATM    3  N1  UNL     1       3.144  13.093   8.177  1.00  0.00    -0.361 N 
ATOM      4  H1  UNL     1       3.243  12.452   8.964  1.00  0.00     0.162 HD
ENDROOT
BRANCH   3   5
HETATM    5  C13 UNL     1       4.058  14.194   8.031  1.00  0.00     0.122 C 
BRANCH   5   6
HETATM    6  C14 UNL     1       5.416  13.800   8.513  1.00  0.00     0.020 C 
BRANCH   6   7
HETATM    7  C15 UNL     1       5.374  13.399   9.968  1.00  0.00     0.011 C 
BRANCH   7   8
HETATM    8  C16 UNL     1       6.629  12.685  10.377  1.00  0.00     0.103 C 
BRANCH   8   9
HETATM    9  C17 UNL     1       6.420  12.065  11.693  1.00  0.00     0.217 C 
HETATM   10  O2  UNL     1       7.190  11.184  12.109  1.00  0.00    -0.274 OA
HETATM   11  N2  UNL     1       5.326  12.477  12.497  1.00  0.00    -0.361 N 
ATOM     12  H2  UNL     1       4.701  13.202  12.145  1.00  0.00     0.162 HD
BRANCH  11  13
HETATM   13  C18 UNL     1       5.067  11.905  13.799  1.00  0.00     0.124 C 
BRANCH  13  14
HETATM   14  C19 UNL     1       3.672  12.261  14.227  1.00  0.00     0.050 C 
BRANCH  14  15
HETATM   15  C20 UNL     1       3.707  12.834  15.598  1.00  0.00     0.273 C 
BRANCH  15  16
HETATM   16  N3  UNL     1       4.858  13.688  15.830  1.00  0.00     0.080 N 
HETATM   17  C21 UNL     1       5.247  13.509  17.222  1.00  0.00     0.309 C 
HETATM   18  C22 UNL     1       4.421  15.058  15.637  1.00  0.00     0.309 C 
ENDBRANCH  15  16
ENDBRANCH  14  15
ENDBRANCH  13  14
ENDBRANCH  11  13
ENDBRANCH   8   9
ENDBRANCH   7   8
ENDBRANCH   6   7
ENDBRANCH   5   6
ENDBRANCH   3   5
BRANCH   1  19
HETATM   19  C11 UNL     1       1.212  11.732   7.453  1.00  0.00     0.085 C 
HETATM   20  C7  UNL     1       0.143  11.649   6.418  1.00  0.00     0.004 C 
HETATM   21  C6  UNL     1      -1.195  11.117   6.670  1.00  0.00     0.046 C 
HETATM   22  C8  UNL     1       0.728  10.501   5.637  1.00  0.00     0.047 C 
HETATM   23  C4  UNL     1      -1.480   9.701   6.761  1.00  0.00     0.093 C 
HETATM   24  C3  UNL     1      -0.876   8.597   6.003  1.00  0.00     0.048 C 
HETATM   25  C5  UNL     1      -2.986   9.492   6.813  1.00  0.00     0.049 C 
HETATM   26  O4  UNL     1      -1.020   9.343   8.073  1.00  0.00    -0.229 OA
HETATM   27  C2  UNL     1       0.624   8.354   6.370  1.00  0.00     0.022 C 
HETATM   28  C1  UNL     1       0.807   7.181   7.265  1.00  0.00     0.013 C 
HETATM   29  C9  UNL     1       0.919   9.625   6.868  1.00  0.00     0.101 C 
HETATM   30  C10 UNL     1       2.054  10.406   7.331  1.00  0.00     0.056 C 
HETATM   31  O3  UNL     1       0.152   9.808   7.996  1.00  0.00    -0.228 OA
ENDBRANCH   1  19
TORSDOF 10
ENDMDL
MODEL 2
REMARK VINA RESULT: -6.448314514      2.130      2.681
REMARK  10 active torsions:
REMARK  status: ('A' for Active; 'I' for Inactive)
REMARK    1  A    between atoms: C11_11  and  C12_12 
REMARK       I    between atoms: C12_12  and  N1_14 
REMARK    2  A    between atoms: N1_14  and  C13_16 
REMARK    3  A    between atoms: C13_16  and  C14_17 
REMARK    4  A    between atoms: C14_17  and  C15_18 
REMARK    5  A    between atoms: C15_18  and  C16_19 
REMARK    6  A    between atoms: C16_19  and  C17_20 
REMARK       I    between atoms: C17_20  and  N2_22 
REMARK    7  A    between atoms: N2_22  and  C18_24 
REMARK    8  A    between atoms: C18_24  and  C19_25 
REMARK    9  A    between atoms: C19_25  and  C20_26 
REMARK   10  A    between atoms: C20_26  and  N3_27 
ROOT
HETATM    1  C12 UNL     1       1.941  13.032   7.237  1.00  0.00     0.222 C 
HETATM    2  O1  UNL     1       1.733  13.686   6.202  1.00  0.00    -0.273 OA
HETATM    3  N1  UNL     1       2.901  13.349   8.222  1.00  0.00    -0.361 N 
ATOM      4  H1  UNL     1       3.001  12.754   9.044  1.00  0.00     0.162 HD
ENDROOT
BRANCH   3   5
HETATM    5  C13 UNL     1       3.738  14.508   8.071  1.00  0.00     0.122 C 
BRANCH   5   6
HETATM    6  C14 UNL     1       5.177  14.111   8.128  1.00  0.00     0.020 C 
BRANCH   6   7
HETATM    7  C15 UNL     1       5.447  13.245   9.335  1.00  0.00     0.011 C 
BRANCH   7   8
HETATM    8  C16 UNL     1       6.172  14.006  10.406  1.00  0.00     0.103 C 
BRANCH   8   9
HETATM    9  C17 UNL     1       6.909  13.058  11.253  1.00  0.00     0.217 C 
HETATM   10  O2  UNL     1       7.406  12.028  10.769  1.00  0.00    -0.274 OA
HETATM   11  N2  UNL     1       7.054  13.322  12.640  1.00  0.00    -0.361 N 
ATOM     12  H2  UNL     1       6.643  14.172  13.025  1.00  0.00     0.162 HD
BRANCH  11  13
HETATM   13  C18 UNL     1       7.766  12.427  13.524  1.00  0.00     0.124 C 
BRANCH  13  14
HETATM   14  C19 UNL     1       8.656  13.231  14.428  1.00  0.00     0.050 C 
BRANCH  14  15
HETATM   15  C20 UNL     1      10.053  13.176  13.922  1.00  0.00     0.273 C 
BRANCH  15  16
HETATM   16  N3  UNL     1      10.584  14.481  13.572  1.00  0.00     0.080 N 
HETATM   17  C21 UNL     1       9.718  15.473  14.194  1.00  0.00     0.309 C 
HETATM   18  C22 UNL     1      10.486  14.610  12.130  1.00  0.00     0.309 C 
ENDBRANCH  15  16
ENDBRANCH  14  15
ENDBRANCH  13  14
ENDBRANCH  11  13
ENDBRANCH   8   9
ENDBRANCH   7   8
ENDBRANCH   6   7
ENDBRANCH   5   6
ENDBRANCH   3   5
BRANCH   1  19
HETATM   19  C11 UNL     1       1.118  11.814   7.464  1.00  0.00     0.085 C 
HETATM   20  C7  UNL     1       0.057  11.654   6.429  1.00  0.00     0.004 C 
HETATM   21  C6  UNL     1      -1.245  11.040   6.685  1.00  0.00     0.046 C 
HETATM   22  C8  UNL     1       0.716  10.539   5.659  1.00  0.00     0.047 C 
HETATM   23  C4  UNL     1      -1.438   9.609   6.788  1.00  0.00     0.093 C 
HETATM   24  C3  UNL     1      -0.764   8.539   6.039  1.00  0.00     0.048 C 
HETATM   25  C5  UNL     1      -2.928   9.304   6.841  1.00  0.00     0.049 C 
HETATM   26  O4  UNL     1      -0.958   9.292   8.103  1.00  0.00    -0.229 OA
HETATM   27  C2  UNL     1       0.749   8.396   6.409  1.00  0.00     0.022 C 
HETATM   28  C1  UNL     1       1.006   7.245   7.313  1.00  0.00     0.013 C 
HETATM   29  C9  UNL     1       0.961   9.688   6.896  1.00  0.00     0.101 C 
HETATM   30  C10 UNL     1       2.043  10.544   7.354  1.00  0.00     0.056 C 
HETATM   31  O3  UNL     1       0.182   9.830   8.023  1.00  0.00    -0.228 OA
ENDBRANCH   1  19
TORSDOF 10
ENDMDL
MODEL 3
REMARK VINA RESULT: -6.379789050      3.259     10.036
REMARK  10 active torsions:
REMARK  status: ('A' for Active; 'I' for Inactive)
REMARK    1  A    between atoms: C11_11  and  C12_12 
REMARK       I    between atoms: C12_12  and  N1_14 
REMARK    2  A    between atoms: N1_14  and  C13_16 
REMARK    3  A    between atoms: C13_16  and  C14_17 
REMARK    4  A    between atoms: C14_17  and  C15_18 
REMARK    5  A    between atoms: C15_18  and  C16_19 
REMARK    6  A    between atoms: C16_19  and  C17_20 
REMARK       I    between atoms: C17_20  and  N2_22 
REMARK    7  A    between atoms: N2_22  and  C18_24 
REMARK    8  A    between atoms: C18_24  and  C19_25 
REMARK    9  A    between atoms: C19_25  and  C20_26 
REMARK   10  A    between atoms: C20_26  and  N3_27 
ROOT
HETATM    1  C12 UNL     1       4.625  13.495   9.109  1.00  0.00     0.222 C 
HETATM    2  O1  UNL     1       5.472  13.189   8.254  1.00  0.00    -0.273 OA
HETATM    3  N1  UNL     1       3.233  13.566   8.886  1.00  0.00    -0.361 N 
ATOM      4  H1  UNL     1       2.609  13.823   9.652  1.00  0.00     0.162 HD
ENDROOT
BRANCH   3   5
HETATM    5  C13 UNL     1       2.691  13.277   7.587  1.00  0.00     0.122 C 
BRANCH   5   6
HETATM    6  C14 UNL     1       1.287  12.781   7.716  1.00  0.00     0.020 C 
BRANCH   6   7
HETATM    7  C15 UNL     1       1.202  11.314   7.370  1.00  0.00     0.011 C 
BRANCH   7   8
HETATM    8  C16 UNL     1      -0.220  10.837   7.349  1.00  0.00     0.103 C 
BRANCH   8   9
HETATM    9  C17 UNL     1      -0.234   9.369   7.418  1.00  0.00     0.217 C 
HETATM   10  O2  UNL     1      -0.390   8.786   8.502  1.00  0.00    -0.274 OA
HETATM   11  N2  UNL     1      -0.069   8.610   6.230  1.00  0.00    -0.361 N 
ATOM     12  H2  UNL     1       0.057   9.101   5.345  1.00  0.00     0.162 HD
BRANCH  11  13
HETATM   13  C18 UNL     1      -0.072   7.165   6.232  1.00  0.00     0.124 C 
BRANCH  13  14
HETATM   14  C19 UNL     1      -0.097   6.669   4.815  1.00  0.00     0.050 C 
BRANCH  14  15
HETATM   15  C20 UNL     1      -1.182   5.664   4.662  1.00  0.00     0.273 C 
BRANCH  15  16
HETATM   16  N3  UNL     1      -0.998   4.799   3.510  1.00  0.00     0.080 N 
HETATM   17  C21 UNL     1      -2.043   5.138   2.554  1.00  0.00     0.309 C 
HETATM   18  C22 UNL     1      -1.201   3.435   3.963  1.00  0.00     0.309 C 
ENDBRANCH  15  16
ENDBRANCH  14  15
ENDBRANCH  13  14
ENDBRANCH  11  13
ENDBRANCH   8   9
ENDBRANCH   7   8
ENDBRANCH   6   7
ENDBRANCH   5   6
ENDBRANCH   3   5
BRANCH   1  19
HETATM   19  C11 UNL     1       5.108  13.813  10.479  1.00  0.00     0.085 C 
HETATM   20  C7  UNL     1       5.050  12.629  11.383  1.00  0.00     0.004 C 
HETATM   21  C6  UNL     1       4.801  12.713  12.821  1.00  0.00     0.046 C 
HETATM   22  C8  UNL     1       6.527  12.334  11.398  1.00  0.00     0.047 C 
HETATM   23  C4  UNL     1       5.812  13.116  13.776  1.00  0.00     0.093 C 
HETATM   24  C3  UNL     1       7.253  12.835  13.755  1.00  0.00     0.048 C 
HETATM   25  C5  UNL     1       5.289  12.890  15.187  1.00  0.00     0.049 C 
HETATM   26  O4  UNL     1       5.866  14.544  13.637  1.00  0.00    -0.229 OA
HETATM   27  C2  UNL     1       8.002  13.575  12.599  1.00  0.00     0.022 C 
HETATM   28  C1  UNL     1       8.747  14.768  13.077  1.00  0.00     0.013 C 
HETATM   29  C9  UNL     1       6.915  13.765  11.743  1.00  0.00     0.101 C 
HETATM   30  C10 UNL     1       6.622  14.240  10.401  1.00  0.00     0.056 C 
HETATM   31  O3  UNL     1       6.034  14.605  12.386  1.00  0.00    -0.228 OA
ENDBRANCH   1  19
TORSDOF 10
ENDMDL
MODEL 4
REMARK VINA RESULT: -6.346658796      3.345     10.377
REMARK  10 active torsions:
REMARK  status: ('A' for Active; 'I' for Inactive)
REMARK    1  A    between atoms: C11_11  and  C12_12 
REMARK       I    between atoms: C12_12  and  N1_14 
REMARK    2  A    between atoms: N1_14  and  C13_16 
REMARK    3  A    between atoms: C13_16  and  C14_17 
REMARK    4  A    between atoms: C14_17  and  C15_18 
REMARK    5  A    between atoms: C15_18  and  C16_19 
REMARK    6  A    between atoms: C16_19  and  C17_20 
REMARK       I    between atoms: C17_20  and  N2_22 
REMARK    7  A    between atoms: N2_22  and  C18_24 
REMARK    8  A    between atoms: C18_24  and  C19_25 
REMARK    9  A    between atoms: C19_25  and  C20_26 
REMARK   10  A    between atoms: C20_26  and  N3_27 
ROOT
HETATM    1  C12 UNL     1       5.853  13.219  10.663  1.00  0.00     0.222 C 
HETATM    2  O1  UNL     1       5.170  12.316  11.174  1.00  0.00    -0.273 OA
HETATM    3  N1  UNL     1       5.466  14.005   9.557  1.00  0.00    -0.361 N 
ATOM      4  H1  UNL     1       6.093  14.730   9.205  1.00  0.00     0.162 HD
ENDROOT
BRANCH   3   5
HETATM    5  C13 UNL     1       4.193  13.791   8.924  1.00  0.00     0.122 C 
BRANCH   5   6
HETATM    6  C14 UNL     1       4.373  13.008   7.664  1.00  0.00     0.020 C 
BRANCH   6   7
HETATM    7  C15 UNL     1       3.061  12.414   7.211  1.00  0.00     0.011 C 
BRANCH   7   8
HETATM    8  C16 UNL     1       3.260  11.074   6.565  1.00  0.00     0.103 C 
BRANCH   8   9
HETATM    9  C17 UNL     1       2.149  10.190   6.943  1.00  0.00     0.217 C 
HETATM   10  O2  UNL     1       1.095  10.657   7.405  1.00  0.00    -0.274 OA
HETATM   11  N2  UNL     1       2.281   8.787   6.779  1.00  0.00    -0.361 N 
ATOM     12  H2  UNL     1       3.151   8.415   6.397  1.00  0.00     0.162 HD
BRANCH  11  13
HETATM   13  C18 UNL     1       1.225   7.866   7.133  1.00  0.00     0.124 C 
BRANCH  13  14
HETATM   14  C19 UNL     1       0.421   7.540   5.907  1.00  0.00     0.050 C 
BRANCH  14  15
HETATM   15  C20 UNL     1      -0.987   7.972   6.110  1.00  0.00     0.273 C 
BRANCH  15  16
HETATM   16  N3  UNL     1      -1.952   6.934   5.798  1.00  0.00     0.080 N 
HETATM   17  C21 UNL     1      -1.335   6.065   4.805  1.00  0.00     0.309 C 
HETATM   18  C22 UNL     1      -3.104   7.584   5.201  1.00  0.00     0.309 C 
ENDBRANCH  15  16
ENDBRANCH  14  15
ENDBRANCH  13  14
ENDBRANCH  11  13
ENDBRANCH   8   9
ENDBRANCH   7   8
ENDBRANCH   6   7
ENDBRANCH   5   6
ENDBRANCH   3   5
BRANCH   1  19
HETATM   19  C11 UNL     1       7.187  13.499  11.258  1.00  0.00     0.085 C 
HETATM   20  C7  UNL     1       7.327  14.923  11.674  1.00  0.00     0.004 C 
HETATM   21  C6  UNL     1       8.591  15.658  11.651  1.00  0.00     0.046 C 
HETATM   22  C8  UNL     1       7.192  14.698  13.158  1.00  0.00     0.047 C 
HETATM   23  C4  UNL     1       9.620  15.493  12.656  1.00  0.00     0.093 C 
HETATM   24  C3  UNL     1       9.461  15.250  14.096  1.00  0.00     0.048 C 
HETATM   25  C5  UNL     1      10.695  16.551  12.454  1.00  0.00     0.049 C 
HETATM   26  O4  UNL     1      10.257  14.258  12.294  1.00  0.00    -0.229 OA
HETATM   27  C2  UNL     1       8.876  13.835  14.414  1.00  0.00     0.022 C 
HETATM   28  C1  UNL     1       9.917  12.880  14.873  1.00  0.00     0.013 C 
HETATM   29  C9  UNL     1       8.244  13.598  13.192  1.00  0.00     0.101 C 
HETATM   30  C10 UNL     1       7.355  12.634  12.564  1.00  0.00     0.056 C 
HETATM   31  O3  UNL     1       9.229  13.526  12.233  1.00  0.00    -0.228 OA
ENDBRANCH   1  19
TORSDOF 10
ENDMDL
MODEL 5
REMARK VINA RESULT: -6.345069320      2.579      9.399
REMARK  10 active torsions:
REMARK  status: ('A' for Active; 'I' for Inactive)
REMARK    1  A    between atoms: C11_11  and  C12_12 
REMARK       I    between atoms: C12_12  and  N1_14 
REMARK    2  A    between atoms: N1_14  and  C13_16 
REMARK    3  A    between atoms: C13_16  and  C14_17 
REMARK    4  A    between atoms: C14_17  and  C15_18 
REMARK    5  A    between atoms: C15_18  and  C16_19 
REMARK    6  A    between atoms: C16_19  and  C17_20 
REMARK       I    between atoms: C17_20  and  N2_22 
REMARK    7  A    between atoms: N2_22  and  C18_24 
REMARK    8  A    between atoms: C18_24  and  C19_25 
REMARK    9  A    between atoms: C19_25  and  C20_26 
REMARK   10  A    between atoms: C20_26  and  N3_27 
ROOT
HETATM    1  C12 UNL     1       5.388  13.541   9.238  1.00  0.00     0.222 C 
HETATM    2  O1  UNL     1       5.946  14.555   8.789  1.00  0.00    -0.273 OA
HETATM    3  N1  UNL     1       4.275  12.898   8.654  1.00  0.00    -0.361 N 
ATOM      4  H1  UNL     1       3.882  12.065   9.092  1.00  0.00     0.162 HD
ENDROOT
BRANCH   3   5
HETATM    5  C13 UNL     1       3.693  13.412   7.444  1.00  0.00     0.122 C 
BRANCH   5   6
HETATM    6  C14 UNL     1       2.227  13.630   7.633  1.00  0.00     0.020 C 
BRANCH   6   7
HETATM    7  C15 UNL     1       1.433  12.843   6.619  1.00  0.00     0.011 C 
BRANCH   7   8
HETATM    8  C16 UNL     1       2.139  11.577   6.231  1.00  0.00     0.103 C 
BRANCH   8   9
HETATM    9  C17 UNL     1       1.390  10.429   6.761  1.00  0.00     0.217 C 
HETATM   10  O2  UNL     1       0.382  10.600   7.465  1.00  0.00    -0.274 OA
HETATM   11  N2  UNL     1       1.823   9.110   6.465  1.00  0.00    -0.361 N 
ATOM     12  H2  UNL     1       2.652   8.983   5.884  1.00  0.00     0.162 HD
BRANCH  11  13
HETATM   13  C18 UNL     1       1.130   7.942   6.957  1.00  0.00     0.124 C 
BRANCH  13  14
HETATM   14  C19 UNL     1       0.219   7.418   5.884  1.00  0.00     0.050 C 
BRANCH  14  15
HETATM   15  C20 UNL     1      -1.191   7.734   6.234  1.00  0.00     0.273 C 
BRANCH  15  16
HETATM   16  N3  UNL     1      -2.139   6.774   5.699  1.00  0.00     0.080 N 
HETATM   17  C21 UNL     1      -1.411   5.938   4.755  1.00  0.00     0.309 C 
HETATM   18  C22 UNL     1      -3.150   7.526   4.979  1.00  0.00     0.309 C 
ENDBRANCH  15  16
ENDBRANCH  14  15
ENDBRANCH  13  14
ENDBRANCH  11  13
ENDBRANCH   8   9
ENDBRANCH   7   8
ENDBRANCH   6   7
ENDBRANCH   5   6
ENDBRANCH   3   5
BRANCH   1  19
HETATM   19  C11 UNL     1       5.928  12.950  10.491  1.00  0.00     0.085 C 
HETATM   20  C7  UNL     1       6.759  13.922  11.256  1.00  0.00     0.004 C 
HETATM   21  C6  UNL     1       7.905  13.543  12.081  1.00  0.00     0.046 C 
HETATM   22  C8  UNL     1       5.753  14.215  12.339  1.00  0.00     0.047 C 
HETATM   23  C4  UNL     1       7.771  12.958  13.398  1.00  0.00     0.093 C 
HETATM   24  C3  UNL     1       6.764  13.245  14.429  1.00  0.00     0.048 C 
HETATM   25  C5  UNL     1       9.140  12.886  14.059  1.00  0.00     0.049 C 
HETATM   26  O4  UNL     1       7.428  11.590  13.132  1.00  0.00    -0.229 OA
HETATM   27  C2  UNL     1       5.331  12.762  14.031  1.00  0.00     0.022 C 
HETATM   28  C1  UNL     1       4.947  11.500  14.715  1.00  0.00     0.013 C 
HETATM   29  C9  UNL     1       5.500  12.747  12.645  1.00  0.00     0.101 C 
HETATM   30  C10 UNL     1       4.726  12.556  11.429  1.00  0.00     0.056 C 
HETATM   31  O3  UNL     1       6.446  11.787  12.362  1.00  0.00    -0.228 OA
ENDBRANCH   1  19
TORSDOF 10
ENDMDL
