MODEL 1
REMARK VINA RESULT: -9.039163279      0.000      0.000
REMARK  9 active torsions:
REMARK  status: ('A' for Active; 'I' for Inactive)
REMARK    1  A    between atoms: N1_2  and  C2_4 
REMARK    2  A    between atoms: C3_5  and  N2_6 
REMARK    3  A    between atoms: N3_8  and  O1_10 
REMARK    4  A    between atoms: O1_10  and  C4_11 
REMARK    5  A    between atoms: C4_11  and  C5_13 
REMARK    6  A    between atoms: C5_13  and  O3_15 
REMARK    7  A    between atoms: C9_22  and  N5_23 
REMARK    8  A    between atoms: C10_28  and  N7_29 
REMARK    9  A    between atoms: N9_35  and  N10_36 
ROOT
HETATM    1  C2  UNL     1      17.444  13.808   5.176  1.00  0.00     0.170 C 
HETATM    2  C3  UNL     1      17.856  14.152   6.428  1.00  0.00     0.171 C 
HETATM    3  N4  UNL     1      18.262  13.352   7.434  1.00  0.00    -0.304 N 
ATOM      4  H4  UNL     1      18.912  13.750   8.111  1.00  0.00     0.171 HD
HETATM    5  C7  UNL     1      17.881  12.060   7.625  1.00  0.00     0.265 C 
HETATM    6  O4  UNL     1      18.431  11.509   8.609  1.00  0.00    -0.267 OA
HETATM    7  C8  UNL     1      16.990  11.313   6.888  1.00  0.00     0.122 A 
HETATM    8  C9  UNL     1      16.669  10.140   7.533  1.00  0.00     0.134 A 
HETATM    9  N6  UNL     1      15.806   9.316   6.921  1.00  0.00    -0.176 N 
ATOM     10  H6  UNL     1      15.558   8.444   7.389  1.00  0.00     0.186 HD
HETATM   11  C10 UNL     1      15.248   9.574   5.726  1.00  0.00     0.679 A 
HETATM   12  N8  UNL     1      15.579  10.727   5.115  1.00  0.00    -0.174 N 
ATOM     13  H8  UNL     1      15.166  10.941   4.208  1.00  0.00     0.186 HD
HETATM   14  C11 UNL     1      16.437  11.606   5.663  1.00  0.00     0.163 A 
HETATM   15  N9  UNL     1      16.662  12.706   4.926  1.00  0.00    -0.225 N 
ENDROOT
BRANCH   2  16
HETATM   16  N2  UNL     1      17.849  15.562   6.693  1.00  0.00    -0.262 N 
HETATM   17  N3  UNL     1      18.351  15.934   7.812  1.00  0.00    -0.197 N 
ATOM     18  H3  UNL     1      18.726  15.235   8.455  1.00  0.00     0.216 HD
ATOM     19  H2  UNL     1      17.465  16.232   6.027  1.00  0.00     0.190 HD
BRANCH  17  20
HETATM   20  O1  UNL     1      18.389  17.268   8.156  1.00  0.00    -0.181 OA
BRANCH  20  21
HETATM   21  C4  UNL     1      19.522  18.006   7.904  1.00  0.00     0.310 C 
HETATM   22  O2  UNL     1      20.108  18.547   8.877  1.00  0.00    -0.260 OA
BRANCH  21  23
HETATM   23  C5  UNL     1      20.049  18.168   6.506  1.00  0.00     0.215 C 
HETATM   24  C6  UNL     1      19.047  18.853   5.637  1.00  0.00     0.050 C 
BRANCH  23  25
HETATM   25  O3  UNL     1      20.428  16.950   5.999  1.00  0.00    -0.386 OA
ATOM     26  H3  UNL     1      19.661  16.425   5.800  1.00  0.00     0.210 HD
ENDBRANCH  23  25
ENDBRANCH  21  23
ENDBRANCH  20  21
ENDBRANCH  17  20
ENDBRANCH   2  16
BRANCH   1  27
HETATM   27  N1  UNL     1      17.781  14.490   4.167  1.00  0.00    -0.376 N 
HETATM   28  C1  UNL     1      19.011  14.436   3.481  1.00  0.00     0.148 C 
ATOM     29  H1  UNL     1      17.089  15.150   3.812  1.00  0.00     0.160 HD
ENDBRANCH   1  27
BRANCH  15  30
HETATM   30  N10 UNL     1      15.985  12.710   3.711  1.00  0.00    -0.335 N 
ATOM     31 2H10 UNL     1      16.392  13.341   3.019  1.00  0.00     0.177 HD
ATOM     32 1H10 UNL     1      15.173  12.095   3.653  1.00  0.00     0.177 HD
ENDBRANCH  15  30
BRANCH   8  33
HETATM   33  N5  UNL     1      17.194   9.861   8.695  1.00  0.00    -0.384 N 
ATOM     34  H52 UNL     1      18.172  10.054   8.911  1.00  0.00     0.157 HD
ATOM     35  H51 UNL     1      16.627   9.434   9.428  1.00  0.00     0.157 HD
ENDBRANCH   8  33
BRANCH  11  36
HETATM   36  N7  UNL     1      14.409   8.730   5.175  1.00  0.00    -0.234 N 
ATOM     37  H72 UNL     1      14.107   7.889   5.666  1.00  0.00     0.174 HD
ATOM     38  H71 UNL     1      14.038   8.893   4.239  1.00  0.00     0.174 HD
ENDBRANCH  11  36
TORSDOF 9
ENDMDL
MODEL 2
REMARK VINA RESULT: -8.819441043      1.076      1.470
REMARK  9 active torsions:
REMARK  status: ('A' for Active; 'I' for Inactive)
REMARK    1  A    between atoms: N1_2  and  C2_4 
REMARK    2  A    between atoms: C3_5  and  N2_6 
REMARK    3  A    between atoms: N3_8  and  O1_10 
REMARK    4  A    between atoms: O1_10  and  C4_11 
REMARK    5  A    between atoms: C4_11  and  C5_13 
REMARK    6  A    between atoms: C5_13  and  O3_15 
REMARK    7  A    between atoms: C9_22  and  N5_23 
REMARK    8  A    between atoms: C10_28  and  N7_29 
REMARK    9  A    between atoms: N9_35  and  N10_36 
ROOT
HETATM    1  C2  UNL     1      17.438  13.805   5.133  1.00  0.00     0.170 C 
HETATM    2  C3  UNL     1      17.862  14.162   6.378  1.00  0.00     0.171 C 
HETATM    3  N4  UNL     1      18.274  13.371   7.389  1.00  0.00    -0.304 N 
ATOM      4  H4  UNL     1      18.931  13.774   8.057  1.00  0.00     0.171 HD
HETATM    5  C7  UNL     1      17.890  12.082   7.597  1.00  0.00     0.265 C 
HETATM    6  O4  UNL     1      18.447  11.540   8.583  1.00  0.00    -0.267 OA
HETATM    7  C8  UNL     1      16.991  11.330   6.876  1.00  0.00     0.122 A 
HETATM    8  C9  UNL     1      16.670  10.165   7.536  1.00  0.00     0.134 A 
HETATM    9  N6  UNL     1      15.799   9.338   6.941  1.00  0.00    -0.176 N 
ATOM     10  H6  UNL     1      15.553   8.472   7.421  1.00  0.00     0.186 HD
HETATM   11  C10 UNL     1      15.233   9.585   5.747  1.00  0.00     0.679 A 
HETATM   12  N8  UNL     1      15.563  10.731   5.122  1.00  0.00    -0.174 N 
ATOM     13  H8  UNL     1      15.142  10.936   4.216  1.00  0.00     0.186 HD
HETATM   14  C11 UNL     1      16.428  11.612   5.653  1.00  0.00     0.163 A 
HETATM   15  N9  UNL     1      16.650  12.703   4.902  1.00  0.00    -0.225 N 
ENDROOT
BRANCH   2  16
HETATM   16  N2  UNL     1      17.862  15.573   6.628  1.00  0.00    -0.262 N 
HETATM   17  N3  UNL     1      18.115  15.940   7.830  1.00  0.00    -0.197 N 
ATOM     18  H3  UNL     1      18.300  15.235   8.544  1.00  0.00     0.216 HD
ATOM     19  H2  UNL     1      17.672  16.250   5.889  1.00  0.00     0.190 HD
BRANCH  17  20
HETATM   20  O1  UNL     1      18.138  17.276   8.167  1.00  0.00    -0.181 OA
BRANCH  20  21
HETATM   21  C4  UNL     1      18.289  18.226   7.185  1.00  0.00     0.310 C 
HETATM   22  O2  UNL     1      19.218  18.078   6.350  1.00  0.00    -0.260 OA
BRANCH  21  23
HETATM   23  C5  UNL     1      17.371  19.414   7.105  1.00  0.00     0.215 C 
HETATM   24  C6  UNL     1      17.713  20.420   8.154  1.00  0.00     0.050 C 
BRANCH  23  25
HETATM   25  O3  UNL     1      16.062  19.007   7.185  1.00  0.00    -0.386 OA
ATOM     26  H3  UNL     1      15.955  18.164   6.760  1.00  0.00     0.210 HD
ENDBRANCH  23  25
ENDBRANCH  21  23
ENDBRANCH  20  21
ENDBRANCH  17  20
ENDBRANCH   2  16
BRANCH   1  27
HETATM   27  N1  UNL     1      17.769  14.475   4.114  1.00  0.00    -0.376 N 
HETATM   28  C1  UNL     1      19.001  14.424   3.431  1.00  0.00     0.148 C 
ATOM     29  H1  UNL     1      17.071  15.121   3.747  1.00  0.00     0.160 HD
ENDBRANCH   1  27
BRANCH  15  30
HETATM   30  N10 UNL     1      15.964  12.696   3.692  1.00  0.00    -0.335 N 
ATOM     31 2H10 UNL     1      15.874  13.620   3.268  1.00  0.00     0.177 HD
ATOM     32 1H10 UNL     1      15.632  11.785   3.376  1.00  0.00     0.177 HD
ENDBRANCH  15  30
BRANCH   8  33
HETATM   33  N5  UNL     1      17.204   9.897   8.697  1.00  0.00    -0.384 N 
ATOM     34  H52 UNL     1      16.796   9.219   9.341  1.00  0.00     0.157 HD
ATOM     35  H51 UNL     1      18.059  10.369   8.993  1.00  0.00     0.157 HD
ENDBRANCH   8  33
BRANCH  11  36
HETATM   36  N7  UNL     1      14.386   8.738   5.213  1.00  0.00    -0.234 N 
ATOM     37  H72 UNL     1      14.619   7.750   5.114  1.00  0.00     0.174 HD
ATOM     38  H71 UNL     1      13.473   9.047   4.881  1.00  0.00     0.174 HD
ENDBRANCH  11  36
TORSDOF 9
ENDMDL
MODEL 3
REMARK VINA RESULT: -8.635071788      1.042      1.132
REMARK  9 active torsions:
REMARK  status: ('A' for Active; 'I' for Inactive)
REMARK    1  A    between atoms: N1_2  and  C2_4 
REMARK    2  A    between atoms: C3_5  and  N2_6 
REMARK    3  A    between atoms: N3_8  and  O1_10 
REMARK    4  A    between atoms: O1_10  and  C4_11 
REMARK    5  A    between atoms: C4_11  and  C5_13 
REMARK    6  A    between atoms: C5_13  and  O3_15 
REMARK    7  A    between atoms: C9_22  and  N5_23 
REMARK    8  A    between atoms: C10_28  and  N7_29 
REMARK    9  A    between atoms: N9_35  and  N10_36 
ROOT
HETATM    1  C2  UNL     1      18.452  13.302   5.502  1.00  0.00     0.170 C 
HETATM    2  C3  UNL     1      18.921  13.460   6.771  1.00  0.00     0.171 C 
HETATM    3  N4  UNL     1      19.107  12.526   7.725  1.00  0.00    -0.304 N 
ATOM      4  H4  UNL     1      19.827  12.713   8.423  1.00  0.00     0.171 HD
HETATM    5  C7  UNL     1      18.420  11.358   7.838  1.00  0.00     0.265 C 
HETATM    6  O4  UNL     1      18.808  10.631   8.786  1.00  0.00    -0.267 OA
HETATM    7  C8  UNL     1      17.383  10.896   7.061  1.00  0.00     0.122 A 
HETATM    8  C9  UNL     1      16.776   9.801   7.635  1.00  0.00     0.134 A 
HETATM    9  N6  UNL     1      15.746   9.252   6.977  1.00  0.00    -0.176 N 
ATOM     10  H6  UNL     1      15.287   8.441   7.393  1.00  0.00     0.186 HD
HETATM   11  C10 UNL     1      15.282   9.709   5.802  1.00  0.00     0.679 A 
HETATM   12  N8  UNL     1      15.892  10.781   5.261  1.00  0.00    -0.174 N 
ATOM     13  H8  UNL     1      15.553  11.143   4.370  1.00  0.00     0.186 HD
HETATM   14  C11 UNL     1      16.932  11.388   5.858  1.00  0.00     0.163 A 
HETATM   15  N9  UNL     1      17.427  12.442   5.188  1.00  0.00    -0.225 N 
ENDROOT
BRANCH   2  16
HETATM   16  N2  UNL     1      19.255  14.810   7.121  1.00  0.00    -0.262 N 
HETATM   17  N3  UNL     1      20.474  15.027   7.454  1.00  0.00    -0.197 N 
ATOM     18  H3  UNL     1      21.141  14.255   7.459  1.00  0.00     0.216 HD
ATOM     19  H2  UNL     1      18.561  15.557   7.105  1.00  0.00     0.190 HD
BRANCH  17  20
HETATM   20  O1  UNL     1      20.891  16.293   7.806  1.00  0.00    -0.181 OA
BRANCH  20  21
HETATM   21  C4  UNL     1      20.085  17.375   7.546  1.00  0.00     0.310 C 
HETATM   22  O2  UNL     1      19.151  17.630   8.350  1.00  0.00    -0.260 OA
BRANCH  21  23
HETATM   23  C5  UNL     1      20.307  18.237   6.334  1.00  0.00     0.215 C 
HETATM   24  C6  UNL     1      19.006  18.707   5.772  1.00  0.00     0.050 C 
BRANCH  23  25
HETATM   25  O3  UNL     1      21.058  17.561   5.405  1.00  0.00    -0.386 OA
ATOM     26  H3  UNL     1      21.374  18.162   4.739  1.00  0.00     0.210 HD
ENDBRANCH  23  25
ENDBRANCH  21  23
ENDBRANCH  20  21
ENDBRANCH  17  20
ENDBRANCH   2  16
BRANCH   1  27
HETATM   27  N1  UNL     1      18.957  13.940   4.534  1.00  0.00    -0.376 N 
HETATM   28  C1  UNL     1      18.698  15.279   4.177  1.00  0.00     0.148 C 
ATOM     29  H1  UNL     1      19.622  13.433   3.951  1.00  0.00     0.160 HD
ENDBRANCH   1  27
BRANCH  15  30
HETATM   30  N10 UNL     1      16.786  12.683   3.977  1.00  0.00    -0.335 N 
ATOM     31 2H10 UNL     1      16.179  13.503   3.993  1.00  0.00     0.177 HD
ATOM     32 1H10 UNL     1      16.992  12.022   3.228  1.00  0.00     0.177 HD
ENDBRANCH  15  30
BRANCH   8  33
HETATM   33  N5  UNL     1      17.204   9.334   8.776  1.00  0.00    -0.384 N 
ATOM     34  H52 UNL     1      17.569   8.386   8.874  1.00  0.00     0.157 HD
ATOM     35  H51 UNL     1      17.183   9.917   9.613  1.00  0.00     0.157 HD
ENDBRANCH   8  33
BRANCH  11  36
HETATM   36  N7  UNL     1      14.268   9.130   5.203  1.00  0.00    -0.234 N 
ATOM     37  H72 UNL     1      13.942   8.208   5.491  1.00  0.00     0.174 HD
ATOM     38  H71 UNL     1      13.781   9.588   4.434  1.00  0.00     0.174 HD
ENDBRANCH  11  36
TORSDOF 9
ENDMDL
MODEL 4
REMARK VINA RESULT: -8.503931236      1.588      2.073
REMARK  9 active torsions:
REMARK  status: ('A' for Active; 'I' for Inactive)
REMARK    1  A    between atoms: N1_2  and  C2_4 
REMARK    2  A    between atoms: C3_5  and  N2_6 
REMARK    3  A    between atoms: N3_8  and  O1_10 
REMARK    4  A    between atoms: O1_10  and  C4_11 
REMARK    5  A    between atoms: C4_11  and  C5_13 
REMARK    6  A    between atoms: C5_13  and  O3_15 
REMARK    7  A    between atoms: C9_22  and  N5_23 
REMARK    8  A    between atoms: C10_28  and  N7_29 
REMARK    9  A    between atoms: N9_35  and  N10_36 
ROOT
HETATM    1  C2  UNL     1      18.298  14.388   5.316  1.00  0.00     0.170 C 
HETATM    2  C3  UNL     1      17.846  14.406   6.601  1.00  0.00     0.171 C 
HETATM    3  N4  UNL     1      17.528  13.368   7.399  1.00  0.00    -0.304 N 
ATOM      4  H4  UNL     1      17.621  13.509   8.405  1.00  0.00     0.171 HD
HETATM    5  C7  UNL     1      17.095  12.148   6.982  1.00  0.00     0.265 C 
HETATM    6  O4  UNL     1      16.907  11.329   7.915  1.00  0.00    -0.267 OA
HETATM    7  C8  UNL     1      16.847  11.722   5.697  1.00  0.00     0.122 A 
HETATM    8  C9  UNL     1      16.178  10.518   5.690  1.00  0.00     0.134 A 
HETATM    9  N6  UNL     1      15.872   9.989   4.497  1.00  0.00    -0.176 N 
ATOM     10  H6  UNL     1      15.376   9.098   4.478  1.00  0.00     0.186 HD
HETATM   11  C10 UNL     1      16.183  10.567   3.323  1.00  0.00     0.679 A 
HETATM   12  N8  UNL     1      16.836  11.743   3.357  1.00  0.00    -0.174 N 
ATOM     13  H8  UNL     1      17.079  12.197   2.477  1.00  0.00     0.186 HD
HETATM   14  C11 UNL     1      17.179  12.338   4.513  1.00  0.00     0.163 A 
HETATM   15  N9  UNL     1      17.827  13.506   4.373  1.00  0.00    -0.225 N 
ENDROOT
BRANCH   2  16
HETATM   16  N2  UNL     1      17.694  15.717   7.163  1.00  0.00    -0.262 N 
HETATM   17  N3  UNL     1      18.527  16.044   8.079  1.00  0.00    -0.197 N 
ATOM     18  H3  UNL     1      19.247  15.381   8.369  1.00  0.00     0.216 HD
ATOM     19  H2  UNL     1      16.962  16.354   6.849  1.00  0.00     0.190 HD
BRANCH  17  20
HETATM   20  O1  UNL     1      18.461  17.284   8.679  1.00  0.00    -0.181 OA
BRANCH  20  21
HETATM   21  C4  UNL     1      18.758  18.412   7.952  1.00  0.00     0.310 C 
HETATM   22  O2  UNL     1      19.964  18.757   7.854  1.00  0.00    -0.260 OA
BRANCH  21  23
HETATM   23  C5  UNL     1      17.675  19.217   7.289  1.00  0.00     0.215 C 
HETATM   24  C6  UNL     1      17.364  20.442   8.083  1.00  0.00     0.050 C 
BRANCH  23  25
HETATM   25  O3  UNL     1      16.565  18.437   7.083  1.00  0.00    -0.386 OA
ATOM     26  H3  UNL     1      15.922  18.912   6.569  1.00  0.00     0.210 HD
ENDBRANCH  23  25
ENDBRANCH  21  23
ENDBRANCH  20  21
ENDBRANCH  17  20
ENDBRANCH   2  16
BRANCH   1  27
HETATM   27  N1  UNL     1      19.198  15.186   4.929  1.00  0.00    -0.376 N 
HETATM   28  C1  UNL     1      19.023  16.522   4.511  1.00  0.00     0.148 C 
ATOM     29  H1  UNL     1      20.152  14.827   4.916  1.00  0.00     0.160 HD
ENDBRANCH   1  27
BRANCH  15  30
HETATM   30  N10 UNL     1      18.053  13.862   3.048  1.00  0.00    -0.335 N 
ATOM     31 2H10 UNL     1      18.366  14.827   2.932  1.00  0.00     0.177 HD
ATOM     32 1H10 UNL     1      17.880  13.132   2.357  1.00  0.00     0.177 HD
ENDBRANCH  15  30
BRANCH   8  33
HETATM   33  N5  UNL     1      15.863   9.932   6.813  1.00  0.00    -0.384 N 
ATOM     34  H52 UNL     1      15.110  10.270   7.411  1.00  0.00     0.157 HD
ATOM     35  H51 UNL     1      16.374   9.106   7.125  1.00  0.00     0.157 HD
ENDBRANCH   8  33
BRANCH  11  36
HETATM   36  N7  UNL     1      15.858  10.002   2.185  1.00  0.00    -0.234 N 
ATOM     37  H72 UNL     1      16.078   9.024   1.999  1.00  0.00     0.174 HD
ATOM     38  H71 UNL     1      15.376  10.528   1.456  1.00  0.00     0.174 HD
ENDBRANCH  11  36
TORSDOF 9
ENDMDL
MODEL 5
REMARK VINA RESULT: -8.474869806      2.518      4.187
REMARK  9 active torsions:
REMARK  status: ('A' for Active; 'I' for Inactive)
REMARK    1  A    between atoms: N1_2  and  C2_4 
REMARK    2  A    between atoms: C3_5  and  N2_6 
REMARK    3  A    between atoms: N3_8  and  O1_10 
REMARK    4  A    between atoms: O1_10  and  C4_11 
REMARK    5  A    between atoms: C4_11  and  C5_13 
REMARK    6  A    between atoms: C5_13  and  O3_15 
REMARK    7  A    between atoms: C9_22  and  N5_23 
REMARK    8  A    between atoms: C10_28  and  N7_29 
REMARK    9  A    between atoms: N9_35  and  N10_36 
ROOT
HETATM    1  C2  UNL     1      19.710  17.158   5.963  1.00  0.00     0.170 C 
HETATM    2  C3  UNL     1      19.416  17.094   7.291  1.00  0.00     0.171 C 
HETATM    3  N4  UNL     1      19.212  16.005   8.060  1.00  0.00    -0.304 N 
ATOM      4  H4  UNL     1      19.423  16.092   9.054  1.00  0.00     0.171 HD
HETATM    5  C7  UNL     1      18.750  14.802   7.626  1.00  0.00     0.265 C 
HETATM    6  O4  UNL     1      18.687  13.928   8.525  1.00  0.00    -0.267 OA
HETATM    7  C8  UNL     1      18.355  14.444   6.357  1.00  0.00     0.122 A 
HETATM    8  C9  UNL     1      17.709  13.228   6.359  1.00  0.00     0.134 A 
HETATM    9  N6  UNL     1      17.269  12.761   5.182  1.00  0.00    -0.176 N 
ATOM     10  H6  UNL     1      16.788  11.862   5.170  1.00  0.00     0.186 HD
HETATM   11  C10 UNL     1      17.427  13.411   4.016  1.00  0.00     0.679 A 
HETATM   12  N8  UNL     1      18.063  14.597   4.040  1.00  0.00    -0.174 N 
ATOM     13  H8  UNL     1      18.191  15.106   3.166  1.00  0.00     0.186 HD
HETATM   14  C11 UNL     1      18.533  15.133   5.180  1.00  0.00     0.163 A 
HETATM   15  N9  UNL     1      19.142  16.321   5.033  1.00  0.00    -0.225 N 
ENDROOT
BRANCH   2  16
HETATM   16  N2  UNL     1      19.313  18.367   7.943  1.00  0.00    -0.262 N 
HETATM   17  N3  UNL     1      18.177  18.955   7.869  1.00  0.00    -0.197 N 
ATOM     18  H3  UNL     1      17.410  18.511   7.364  1.00  0.00     0.216 HD
ATOM     19  H2  UNL     1      20.101  18.782   8.440  1.00  0.00     0.190 HD
BRANCH  17  20
HETATM   20  O1  UNL     1      17.981  20.183   8.465  1.00  0.00    -0.181 OA
BRANCH  20  21
HETATM   21  C4  UNL     1      19.021  20.799   9.120  1.00  0.00     0.310 C 
HETATM   22  O2  UNL     1      19.877  21.413   8.433  1.00  0.00    -0.260 OA
BRANCH  21  23
HETATM   23  C5  UNL     1      19.137  20.743  10.618  1.00  0.00     0.215 C 
HETATM   24  C6  UNL     1      18.724  22.041  11.230  1.00  0.00     0.050 C 
BRANCH  23  25
HETATM   25  O3  UNL     1      20.411  20.382  10.980  1.00  0.00    -0.386 OA
ATOM     26  H3  UNL     1      20.971  21.149  11.020  1.00  0.00     0.210 HD
ENDBRANCH  23  25
ENDBRANCH  21  23
ENDBRANCH  20  21
ENDBRANCH  17  20
ENDBRANCH   2  16
BRANCH   1  27
HETATM   27  N1  UNL     1      20.545  17.997   5.519  1.00  0.00    -0.376 N 
HETATM   28  C1  UNL     1      21.877  18.172   5.945  1.00  0.00     0.148 C 
ATOM     29  H1  UNL     1      20.220  18.612   4.773  1.00  0.00     0.160 HD
ENDBRANCH   1  27
BRANCH  15  30
HETATM   30  N10 UNL     1      19.202  16.757   3.713  1.00  0.00    -0.335 N 
ATOM     31 2H10 UNL     1      20.014  16.408   3.204  1.00  0.00     0.177 HD
ATOM     32 1H10 UNL     1      18.442  17.368   3.413  1.00  0.00     0.177 HD
ENDBRANCH  15  30
BRANCH   8  33
HETATM   33  N5  UNL     1      17.540  12.573   7.475  1.00  0.00    -0.384 N 
ATOM     34  H52 UNL     1      16.958  12.929   8.234  1.00  0.00     0.157 HD
ATOM     35  H51 UNL     1      17.996  11.672   7.619  1.00  0.00     0.157 HD
ENDBRANCH   8  33
BRANCH  11  36
HETATM   36  N7  UNL     1      16.976  12.904   2.893  1.00  0.00    -0.234 N 
ATOM     37  H72 UNL     1      16.825  11.901   2.789  1.00  0.00     0.174 HD
ATOM     38  H71 UNL     1      16.765  13.502   2.095  1.00  0.00     0.174 HD
ENDBRANCH  11  36
TORSDOF 9
ENDMDL
