MODEL 1
REMARK VINA RESULT: -8.111402978      0.000      0.000
REMARK  15 active torsions:
REMARK  status: ('A' for Active; 'I' for Inactive)
REMARK    1  A    between atoms: C2_2  and  C3_7 
REMARK    2  A    between atoms: N1_3  and  O1_5 
REMARK       I    between atoms: C3_7  and  N2_9 
REMARK    3  A    between atoms: N2_9  and  C4_11 
REMARK    4  A    between atoms: C7_14  and  C8_15 
REMARK    5  A    between atoms: C8_15  and  O3_16 
REMARK    6  A    between atoms: C9_18  and  O4_19 
REMARK    7  A    between atoms: C11_22  and  O5_23 
REMARK    8  A    between atoms: O5_23  and  C12_24 
REMARK    9  A    between atoms: C13_26  and  O7_27 
REMARK   10  A    between atoms: O7_27  and  C14_28 
REMARK   11  A    between atoms: C15_29  and  N3_30 
REMARK   12  A    between atoms: C17_35  and  N4_36 
REMARK   13  A    between atoms: C19_41  and  N5_42 
REMARK   14  A    between atoms: C20_46  and  N6_47 
REMARK   15  A    between atoms: C22_52  and  N7_53 
ROOT
HETATM    1  C12 UNL     1     111.382  59.474  40.754  1.00  0.00     0.293 C 
HETATM    2  O6  UNL     1     111.795  60.762  41.011  1.00  0.00    -0.327 OA
HETATM    3  C13 UNL     1     112.681  61.382  40.213  1.00  0.00     0.293 C 
HETATM    4  C20 UNL     1     112.538  61.241  38.748  1.00  0.00     0.240 C 
HETATM    5  C21 UNL     1     111.837  59.977  38.319  1.00  0.00     0.075 C 
HETATM    6  C22 UNL     1     111.910  59.008  39.459  1.00  0.00     0.240 C 
ENDROOT
BRANCH   1   7
HETATM    7  O5  UNL     1     110.068  59.431  40.984  1.00  0.00    -0.352 OA
BRANCH   7   8
HETATM    8  C11 UNL     1     109.492  59.120  42.166  1.00  0.00     0.150 C 
HETATM    9  C4  UNL     1     108.143  59.692  42.435  1.00  0.00     0.114 C 
HETATM   10  C5  UNL     1     108.153  61.223  42.389  1.00  0.00     0.028 C 
HETATM   11  C6  UNL     1     109.044  61.767  43.475  1.00  0.00     0.011 C 
HETATM   12  C7  UNL     1     109.023  60.910  44.717  1.00  0.00     0.038 C 
HETATM   13  C9  UNL     1     109.690  59.588  44.600  1.00  0.00     0.126 C 
HETATM   14  C10 UNL     1     110.395  59.285  43.342  1.00  0.00     0.066 C 
BRANCH   9  15
HETATM   15  N2  UNL     1     107.096  59.127  41.606  1.00  0.00    -0.349 N 
HETATM   16  C3  UNL     1     106.260  58.127  42.163  1.00  0.00     0.265 C 
HETATM   17  O2  UNL     1     106.438  57.748  43.373  1.00  0.00    -0.266 OA
ATOM     18  H2  UNL     1     106.964  59.442  40.644  1.00  0.00     0.163 HD
BRANCH  16  19
HETATM   19  C2  UNL     1     105.187  57.479  41.456  1.00  0.00     0.095 C 
HETATM   20  C1  UNL     1     105.462  56.406  40.474  1.00  0.00     0.076 C 
HETATM   21  N1  UNL     1     103.929  57.791  41.639  1.00  0.00    -0.268 N 
ATOM     22  H1  UNL     1     103.200  57.303  41.117  1.00  0.00     0.194 HD
BRANCH  21  23
HETATM   23  O1  UNL     1     103.592  58.776  42.535  1.00  0.00    -0.290 OA
ATOM     24  H1  UNL     1     102.685  58.888  42.797  1.00  0.00     0.244 HD
ENDBRANCH  21  23
ENDBRANCH  16  19
ENDBRANCH   9  15
BRANCH  12  25
HETATM   25  C8  UNL     1     109.795  61.718  45.760  1.00  0.00     0.171 C 
BRANCH  25  26
HETATM   26  O3  UNL     1     109.041  61.745  46.924  1.00  0.00    -0.400 OA
ATOM     27  H3  UNL     1     109.087  60.884  47.322  1.00  0.00     0.209 HD
ENDBRANCH  25  26
ENDBRANCH  12  25
BRANCH  13  28
HETATM   28  O4  UNL     1     110.649  59.418  45.646  1.00  0.00    -0.395 OA
ATOM     29  H4  UNL     1     110.720  58.502  45.886  1.00  0.00     0.210 HD
ENDBRANCH  13  28
ENDBRANCH   7   8
ENDBRANCH   1   7
BRANCH   6  30
HETATM   30  N7  UNL     1     113.297  58.615  39.646  1.00  0.00    -0.070 N 
ATOM     31  H73 UNL     1     113.754  59.134  40.395  1.00  0.00     0.274 HD
ATOM     32  H72 UNL     1     113.389  57.682  40.047  1.00  0.00     0.274 HD
ATOM     33  H71 UNL     1     113.779  58.708  38.752  1.00  0.00     0.274 HD
ENDBRANCH   6  30
BRANCH   3  34
HETATM   34  O7  UNL     1     112.608  62.750  40.499  1.00  0.00    -0.350 OA
BRANCH  34  35
HETATM   35  C14 UNL     1     112.594  63.071  41.839  1.00  0.00     0.185 C 
HETATM   36  C15 UNL     1     112.035  64.430  42.128  1.00  0.00     0.216 C 
HETATM   37  C16 UNL     1     111.484  64.438  43.539  1.00  0.00     0.068 C 
HETATM   38  C17 UNL     1     112.366  63.628  44.437  1.00  0.00     0.187 C 
HETATM   39  C18 UNL     1     113.784  63.541  43.917  1.00  0.00     0.068 C 
HETATM   40  C19 UNL     1     113.871  62.878  42.577  1.00  0.00     0.216 C 
BRANCH  36  41
HETATM   41  N3  UNL     1     113.011  65.499  42.058  1.00  0.00    -0.072 N 
ATOM     42  H33 UNL     1     113.860  65.178  41.593  1.00  0.00     0.274 HD
ATOM     43  H32 UNL     1     112.711  66.214  41.395  1.00  0.00     0.274 HD
ATOM     44  H31 UNL     1     113.235  65.920  42.960  1.00  0.00     0.274 HD
ENDBRANCH  36  41
BRANCH  38  45
HETATM   45  N4  UNL     1     112.430  64.293  45.724  1.00  0.00    -0.075 N 
ATOM     46  H43 UNL     1     113.266  64.868  45.828  1.00  0.00     0.274 HD
ATOM     47  H42 UNL     1     111.739  65.036  45.819  1.00  0.00     0.274 HD
ATOM     48  H41 UNL     1     112.348  63.584  46.452  1.00  0.00     0.274 HD
ENDBRANCH  38  45
BRANCH  40  49
HETATM   49  N5  UNL     1     114.033  61.417  42.733  1.00  0.00    -0.072 N 
ATOM     50  H53 UNL     1     113.831  61.083  43.676  1.00  0.00     0.274 HD
ATOM     51  H52 UNL     1     113.316  60.874  42.253  1.00  0.00     0.274 HD
ATOM     52  H51 UNL     1     114.981  61.206  42.421  1.00  0.00     0.274 HD
ENDBRANCH  40  49
ENDBRANCH  34  35
ENDBRANCH   3  34
BRANCH   4  53
HETATM   53  N6  UNL     1     111.902  62.420  38.131  1.00  0.00    -0.070 N 
ATOM     54  H63 UNL     1     111.857  63.200  38.786  1.00  0.00     0.274 HD
ATOM     55  H62 UNL     1     112.507  62.835  37.423  1.00  0.00     0.274 HD
ATOM     56  H61 UNL     1     110.980  62.208  37.747  1.00  0.00     0.274 HD
ENDBRANCH   4  53
TORSDOF 15
ENDMDL
MODEL 2
REMARK VINA RESULT: -7.979504997      1.099      1.236
REMARK  15 active torsions:
REMARK  status: ('A' for Active; 'I' for Inactive)
REMARK    1  A    between atoms: C2_2  and  C3_7 
REMARK    2  A    between atoms: N1_3  and  O1_5 
REMARK       I    between atoms: C3_7  and  N2_9 
REMARK    3  A    between atoms: N2_9  and  C4_11 
REMARK    4  A    between atoms: C7_14  and  C8_15 
REMARK    5  A    between atoms: C8_15  and  O3_16 
REMARK    6  A    between atoms: C9_18  and  O4_19 
REMARK    7  A    between atoms: C11_22  and  O5_23 
REMARK    8  A    between atoms: O5_23  and  C12_24 
REMARK    9  A    between atoms: C13_26  and  O7_27 
REMARK   10  A    between atoms: O7_27  and  C14_28 
REMARK   11  A    between atoms: C15_29  and  N3_30 
REMARK   12  A    between atoms: C17_35  and  N4_36 
REMARK   13  A    between atoms: C19_41  and  N5_42 
REMARK   14  A    between atoms: C20_46  and  N6_47 
REMARK   15  A    between atoms: C22_52  and  N7_53 
ROOT
HETATM    1  C12 UNL     1     111.241  59.179  40.509  1.00  0.00     0.293 C 
HETATM    2  O6  UNL     1     112.370  59.965  40.552  1.00  0.00    -0.327 OA
HETATM    3  C13 UNL     1     113.135  60.146  39.462  1.00  0.00     0.293 C 
HETATM    4  C20 UNL     1     112.475  60.382  38.161  1.00  0.00     0.240 C 
HETATM    5  C21 UNL     1     111.085  59.803  38.064  1.00  0.00     0.075 C 
HETATM    6  C22 UNL     1     110.956  58.754  39.126  1.00  0.00     0.240 C 
ENDROOT
BRANCH   1   7
HETATM    7  O5  UNL     1     110.298  59.809  41.212  1.00  0.00    -0.352 OA
BRANCH   7   8
HETATM    8  C11 UNL     1     109.702  59.329  42.326  1.00  0.00     0.150 C 
HETATM    9  C4  UNL     1     108.314  59.792  42.607  1.00  0.00     0.114 C 
HETATM   10  C5  UNL     1     108.239  61.316  42.743  1.00  0.00     0.028 C 
HETATM   11  C6  UNL     1     109.061  61.772  43.919  1.00  0.00     0.011 C 
HETATM   12  C7  UNL     1     109.049  60.772  45.050  1.00  0.00     0.038 C 
HETATM   13  C9  UNL     1     109.793  59.511  44.804  1.00  0.00     0.126 C 
HETATM   14  C10 UNL     1     110.555  59.399  43.548  1.00  0.00     0.066 C 
BRANCH   9  15
HETATM   15  N2  UNL     1     107.329  59.277  41.676  1.00  0.00    -0.349 N 
HETATM   16  C3  UNL     1     106.434  58.274  42.129  1.00  0.00     0.265 C 
HETATM   17  O2  UNL     1     106.507  57.850  43.334  1.00  0.00    -0.266 OA
ATOM     18  H2  UNL     1     107.281  59.627  40.720  1.00  0.00     0.163 HD
BRANCH  16  19
HETATM   19  C2  UNL     1     105.412  57.671  41.315  1.00  0.00     0.095 C 
HETATM   20  C1  UNL     1     105.760  56.715  40.240  1.00  0.00     0.076 C 
HETATM   21  N1  UNL     1     104.138  57.926  41.476  1.00  0.00    -0.268 N 
ATOM     22  H1  UNL     1     103.447  57.473  40.877  1.00  0.00     0.194 HD
BRANCH  21  23
HETATM   23  O1  UNL     1     103.734  58.802  42.453  1.00  0.00    -0.290 OA
ATOM     24  H1  UNL     1     102.814  59.029  42.535  1.00  0.00     0.244 HD
ENDBRANCH  21  23
ENDBRANCH  16  19
ENDBRANCH   9  15
BRANCH  12  25
HETATM   25  C8  UNL     1     109.739  61.489  46.210  1.00  0.00     0.171 C 
BRANCH  25  26
HETATM   26  O3  UNL     1     110.963  61.957  45.755  1.00  0.00    -0.400 OA
ATOM     27  H3  UNL     1     111.556  61.217  45.699  1.00  0.00     0.209 HD
ENDBRANCH  25  26
ENDBRANCH  12  25
BRANCH  13  28
HETATM   28  O4  UNL     1     110.726  59.268  45.859  1.00  0.00    -0.395 OA
ATOM     29  H4  UNL     1     111.349  58.598  45.603  1.00  0.00     0.210 HD
ENDBRANCH  13  28
ENDBRANCH   7   8
ENDBRANCH   1   7
BRANCH   6  30
HETATM   30  N7  UNL     1     111.840  57.649  38.797  1.00  0.00    -0.070 N 
ATOM     31  H73 UNL     1     112.433  57.847  37.991  1.00  0.00     0.274 HD
ATOM     32  H72 UNL     1     112.580  57.519  39.487  1.00  0.00     0.274 HD
ATOM     33  H71 UNL     1     111.272  56.812  38.669  1.00  0.00     0.274 HD
ENDBRANCH   6  30
BRANCH   3  34
HETATM   34  O7  UNL     1     113.953  61.254  39.710  1.00  0.00    -0.350 OA
BRANCH  34  35
HETATM   35  C14 UNL     1     113.823  61.813  40.962  1.00  0.00     0.185 C 
HETATM   36  C15 UNL     1     113.453  63.265  40.939  1.00  0.00     0.216 C 
HETATM   37  C16 UNL     1     112.738  63.604  42.230  1.00  0.00     0.068 C 
HETATM   38  C17 UNL     1     113.361  62.862  43.371  1.00  0.00     0.187 C 
HETATM   39  C18 UNL     1     114.802  62.491  43.092  1.00  0.00     0.068 C 
HETATM   40  C19 UNL     1     114.950  61.590  41.906  1.00  0.00     0.216 C 
BRANCH  36  41
HETATM   41  N3  UNL     1     114.588  64.163  40.844  1.00  0.00    -0.072 N 
ATOM     42  H33 UNL     1     114.887  64.459  41.773  1.00  0.00     0.274 HD
ATOM     43  H32 UNL     1     115.421  63.655  40.547  1.00  0.00     0.274 HD
ATOM     44  H31 UNL     1     114.429  64.973  40.245  1.00  0.00     0.274 HD
ENDBRANCH  36  41
BRANCH  38  45
HETATM   45  N4  UNL     1     113.369  63.735  44.528  1.00  0.00    -0.075 N 
ATOM     46  H43 UNL     1     112.432  64.032  44.803  1.00  0.00     0.274 HD
ATOM     47  H42 UNL     1     113.617  63.248  45.388  1.00  0.00     0.274 HD
ATOM     48  H41 UNL     1     113.987  64.521  44.329  1.00  0.00     0.274 HD
ENDBRANCH  38  45
BRANCH  40  49
HETATM   49  N5  UNL     1     114.859  60.173  42.320  1.00  0.00    -0.072 N 
ATOM     50  H53 UNL     1     115.547  59.910  43.025  1.00  0.00     0.274 HD
ATOM     51  H52 UNL     1     114.028  59.964  42.874  1.00  0.00     0.274 HD
ATOM     52  H51 UNL     1     114.924  59.626  41.462  1.00  0.00     0.274 HD
ENDBRANCH  40  49
ENDBRANCH  34  35
ENDBRANCH   3  34
BRANCH   4  53
HETATM   53  N6  UNL     1     112.467  61.808  37.786  1.00  0.00    -0.070 N 
ATOM     54  H63 UNL     1     112.004  62.373  38.498  1.00  0.00     0.274 HD
ATOM     55  H62 UNL     1     113.403  62.208  37.842  1.00  0.00     0.274 HD
ATOM     56  H61 UNL     1     112.054  61.966  36.866  1.00  0.00     0.274 HD
ENDBRANCH   4  53
TORSDOF 15
ENDMDL
MODEL 3
REMARK VINA RESULT: -7.901569956      1.434      1.921
REMARK  15 active torsions:
REMARK  status: ('A' for Active; 'I' for Inactive)
REMARK    1  A    between atoms: C2_2  and  C3_7 
REMARK    2  A    between atoms: N1_3  and  O1_5 
REMARK       I    between atoms: C3_7  and  N2_9 
REMARK    3  A    between atoms: N2_9  and  C4_11 
REMARK    4  A    between atoms: C7_14  and  C8_15 
REMARK    5  A    between atoms: C8_15  and  O3_16 
REMARK    6  A    between atoms: C9_18  and  O4_19 
REMARK    7  A    between atoms: C11_22  and  O5_23 
REMARK    8  A    between atoms: O5_23  and  C12_24 
REMARK    9  A    between atoms: C13_26  and  O7_27 
REMARK   10  A    between atoms: O7_27  and  C14_28 
REMARK   11  A    between atoms: C15_29  and  N3_30 
REMARK   12  A    between atoms: C17_35  and  N4_36 
REMARK   13  A    between atoms: C19_41  and  N5_42 
REMARK   14  A    between atoms: C20_46  and  N6_47 
REMARK   15  A    between atoms: C22_52  and  N7_53 
ROOT
HETATM    1  C12 UNL     1     111.957  59.945  41.707  1.00  0.00     0.293 C 
HETATM    2  O6  UNL     1     111.897  61.249  41.269  1.00  0.00    -0.327 OA
HETATM    3  C13 UNL     1     112.845  61.758  40.464  1.00  0.00     0.293 C 
HETATM    4  C20 UNL     1     113.347  60.932  39.345  1.00  0.00     0.240 C 
HETATM    5  C21 UNL     1     113.218  59.447  39.573  1.00  0.00     0.075 C 
HETATM    6  C22 UNL     1     113.062  59.226  41.047  1.00  0.00     0.240 C 
ENDROOT
BRANCH   1   7
HETATM    7  O5  UNL     1     110.719  59.453  41.643  1.00  0.00    -0.352 OA
BRANCH   7   8
HETATM    8  C11 UNL     1     109.952  59.127  42.707  1.00  0.00     0.150 C 
HETATM    9  C4  UNL     1     108.580  59.705  42.757  1.00  0.00     0.114 C 
HETATM   10  C5  UNL     1     108.606  61.237  42.742  1.00  0.00     0.028 C 
HETATM   11  C6  UNL     1     109.306  61.755  43.970  1.00  0.00     0.011 C 
HETATM   12  C7  UNL     1     109.074  60.877  45.176  1.00  0.00     0.038 C 
HETATM   13  C9  UNL     1     109.743  59.552  45.148  1.00  0.00     0.126 C 
HETATM   14  C10 UNL     1     110.647  59.265  44.019  1.00  0.00     0.066 C 
BRANCH   9  15
HETATM   15  N2  UNL     1     107.683  59.164  41.755  1.00  0.00    -0.349 N 
HETATM   16  C3  UNL     1     106.685  58.246  42.169  1.00  0.00     0.265 C 
HETATM   17  O2  UNL     1     106.591  57.919  43.403  1.00  0.00    -0.266 OA
ATOM     18  H2  UNL     1     107.769  59.436  40.776  1.00  0.00     0.163 HD
BRANCH  16  19
HETATM   19  C2  UNL     1     105.732  57.628  41.284  1.00  0.00     0.095 C 
HETATM   20  C1  UNL     1     106.174  56.700  40.219  1.00  0.00     0.076 C 
HETATM   21  N1  UNL     1     104.444  57.845  41.369  1.00  0.00    -0.268 N 
ATOM     22  H1  UNL     1     103.804  57.384  40.722  1.00  0.00     0.194 HD
BRANCH  21  23
HETATM   23  O1  UNL     1     103.956  58.695  42.332  1.00  0.00    -0.290 OA
ATOM     24  H1  UNL     1     103.078  59.050  42.249  1.00  0.00     0.244 HD
ENDBRANCH  21  23
ENDBRANCH  16  19
ENDBRANCH   9  15
BRANCH  12  25
HETATM   25  C8  UNL     1     109.666  61.661  46.347  1.00  0.00     0.171 C 
BRANCH  25  26
HETATM   26  O3  UNL     1     110.968  62.006  46.016  1.00  0.00    -0.400 OA
ATOM     27  H3  UNL     1     111.027  62.954  46.010  1.00  0.00     0.209 HD
ENDBRANCH  25  26
ENDBRANCH  12  25
BRANCH  13  28
HETATM   28  O4  UNL     1     110.515  59.356  46.335  1.00  0.00    -0.395 OA
ATOM     29  H4  UNL     1     111.422  59.592  46.184  1.00  0.00     0.210 HD
ENDBRANCH  13  28
ENDBRANCH   7   8
ENDBRANCH   1   7
BRANCH   6  30
HETATM   30  N7  UNL     1     114.304  59.593  41.705  1.00  0.00    -0.070 N 
ATOM     31  H73 UNL     1     114.159  60.217  42.499  1.00  0.00     0.274 HD
ATOM     32  H72 UNL     1     114.723  58.815  42.215  1.00  0.00     0.274 HD
ATOM     33  H71 UNL     1     114.933  59.988  41.006  1.00  0.00     0.274 HD
ENDBRANCH   6  30
BRANCH   3  34
HETATM   34  O7  UNL     1     112.326  62.931  39.903  1.00  0.00    -0.350 OA
BRANCH  34  35
HETATM   35  C14 UNL     1     112.633  64.092  40.577  1.00  0.00     0.185 C 
HETATM   36  C15 UNL     1     114.048  64.544  40.384  1.00  0.00     0.216 C 
HETATM   37  C16 UNL     1     114.111  66.043  40.592  1.00  0.00     0.068 C 
HETATM   38  C17 UNL     1     113.191  66.445  41.703  1.00  0.00     0.187 C 
HETATM   39  C18 UNL     1     112.935  65.310  42.670  1.00  0.00     0.068 C 
HETATM   40  C19 UNL     1     112.279  64.131  42.021  1.00  0.00     0.216 C 
BRANCH  36  41
HETATM   41  N3  UNL     1     114.990  63.956  41.316  1.00  0.00    -0.072 N 
ATOM     42  H33 UNL     1     115.948  64.139  41.018  1.00  0.00     0.274 HD
ATOM     43  H32 UNL     1     114.983  64.465  42.200  1.00  0.00     0.274 HD
ATOM     44  H31 UNL     1     114.850  62.959  41.477  1.00  0.00     0.274 HD
ENDBRANCH  36  41
BRANCH  38  45
HETATM   45  N4  UNL     1     113.831  67.504  42.458  1.00  0.00    -0.075 N 
ATOM     46  H43 UNL     1     113.581  67.488  43.447  1.00  0.00     0.274 HD
ATOM     47  H42 UNL     1     114.834  67.360  42.567  1.00  0.00     0.274 HD
ATOM     48  H41 UNL     1     113.607  68.393  42.011  1.00  0.00     0.274 HD
ENDBRANCH  38  45
BRANCH  40  49
HETATM   49  N5  UNL     1     110.808  64.264  42.074  1.00  0.00    -0.072 N 
ATOM     50  H53 UNL     1     110.341  63.464  42.502  1.00  0.00     0.274 HD
ATOM     51  H52 UNL     1     110.487  64.965  42.742  1.00  0.00     0.274 HD
ATOM     52  H51 UNL     1     110.508  64.447  41.117  1.00  0.00     0.274 HD
ENDBRANCH  40  49
ENDBRANCH  34  35
ENDBRANCH   3  34
BRANCH   4  53
HETATM   53  N6  UNL     1     112.745  61.311  38.054  1.00  0.00    -0.070 N 
ATOM     54  H63 UNL     1     113.007  60.654  37.319  1.00  0.00     0.274 HD
ATOM     55  H62 UNL     1     111.737  61.156  38.059  1.00  0.00     0.274 HD
ATOM     56  H61 UNL     1     112.968  62.270  37.787  1.00  0.00     0.274 HD
ENDBRANCH   4  53
TORSDOF 15
ENDMDL
MODEL 4
REMARK VINA RESULT: -7.876678666      2.239      5.667
REMARK  15 active torsions:
REMARK  status: ('A' for Active; 'I' for Inactive)
REMARK    1  A    between atoms: C2_2  and  C3_7 
REMARK    2  A    between atoms: N1_3  and  O1_5 
REMARK       I    between atoms: C3_7  and  N2_9 
REMARK    3  A    between atoms: N2_9  and  C4_11 
REMARK    4  A    between atoms: C7_14  and  C8_15 
REMARK    5  A    between atoms: C8_15  and  O3_16 
REMARK    6  A    between atoms: C9_18  and  O4_19 
REMARK    7  A    between atoms: C11_22  and  O5_23 
REMARK    8  A    between atoms: O5_23  and  C12_24 
REMARK    9  A    between atoms: C13_26  and  O7_27 
REMARK   10  A    between atoms: O7_27  and  C14_28 
REMARK   11  A    between atoms: C15_29  and  N3_30 
REMARK   12  A    between atoms: C17_35  and  N4_36 
REMARK   13  A    between atoms: C19_41  and  N5_42 
REMARK   14  A    between atoms: C20_46  and  N6_47 
REMARK   15  A    between atoms: C22_52  and  N7_53 
ROOT
HETATM    1  C12 UNL     1     110.427  63.205  42.201  1.00  0.00     0.293 C 
HETATM    2  O6  UNL     1     111.716  63.162  41.722  1.00  0.00    -0.327 OA
HETATM    3  C13 UNL     1     112.650  64.029  42.151  1.00  0.00     0.293 C 
HETATM    4  C20 UNL     1     112.719  64.340  43.595  1.00  0.00     0.240 C 
HETATM    5  C21 UNL     1     111.412  64.159  44.325  1.00  0.00     0.075 C 
HETATM    6  C22 UNL     1     110.316  64.177  43.305  1.00  0.00     0.240 C 
ENDROOT
BRANCH   1   7
HETATM    7  O5  UNL     1     110.038  61.944  42.393  1.00  0.00    -0.352 OA
BRANCH   7   8
HETATM    8  C11 UNL     1     108.869  61.564  42.955  1.00  0.00     0.150 C 
HETATM    9  C4  UNL     1     108.939  60.566  44.060  1.00  0.00     0.114 C 
HETATM   10  C5  UNL     1     109.605  59.262  43.609  1.00  0.00     0.028 C 
HETATM   11  C6  UNL     1     108.784  58.609  42.529  1.00  0.00     0.011 C 
HETATM   12  C7  UNL     1     107.304  58.839  42.713  1.00  0.00     0.038 C 
HETATM   13  C9  UNL     1     106.831  60.225  42.468  1.00  0.00     0.126 C 
HETATM   14  C10 UNL     1     107.811  61.204  41.967  1.00  0.00     0.066 C 
BRANCH   9  15
HETATM   15  N2  UNL     1     109.527  61.088  45.278  1.00  0.00    -0.349 N 
HETATM   16  C3  UNL     1     109.057  60.590  46.520  1.00  0.00     0.265 C 
HETATM   17  O2  UNL     1     108.138  59.700  46.544  1.00  0.00    -0.266 OA
ATOM     18  H2  UNL     1     110.261  61.795  45.242  1.00  0.00     0.163 HD
BRANCH  16  19
HETATM   19  C2  UNL     1     109.547  61.019  47.804  1.00  0.00     0.095 C 
HETATM   20  C1  UNL     1     109.731  62.456  48.106  1.00  0.00     0.076 C 
HETATM   21  N1  UNL     1     109.848  60.180  48.762  1.00  0.00    -0.268 N 
ATOM     22  H1  UNL     1     110.190  60.528  49.658  1.00  0.00     0.194 HD
BRANCH  21  23
HETATM   23  O1  UNL     1     109.703  58.829  48.558  1.00  0.00    -0.290 OA
ATOM     24  H1  UNL     1     110.287  58.219  48.996  1.00  0.00     0.244 HD
ENDBRANCH  21  23
ENDBRANCH  16  19
ENDBRANCH   9  15
BRANCH  12  25
HETATM   25  C8  UNL     1     106.637  57.940  41.672  1.00  0.00     0.171 C 
BRANCH  25  26
HETATM   26  O3  UNL     1     105.406  57.545  42.175  1.00  0.00    -0.400 OA
ATOM     27  H3  UNL     1     105.197  56.695  41.804  1.00  0.00     0.209 HD
ENDBRANCH  25  26
ENDBRANCH  12  25
BRANCH  13  28
HETATM   28  O4  UNL     1     105.751  60.226  41.531  1.00  0.00    -0.395 OA
ATOM     29  H4  UNL     1     104.934  60.012  41.966  1.00  0.00     0.210 HD
ENDBRANCH  13  28
ENDBRANCH   7   8
ENDBRANCH   1   7
BRANCH   6  30
HETATM   30  N7  UNL     1     110.237  65.510  42.732  1.00  0.00    -0.070 N 
ATOM     31  H73 UNL     1     110.189  65.498  41.714  1.00  0.00     0.274 HD
ATOM     32  H72 UNL     1     109.338  65.960  42.908  1.00  0.00     0.274 HD
ATOM     33  H71 UNL     1     111.023  66.057  43.083  1.00  0.00     0.274 HD
ENDBRANCH   6  30
BRANCH   3  34
HETATM   34  O7  UNL     1     113.897  63.508  41.787  1.00  0.00    -0.350 OA
BRANCH  34  35
HETATM   35  C14 UNL     1     113.856  62.346  41.049  1.00  0.00     0.185 C 
HETATM   36  C15 UNL     1     114.079  61.107  41.861  1.00  0.00     0.216 C 
HETATM   37  C16 UNL     1     113.414  59.941  41.160  1.00  0.00     0.068 C 
HETATM   38  C17 UNL     1     113.576  60.075  39.678  1.00  0.00     0.187 C 
HETATM   39  C18 UNL     1     114.783  60.909  39.308  1.00  0.00     0.068 C 
HETATM   40  C19 UNL     1     114.701  62.311  39.825  1.00  0.00     0.216 C 
BRANCH  36  41
HETATM   41  N3  UNL     1     115.475  60.751  42.026  1.00  0.00    -0.072 N 
ATOM     42  H33 UNL     1     115.596  59.741  41.957  1.00  0.00     0.274 HD
ATOM     43  H32 UNL     1     116.017  61.047  41.215  1.00  0.00     0.274 HD
ATOM     44  H31 UNL     1     115.896  61.104  42.886  1.00  0.00     0.274 HD
ENDBRANCH  36  41
BRANCH  38  45
HETATM   45  N4  UNL     1     113.793  58.752  39.126  1.00  0.00    -0.075 N 
ATOM     46  H43 UNL     1     114.369  58.164  39.729  1.00  0.00     0.274 HD
ATOM     47  H42 UNL     1     112.951  58.178  39.137  1.00  0.00     0.274 HD
ATOM     48  H41 UNL     1     114.184  58.859  38.191  1.00  0.00     0.274 HD
ENDBRANCH  38  45
BRANCH  40  49
HETATM   49  N5  UNL     1     114.027  63.185  38.841  1.00  0.00    -0.072 N 
ATOM     50  H53 UNL     1     114.002  62.795  37.899  1.00  0.00     0.274 HD
ATOM     51  H52 UNL     1     113.017  63.246  38.975  1.00  0.00     0.274 HD
ATOM     52  H51 UNL     1     114.500  64.087  38.897  1.00  0.00     0.274 HD
ENDBRANCH  40  49
ENDBRANCH  34  35
ENDBRANCH   3  34
BRANCH   4  53
HETATM   53  N6  UNL     1     113.799  63.602  44.277  1.00  0.00    -0.070 N 
ATOM     54  H63 UNL     1     114.116  62.812  43.716  1.00  0.00     0.274 HD
ATOM     55  H62 UNL     1     114.660  64.146  44.296  1.00  0.00     0.274 HD
ATOM     56  H61 UNL     1     113.532  63.303  45.216  1.00  0.00     0.274 HD
ENDBRANCH   4  53
TORSDOF 15
ENDMDL
MODEL 5
REMARK VINA RESULT: -7.810633627      2.544      7.142
REMARK  15 active torsions:
REMARK  status: ('A' for Active; 'I' for Inactive)
REMARK    1  A    between atoms: C2_2  and  C3_7 
REMARK    2  A    between atoms: N1_3  and  O1_5 
REMARK       I    between atoms: C3_7  and  N2_9 
REMARK    3  A    between atoms: N2_9  and  C4_11 
REMARK    4  A    between atoms: C7_14  and  C8_15 
REMARK    5  A    between atoms: C8_15  and  O3_16 
REMARK    6  A    between atoms: C9_18  and  O4_19 
REMARK    7  A    between atoms: C11_22  and  O5_23 
REMARK    8  A    between atoms: O5_23  and  C12_24 
REMARK    9  A    between atoms: C13_26  and  O7_27 
REMARK   10  A    between atoms: O7_27  and  C14_28 
REMARK   11  A    between atoms: C15_29  and  N3_30 
REMARK   12  A    between atoms: C17_35  and  N4_36 
REMARK   13  A    between atoms: C19_41  and  N5_42 
REMARK   14  A    between atoms: C20_46  and  N6_47 
REMARK   15  A    between atoms: C22_52  and  N7_53 
ROOT
HETATM    1  C12 UNL     1     112.010  62.711  40.456  1.00  0.00     0.293 C 
HETATM    2  O6  UNL     1     111.469  61.579  41.023  1.00  0.00    -0.327 OA
HETATM    3  C13 UNL     1     111.753  60.356  40.543  1.00  0.00     0.293 C 
HETATM    4  C20 UNL     1     113.149  60.045  40.169  1.00  0.00     0.240 C 
HETATM    5  C21 UNL     1     113.964  61.254  39.783  1.00  0.00     0.075 C 
HETATM    6  C22 UNL     1     113.008  62.352  39.431  1.00  0.00     0.240 C 
ENDROOT
BRANCH   1   7
HETATM    7  O5  UNL     1     112.357  63.522  41.457  1.00  0.00    -0.352 OA
BRANCH   7   8
HETATM    8  C11 UNL     1     111.498  64.111  42.318  1.00  0.00     0.150 C 
HETATM    9  C4  UNL     1     112.090  64.896  43.438  1.00  0.00     0.114 C 
HETATM   10  C5  UNL     1     113.004  64.035  44.315  1.00  0.00     0.028 C 
HETATM   11  C6  UNL     1     112.209  62.938  44.971  1.00  0.00     0.011 C 
HETATM   12  C7  UNL     1     110.799  63.368  45.300  1.00  0.00     0.038 C 
HETATM   13  C9  UNL     1     109.895  63.560  44.137  1.00  0.00     0.126 C 
HETATM   14  C10 UNL     1     110.413  63.210  42.803  1.00  0.00     0.066 C 
BRANCH   9  15
HETATM   15  N2  UNL     1     112.738  66.121  43.011  1.00  0.00    -0.349 N 
HETATM   16  C3  UNL     1     111.929  67.258  42.757  1.00  0.00     0.265 C 
HETATM   17  O2  UNL     1     110.660  67.185  42.911  1.00  0.00    -0.266 OA
ATOM     18  H2  UNL     1     113.750  66.164  42.895  1.00  0.00     0.163 HD
BRANCH  16  19
HETATM   19  C2  UNL     1     112.435  68.534  42.325  1.00  0.00     0.095 C 
HETATM   20  C1  UNL     1     113.434  68.628  41.236  1.00  0.00     0.076 C 
HETATM   21  N1  UNL     1     112.046  69.665  42.856  1.00  0.00    -0.268 N 
ATOM     22  H1  UNL     1     112.429  70.548  42.517  1.00  0.00     0.194 HD
BRANCH  21  23
HETATM   23  O1  UNL     1     111.120  69.662  43.871  1.00  0.00    -0.290 OA
ATOM     24  H1  UNL     1     110.433  70.318  43.887  1.00  0.00     0.244 HD
ENDBRANCH  21  23
ENDBRANCH  16  19
ENDBRANCH   9  15
BRANCH  12  25
HETATM   25  C8  UNL     1     110.229  62.223  46.137  1.00  0.00     0.171 C 
BRANCH  25  26
HETATM   26  O3  UNL     1     110.786  61.039  45.677  1.00  0.00    -0.400 OA
ATOM     27  H3  UNL     1     110.111  60.559  45.212  1.00  0.00     0.209 HD
ENDBRANCH  25  26
ENDBRANCH  12  25
BRANCH  13  28
HETATM   28  O4  UNL     1     108.694  62.805  44.309  1.00  0.00    -0.395 OA
ATOM     29  H4  UNL     1     108.257  62.682  43.475  1.00  0.00     0.210 HD
ENDBRANCH  13  28
ENDBRANCH   7   8
ENDBRANCH   1   7
BRANCH   6  30
HETATM   30  N7  UNL     1     112.301  61.981  38.217  1.00  0.00    -0.070 N 
ATOM     31  H73 UNL     1     112.832  62.196  37.373  1.00  0.00     0.274 HD
ATOM     32  H72 UNL     1     112.243  60.970  38.090  1.00  0.00     0.274 HD
ATOM     33  H71 UNL     1     111.385  62.429  38.229  1.00  0.00     0.274 HD
ENDBRANCH   6  30
BRANCH   3  34
HETATM   34  O7  UNL     1     111.379  59.430  41.525  1.00  0.00    -0.350 OA
BRANCH  34  35
HETATM   35  C14 UNL     1     110.044  59.094  41.538  1.00  0.00     0.185 C 
HETATM   36  C15 UNL     1     109.283  59.689  42.683  1.00  0.00     0.216 C 
HETATM   37  C16 UNL     1     107.826  59.810  42.286  1.00  0.00     0.068 C 
HETATM   38  C17 UNL     1     107.419  58.626  41.467  1.00  0.00     0.187 C 
HETATM   39  C18 UNL     1     108.284  57.416  41.742  1.00  0.00     0.068 C 
HETATM   40  C19 UNL     1     109.726  57.646  41.414  1.00  0.00     0.216 C 
BRANCH  36  41
HETATM   41  N3  UNL     1     109.319  58.894  43.895  1.00  0.00    -0.072 N 
ATOM     42  H33 UNL     1     108.713  58.079  43.805  1.00  0.00     0.274 HD
ATOM     43  H32 UNL     1     110.222  58.430  43.990  1.00  0.00     0.274 HD
ATOM     44  H31 UNL     1     109.094  59.415  44.742  1.00  0.00     0.274 HD
ENDBRANCH  36  41
BRANCH  38  45
HETATM   45  N4  UNL     1     106.063  58.266  41.835  1.00  0.00    -0.075 N 
ATOM     46  H43 UNL     1     105.740  57.419  41.368  1.00  0.00     0.274 HD
ATOM     47  H42 UNL     1     105.992  57.929  42.795  1.00  0.00     0.274 HD
ATOM     48  H41 UNL     1     105.461  59.069  41.655  1.00  0.00     0.274 HD
ENDBRANCH  38  45
BRANCH  40  49
HETATM   49  N5  UNL     1     109.998  57.290  40.005  1.00  0.00    -0.072 N 
ATOM     50  H53 UNL     1     109.916  56.291  39.814  1.00  0.00     0.274 HD
ATOM     51  H52 UNL     1     109.271  57.599  39.360  1.00  0.00     0.274 HD
ATOM     52  H51 UNL     1     110.919  57.671  39.792  1.00  0.00     0.274 HD
ENDBRANCH  40  49
ENDBRANCH  34  35
ENDBRANCH   3  34
BRANCH   4  53
HETATM   53  N6  UNL     1     113.847  59.261  41.205  1.00  0.00    -0.070 N 
ATOM     54  H63 UNL     1     113.188  58.882  41.885  1.00  0.00     0.274 HD
ATOM     55  H62 UNL     1     114.208  58.388  40.823  1.00  0.00     0.274 HD
ATOM     56  H61 UNL     1     114.585  59.795  41.665  1.00  0.00     0.274 HD
ENDBRANCH   4  53
TORSDOF 15
ENDMDL
