MODEL 1
REMARK VINA RESULT: -5.280477032      0.000      0.000
REMARK  4 active torsions:
REMARK  status: ('A' for Active; 'I' for Inactive)
REMARK    1  A    between atoms: N1_1  and  N2_4 
REMARK       I    between atoms: N2_4  and  C1_6 
REMARK       I    between atoms: C1_6  and  N3_8 
REMARK    2  A    between atoms: C3_15  and  N6_16 
REMARK    3  A    between atoms: N6_16  and  N7_18 
REMARK    4  A    between atoms: N7_18  and  O3_20 
ROOT
HETATM    1  N2  UNL     1      53.131  55.027  65.457  1.00  0.00    -0.257 N 
ATOM      2  H2  UNL     1      54.033  55.487  65.579  1.00  0.00     0.191 HD
HETATM    3  C1  UNL     1      51.979  55.526  66.115  1.00  0.00     0.363 C 
HETATM    4  O1  UNL     1      50.871  54.902  65.920  1.00  0.00    -0.244 OA
HETATM    5  N3  UNL     1      51.945  56.649  66.966  1.00  0.00    -0.038 N 
HETATM    6  C2  UNL     1      53.014  57.409  67.271  1.00  0.00     0.364 A 
HETATM    7  O2  UNL     1      54.214  57.293  66.889  1.00  0.00    -0.244 OA
HETATM    8  N4  UNL     1      52.589  58.387  68.109  1.00  0.00    -0.236 N 
ATOM      9  H4  UNL     1      53.187  59.111  68.505  1.00  0.00     0.192 HD
HETATM   10  N5  UNL     1      51.320  58.276  68.338  1.00  0.00    -0.126 N 
ATOM     11  H5  UNL     1      50.753  58.881  68.931  1.00  0.00     0.206 HD
HETATM   12  C3  UNL     1      50.886  57.183  67.626  1.00  0.00     0.728 A 
ENDROOT
BRANCH  12  13
HETATM   13  N6  UNL     1      49.700  56.848  67.667  1.00  0.00    -0.110 N 
ATOM     14  H6  UNL     1      49.210  57.502  67.056  1.00  0.00     0.207 HD
BRANCH  13  15
HETATM   15  N7  UNL     1      48.787  56.050  68.126  1.00  0.00    -0.196 N 
ATOM     16  H7  UNL     1      49.071  55.356  68.817  1.00  0.00     0.216 HD
BRANCH  15  17
HETATM   17  O3  UNL     1      47.581  56.068  67.783  1.00  0.00    -0.274 OA
ATOM     18  H3  UNL     1      47.196  55.506  67.121  1.00  0.00     0.246 HD
ENDBRANCH  15  17
ENDBRANCH  13  15
ENDBRANCH  12  13
BRANCH   1  19
HETATM   19  N1  UNL     1      53.022  53.903  64.641  1.00  0.00    -0.341 N 
ATOM     20  H12 UNL     1      53.579  53.848  63.789  1.00  0.00     0.177 HD
ATOM     21  H11 UNL     1      52.386  53.151  64.906  1.00  0.00     0.177 HD
ENDBRANCH   1  19
TORSDOF 4
ENDMDL
MODEL 2
REMARK VINA RESULT: -4.847418633      1.759      3.633
REMARK  4 active torsions:
REMARK  status: ('A' for Active; 'I' for Inactive)
REMARK    1  A    between atoms: N1_1  and  N2_4 
REMARK       I    between atoms: N2_4  and  C1_6 
REMARK       I    between atoms: C1_6  and  N3_8 
REMARK    2  A    between atoms: C3_15  and  N6_16 
REMARK    3  A    between atoms: N6_16  and  N7_18 
REMARK    4  A    between atoms: N7_18  and  O3_20 
ROOT
HETATM    1  N2  UNL     1      52.354  59.740  68.470  1.00  0.00    -0.257 N 
ATOM      2  H2  UNL     1      53.094  59.721  67.769  1.00  0.00     0.191 HD
HETATM    3  C1  UNL     1      51.454  58.650  68.590  1.00  0.00     0.363 C 
HETATM    4  O1  UNL     1      50.543  58.733  69.493  1.00  0.00    -0.244 OA
HETATM    5  N3  UNL     1      51.475  57.482  67.801  1.00  0.00    -0.038 N 
HETATM    6  C2  UNL     1      52.362  57.241  66.816  1.00  0.00     0.364 A 
HETATM    7  O2  UNL     1      53.315  57.962  66.403  1.00  0.00    -0.244 OA
HETATM    8  N4  UNL     1      52.063  56.026  66.293  1.00  0.00    -0.236 N 
ATOM      9  H4  UNL     1      52.572  55.584  65.527  1.00  0.00     0.192 HD
HETATM   10  N5  UNL     1      51.046  55.503  66.897  1.00  0.00    -0.126 N 
ATOM     11  H5  UNL     1      50.619  54.598  66.699  1.00  0.00     0.206 HD
HETATM   12  C3  UNL     1      50.652  56.404  67.858  1.00  0.00     0.728 A 
ENDROOT
BRANCH  12  13
HETATM   13  N6  UNL     1      49.691  56.153  68.587  1.00  0.00    -0.110 N 
ATOM     14  H6  UNL     1      50.092  55.772  69.445  1.00  0.00     0.207 HD
BRANCH  13  15
HETATM   15  N7  UNL     1      48.408  56.147  68.770  1.00  0.00    -0.196 N 
ATOM     16  H7  UNL     1      48.067  56.231  69.728  1.00  0.00     0.216 HD
BRANCH  15  17
HETATM   17  O3  UNL     1      47.553  56.044  67.858  1.00  0.00    -0.274 OA
ATOM     18  H3  UNL     1      46.614  56.112  67.984  1.00  0.00     0.246 HD
ENDBRANCH  15  17
ENDBRANCH  13  15
ENDBRANCH  12  13
BRANCH   1  19
HETATM   19  N1  UNL     1      52.219  60.836  69.319  1.00  0.00    -0.341 N 
ATOM     20  H12 UNL     1      52.654  60.811  70.240  1.00  0.00     0.177 HD
ATOM     21  H11 UNL     1      51.687  61.649  69.007  1.00  0.00     0.177 HD
ENDBRANCH   1  19
TORSDOF 4
ENDMDL
MODEL 3
REMARK VINA RESULT: -4.833952385      1.889      3.271
REMARK  4 active torsions:
REMARK  status: ('A' for Active; 'I' for Inactive)
REMARK    1  A    between atoms: N1_1  and  N2_4 
REMARK       I    between atoms: N2_4  and  C1_6 
REMARK       I    between atoms: C1_6  and  N3_8 
REMARK    2  A    between atoms: C3_15  and  N6_16 
REMARK    3  A    between atoms: N6_16  and  N7_18 
REMARK    4  A    between atoms: N7_18  and  O3_20 
ROOT
HETATM    1  N2  UNL     1      53.066  56.756  65.410  1.00  0.00    -0.257 N 
ATOM      2  H2  UNL     1      52.754  55.872  65.009  1.00  0.00     0.191 HD
HETATM    3  C1  UNL     1      52.391  57.313  66.527  1.00  0.00     0.363 C 
HETATM    4  O1  UNL     1      52.832  58.429  66.987  1.00  0.00    -0.244 OA
HETATM    5  N3  UNL     1      51.275  56.744  67.174  1.00  0.00    -0.038 N 
HETATM    6  C2  UNL     1      50.694  55.583  66.816  1.00  0.00     0.364 A 
HETATM    7  O2  UNL     1      50.998  54.791  65.878  1.00  0.00    -0.244 OA
HETATM    8  N4  UNL     1      49.661  55.370  67.668  1.00  0.00    -0.236 N 
ATOM      9  H4  UNL     1      49.039  54.562  67.634  1.00  0.00     0.192 HD
HETATM   10  N5  UNL     1      49.570  56.330  68.531  1.00  0.00    -0.126 N 
ATOM     11  H5  UNL     1      48.882  56.414  69.279  1.00  0.00     0.206 HD
HETATM   12  C3  UNL     1      50.582  57.216  68.241  1.00  0.00     0.728 A 
ENDROOT
BRANCH  12  13
HETATM   13  N6  UNL     1      50.725  58.235  68.918  1.00  0.00    -0.110 N 
ATOM     14  H6  UNL     1      50.652  57.930  69.889  1.00  0.00     0.207 HD
BRANCH  13  15
HETATM   15  N7  UNL     1      50.925  59.515  68.970  1.00  0.00    -0.196 N 
ATOM     16  H7  UNL     1      51.396  59.886  69.795  1.00  0.00     0.216 HD
BRANCH  15  17
HETATM   17  O3  UNL     1      50.584  60.331  68.081  1.00  0.00    -0.274 OA
ATOM     18  H3  UNL     1      51.169  60.946  67.655  1.00  0.00     0.246 HD
ENDBRANCH  15  17
ENDBRANCH  13  15
ENDBRANCH  12  13
BRANCH   1  19
HETATM   19  N1  UNL     1      54.160  57.427  64.867  1.00  0.00    -0.341 N 
ATOM     20  H12 UNL     1      54.020  58.336  64.428  1.00  0.00     0.177 HD
ATOM     21  H11 UNL     1      55.085  57.000  64.916  1.00  0.00     0.177 HD
ENDBRANCH   1  19
TORSDOF 4
ENDMDL
MODEL 4
REMARK VINA RESULT: -4.515673908      2.183      3.373
REMARK  4 active torsions:
REMARK  status: ('A' for Active; 'I' for Inactive)
REMARK    1  A    between atoms: N1_1  and  N2_4 
REMARK       I    between atoms: N2_4  and  C1_6 
REMARK       I    between atoms: C1_6  and  N3_8 
REMARK    2  A    between atoms: C3_15  and  N6_16 
REMARK    3  A    between atoms: N6_16  and  N7_18 
REMARK    4  A    between atoms: N7_18  and  O3_20 
ROOT
HETATM    1  N2  UNL     1      54.245  56.878  66.466  1.00  0.00    -0.257 N 
ATOM      2  H2  UNL     1      54.250  55.871  66.306  1.00  0.00     0.191 HD
HETATM    3  C1  UNL     1      53.127  57.500  67.078  1.00  0.00     0.363 C 
HETATM    4  O1  UNL     1      53.182  58.772  67.252  1.00  0.00    -0.244 OA
HETATM    5  N3  UNL     1      51.961  56.839  67.513  1.00  0.00    -0.038 N 
HETATM    6  C2  UNL     1      51.748  55.513  67.404  1.00  0.00     0.364 A 
HETATM    7  O2  UNL     1      52.499  54.619  66.918  1.00  0.00    -0.244 OA
HETATM    8  N4  UNL     1      50.524  55.257  67.928  1.00  0.00    -0.236 N 
ATOM      9  H4  UNL     1      50.098  54.331  67.979  1.00  0.00     0.192 HD
HETATM   10  N5  UNL     1      49.969  56.345  68.355  1.00  0.00    -0.126 N 
ATOM     11  H5  UNL     1      49.051  56.431  68.792  1.00  0.00     0.206 HD
HETATM   12  C3  UNL     1      50.858  57.364  68.104  1.00  0.00     0.728 A 
ENDROOT
BRANCH  12  13
HETATM   13  N6  UNL     1      50.576  58.523  68.415  1.00  0.00    -0.110 N 
ATOM     14  H6  UNL     1      49.614  58.662  68.106  1.00  0.00     0.207 HD
BRANCH  13  15
HETATM   15  N7  UNL     1      50.934  59.647  68.953  1.00  0.00    -0.196 N 
ATOM     16  H7  UNL     1      51.043  59.672  69.966  1.00  0.00     0.216 HD
BRANCH  15  17
HETATM   17  O3  UNL     1      51.156  60.707  68.320  1.00  0.00    -0.274 OA
ATOM     18  H3  UNL     1      51.849  60.823  67.681  1.00  0.00     0.246 HD
ENDBRANCH  15  17
ENDBRANCH  13  15
ENDBRANCH  12  13
BRANCH   1  19
HETATM   19  N1  UNL     1      55.337  57.654  66.084  1.00  0.00    -0.341 N 
ATOM     20  H12 UNL     1      56.103  57.220  65.570  1.00  0.00     0.177 HD
ATOM     21  H11 UNL     1      55.356  58.646  66.323  1.00  0.00     0.177 HD
ENDBRANCH   1  19
TORSDOF 4
ENDMDL
MODEL 5
REMARK VINA RESULT: -4.511944926      5.921      7.321
REMARK  4 active torsions:
REMARK  status: ('A' for Active; 'I' for Inactive)
REMARK    1  A    between atoms: N1_1  and  N2_4 
REMARK       I    between atoms: N2_4  and  C1_6 
REMARK       I    between atoms: C1_6  and  N3_8 
REMARK    2  A    between atoms: C3_15  and  N6_16 
REMARK    3  A    between atoms: N6_16  and  N7_18 
REMARK    4  A    between atoms: N7_18  and  O3_20 
ROOT
HETATM    1  N2  UNL     1      52.812  61.787  72.919  1.00  0.00    -0.257 N 
ATOM      2  H2  UNL     1      52.546  61.238  73.736  1.00  0.00     0.191 HD
HETATM    3  C1  UNL     1      52.106  61.639  71.698  1.00  0.00     0.363 C 
HETATM    4  O1  UNL     1      52.488  62.359  70.704  1.00  0.00    -0.244 OA
HETATM    5  N3  UNL     1      51.019  60.768  71.482  1.00  0.00    -0.038 N 
HETATM    6  C2  UNL     1      50.499  59.950  72.417  1.00  0.00     0.364 A 
HETATM    7  O2  UNL     1      50.846  59.788  73.622  1.00  0.00    -0.244 OA
HETATM    8  N4  UNL     1      49.475  59.274  71.837  1.00  0.00    -0.236 N 
ATOM      9  H4  UNL     1      48.896  58.582  72.312  1.00  0.00     0.192 HD
HETATM   10  N5  UNL     1      49.333  59.628  70.601  1.00  0.00    -0.126 N 
ATOM     11  H5  UNL     1      48.639  59.274  69.942  1.00  0.00     0.206 HD
HETATM   12  C3  UNL     1      50.298  60.574  70.348  1.00  0.00     0.728 A 
ENDROOT
BRANCH  12  13
HETATM   13  N6  UNL     1      50.388  61.085  69.231  1.00  0.00    -0.110 N 
ATOM     14  H6  UNL     1      50.658  60.326  68.605  1.00  0.00     0.207 HD
BRANCH  13  15
HETATM   15  N7  UNL     1      50.298  62.139  68.481  1.00  0.00    -0.196 N 
ATOM     16  H7  UNL     1      50.525  63.039  68.903  1.00  0.00     0.216 HD
BRANCH  15  17
HETATM   17  O3  UNL     1      49.953  62.135  67.275  1.00  0.00    -0.274 OA
ATOM     18  H3  UNL     1      49.072  61.963  66.963  1.00  0.00     0.246 HD
ENDBRANCH  15  17
ENDBRANCH  13  15
ENDBRANCH  12  13
BRANCH   1  19
HETATM   19  N1  UNL     1      53.871  62.689  72.993  1.00  0.00    -0.341 N 
ATOM     20  H12 UNL     1      54.110  63.247  72.174  1.00  0.00     0.177 HD
ATOM     21  H11 UNL     1      54.393  62.779  73.865  1.00  0.00     0.177 HD
ENDBRANCH   1  19
TORSDOF 4
ENDMDL
