MODEL 1
REMARK VINA RESULT: -4.057844518      0.000      0.000
REMARK  3 active torsions:
REMARK  status: ('A' for Active; 'I' for Inactive)
REMARK    1  A    between atoms: C3_3  and  N1_4 
REMARK    2  A    between atoms: C5_9  and  C6_10 
REMARK    3  A    between atoms: C6_10  and  N2_11 
ROOT
HETATM    1  C1  UNL     1      23.353   9.597  11.981  1.00  0.00     0.018 C 
HETATM    2  C2  UNL     1      24.565  10.466  12.071  1.00  0.00    -0.004 A 
HETATM    3  C3  UNL     1      24.340  11.746  12.913  1.00  0.00     0.197 A 
HETATM    4  C4  UNL     1      24.529  11.821  11.396  1.00  0.00     0.034 A 
HETATM    5  C5  UNL     1      25.481  10.679  10.933  1.00  0.00     0.028 A 
ENDROOT
BRANCH   5   6
HETATM    6  C6  UNL     1      25.207  10.155   9.563  1.00  0.00     0.235 C 
BRANCH   6   7
HETATM    7  N2  UNL     1      26.206   9.134   9.269  1.00  0.00    -0.079 N 
ATOM      8  H23 UNL     1      27.073   9.266   9.790  1.00  0.00     0.274 HD
ATOM      9  H22 UNL     1      25.960   8.219   9.646  1.00  0.00     0.274 HD
ATOM     10  H21 UNL     1      26.350   9.121   8.259  1.00  0.00     0.274 HD
ENDBRANCH   6   7
ENDBRANCH   5   6
BRANCH   3  11
HETATM   11  N1  UNL     1      25.477  12.044  13.749  1.00  0.00    -0.074 N 
ATOM     12  H13 UNL     1      25.320  12.887  14.303  1.00  0.00     0.274 HD
ATOM     13  H12 UNL     1      25.567  11.368  14.508  1.00  0.00     0.274 HD
ATOM     14  H11 UNL     1      26.338  12.110  13.208  1.00  0.00     0.274 HD
ENDBRANCH   3  11
TORSDOF 3
ENDMDL
MODEL 2
REMARK VINA RESULT: -3.999518599      1.791      3.419
REMARK  3 active torsions:
REMARK  status: ('A' for Active; 'I' for Inactive)
REMARK    1  A    between atoms: C3_3  and  N1_4 
REMARK    2  A    between atoms: C5_9  and  C6_10 
REMARK    3  A    between atoms: C6_10  and  N2_11 
ROOT
HETATM    1  C1  UNL     1      25.231  10.608   9.929  1.00  0.00     0.018 C 
HETATM    2  C2  UNL     1      24.490  10.213  11.163  1.00  0.00    -0.004 A 
HETATM    3  C3  UNL     1      23.014   9.828  10.895  1.00  0.00     0.197 A 
HETATM    4  C4  UNL     1      23.372  11.111  11.649  1.00  0.00     0.034 A 
HETATM    5  C5  UNL     1      24.681  10.889  12.461  1.00  0.00     0.028 A 
ENDROOT
BRANCH   5   6
HETATM    6  C6  UNL     1      25.530  12.107  12.623  1.00  0.00     0.235 C 
BRANCH   6   7
HETATM    7  N2  UNL     1      25.889  12.215  14.032  1.00  0.00    -0.079 N 
ATOM      8  H23 UNL     1      26.855  12.511  14.174  1.00  0.00     0.274 HD
ATOM      9  H22 UNL     1      25.437  13.003  14.496  1.00  0.00     0.274 HD
ATOM     10  H21 UNL     1      25.679  11.322  14.477  1.00  0.00     0.274 HD
ENDBRANCH   6   7
ENDBRANCH   5   6
BRANCH   3  11
HETATM   11  N1  UNL     1      22.609   8.682  11.671  1.00  0.00    -0.074 N 
ATOM     12  H13 UNL     1      23.373   8.340  12.254  1.00  0.00     0.274 HD
ATOM     13  H12 UNL     1      21.952   8.944  12.405  1.00  0.00     0.274 HD
ATOM     14  H11 UNL     1      22.231   7.941  11.082  1.00  0.00     0.274 HD
ENDBRANCH   3  11
TORSDOF 3
ENDMDL
MODEL 3
REMARK VINA RESULT: -3.980598620      0.884      3.727
REMARK  3 active torsions:
REMARK  status: ('A' for Active; 'I' for Inactive)
REMARK    1  A    between atoms: C3_3  and  N1_4 
REMARK    2  A    between atoms: C5_9  and  C6_10 
REMARK    3  A    between atoms: C6_10  and  N2_11 
ROOT
HETATM    1  C1  UNL     1      25.286  12.723  10.239  1.00  0.00     0.018 C 
HETATM    2  C2  UNL     1      25.424  11.279  10.591  1.00  0.00    -0.004 A 
HETATM    3  C3  UNL     1      25.229  10.331   9.382  1.00  0.00     0.197 A 
HETATM    4  C4  UNL     1      24.195  10.398  10.509  1.00  0.00     0.034 A 
HETATM    5  C5  UNL     1      24.912  10.712  11.855  1.00  0.00     0.028 A 
ENDROOT
BRANCH   5   6
HETATM    6  C6  UNL     1      24.099  11.501  12.827  1.00  0.00     0.235 C 
BRANCH   6   7
HETATM    7  N2  UNL     1      25.013  12.082  13.803  1.00  0.00    -0.079 N 
ATOM      8  H23 UNL     1      25.829  11.496  13.980  1.00  0.00     0.274 HD
ATOM      9  H22 UNL     1      25.508  12.899  13.445  1.00  0.00     0.274 HD
ATOM     10  H21 UNL     1      24.479  12.283  14.648  1.00  0.00     0.274 HD
ENDBRANCH   6   7
ENDBRANCH   5   6
BRANCH   3  11
HETATM   11  N1  UNL     1      26.173   9.241   9.397  1.00  0.00    -0.074 N 
ATOM     12  H13 UNL     1      26.789   9.272   8.585  1.00  0.00     0.274 HD
ATOM     13  H12 UNL     1      26.869   9.363  10.132  1.00  0.00     0.274 HD
ATOM     14  H11 UNL     1      25.706   8.338   9.475  1.00  0.00     0.274 HD
ENDBRANCH   3  11
TORSDOF 3
ENDMDL
MODEL 4
REMARK VINA RESULT: -3.911903066      2.198      2.853
REMARK  3 active torsions:
REMARK  status: ('A' for Active; 'I' for Inactive)
REMARK    1  A    between atoms: C3_3  and  N1_4 
REMARK    2  A    between atoms: C5_9  and  C6_10 
REMARK    3  A    between atoms: C6_10  and  N2_11 
ROOT
HETATM    1  C1  UNL     1      23.354  11.499  13.230  1.00  0.00     0.018 C 
HETATM    2  C2  UNL     1      23.267  10.557  12.075  1.00  0.00    -0.004 A 
HETATM    3  C3  UNL     1      23.177   9.071  12.501  1.00  0.00     0.197 A 
HETATM    4  C4  UNL     1      24.432   9.623  11.820  1.00  0.00     0.034 A 
HETATM    5  C5  UNL     1      24.030  10.751  10.826  1.00  0.00     0.028 A 
ENDROOT
BRANCH   5   6
HETATM    6  C6  UNL     1      25.049  11.829  10.658  1.00  0.00     0.235 C 
BRANCH   6   7
HETATM    7  N2  UNL     1      25.170  12.110   9.233  1.00  0.00    -0.079 N 
ATOM      8  H23 UNL     1      26.084  12.484   8.979  1.00  0.00     0.274 HD
ATOM      9  H22 UNL     1      25.207  11.264   8.664  1.00  0.00     0.274 HD
ATOM     10  H21 UNL     1      24.403  12.729   8.971  1.00  0.00     0.274 HD
ENDBRANCH   6   7
ENDBRANCH   5   6
BRANCH   3  11
HETATM   11  N1  UNL     1      22.238   8.336  11.691  1.00  0.00    -0.074 N 
ATOM     12  H13 UNL     1      21.368   8.854  11.569  1.00  0.00     0.274 HD
ATOM     13  H12 UNL     1      22.540   8.297  10.717  1.00  0.00     0.274 HD
ATOM     14  H11 UNL     1      22.066   7.403  12.063  1.00  0.00     0.274 HD
ENDBRANCH   3  11
TORSDOF 3
ENDMDL
MODEL 5
REMARK VINA RESULT: -3.868235829      1.966      3.026
REMARK  3 active torsions:
REMARK  status: ('A' for Active; 'I' for Inactive)
REMARK    1  A    between atoms: C3_3  and  N1_4 
REMARK    2  A    between atoms: C5_9  and  C6_10 
REMARK    3  A    between atoms: C6_10  and  N2_11 
ROOT
HETATM    1  C1  UNL     1      25.008  12.007  13.137  1.00  0.00     0.018 C 
HETATM    2  C2  UNL     1      25.195  11.079  11.983  1.00  0.00    -0.004 A 
HETATM    3  C3  UNL     1      25.611  11.799  10.677  1.00  0.00     0.197 A 
HETATM    4  C4  UNL     1      24.225  11.167  10.824  1.00  0.00     0.034 A 
HETATM    5  C5  UNL     1      24.319   9.914  11.744  1.00  0.00     0.028 A 
ENDROOT
BRANCH   5   6
HETATM    6  C6  UNL     1      23.096   9.641  12.554  1.00  0.00     0.235 C 
BRANCH   6   7
HETATM    7  N2  UNL     1      22.625   8.304  12.212  1.00  0.00    -0.079 N 
ATOM      8  H23 UNL     1      23.198   7.853  11.499  1.00  0.00     0.274 HD
ATOM      9  H22 UNL     1      22.782   7.627  12.959  1.00  0.00     0.274 HD
ATOM     10  H21 UNL     1      21.644   8.378  11.944  1.00  0.00     0.274 HD
ENDBRANCH   6   7
ENDBRANCH   5   6
BRANCH   3  11
HETATM   11  N1  UNL     1      26.615  11.060   9.953  1.00  0.00    -0.074 N 
ATOM     12  H13 UNL     1      27.386  11.664   9.667  1.00  0.00     0.274 HD
ATOM     13  H12 UNL     1      27.126  10.428  10.568  1.00  0.00     0.274 HD
ATOM     14  H11 UNL     1      26.218  10.562   9.156  1.00  0.00     0.274 HD
ENDBRANCH   3  11
TORSDOF 3
ENDMDL
