MODEL 1
REMARK VINA RESULT: -4.673607224      0.000      0.000
REMARK  0 active torsions:
REMARK  status: ('A' for Active; 'I' for Inactive)
REMARK       I    between atoms: C2_4  and  N2_5 
REMARK       I    between atoms: C2_4  and  N3_8 
ROOT
HETATM    1  C1  UNL     1      23.237   9.332  12.351  1.00  0.00     0.165 C 
HETATM    2  N1  UNL     1      24.158  10.007  11.496  1.00  0.00    -0.230 N 
ATOM      3  H1  UNL     1      24.112   9.779  10.503  1.00  0.00     0.177 HD
HETATM    4  C2  UNL     1      25.032  10.865  11.844  1.00  0.00     0.682 C 
HETATM    5  N2  UNL     1      25.862  11.427  10.824  1.00  0.00    -0.230 N 
ATOM      6  H2  UNL     1      26.856  11.203  10.824  1.00  0.00     0.177 HD
HETATM    7  C3  UNL     1      25.350  12.296   9.795  1.00  0.00     0.165 C 
HETATM    8  N3  UNL     1      25.249  11.310  13.177  1.00  0.00    -0.126 N 
ATOM      9  H3  UNL     1      25.152  10.654  13.952  1.00  0.00     0.197 HD
HETATM   10  C4  UNL     1      25.597  12.641  13.432  1.00  0.00     0.196 C 
HETATM   11  N4  UNL     1      25.873  13.741  13.646  1.00  0.00    -0.171 NA
ENDROOT
TORSDOF 0
ENDMDL
MODEL 2
REMARK VINA RESULT: -4.476687152      1.030      3.578
REMARK  0 active torsions:
REMARK  status: ('A' for Active; 'I' for Inactive)
REMARK       I    between atoms: C2_4  and  N2_5 
REMARK       I    between atoms: C2_4  and  N3_8 
ROOT
HETATM    1  C1  UNL     1      25.247  11.804   9.322  1.00  0.00     0.165 C 
HETATM    2  N1  UNL     1      25.481  11.879  10.727  1.00  0.00    -0.230 N 
ATOM      3  H1  UNL     1      25.986  12.699  11.063  1.00  0.00     0.177 HD
HETATM    4  C2  UNL     1      25.126  11.028  11.605  1.00  0.00     0.682 C 
HETATM    5  N2  UNL     1      25.461  11.295  12.969  1.00  0.00    -0.230 N 
ATOM      6  H2  UNL     1      26.140  10.691  13.432  1.00  0.00     0.177 HD
HETATM    7  C3  UNL     1      24.879  12.380  13.716  1.00  0.00     0.165 C 
HETATM    8  N3  UNL     1      24.416   9.827  11.332  1.00  0.00    -0.126 N 
ATOM      9  H3  UNL     1      24.610   9.307  10.477  1.00  0.00     0.197 HD
HETATM   10  C4  UNL     1      23.454   9.353  12.230  1.00  0.00     0.196 C 
HETATM   11  N4  UNL     1      22.652   8.965  12.964  1.00  0.00    -0.171 NA
ENDROOT
TORSDOF 0
ENDMDL
MODEL 3
REMARK VINA RESULT: -4.414570518      1.341      3.894
REMARK  0 active torsions:
REMARK  status: ('A' for Active; 'I' for Inactive)
REMARK       I    between atoms: C2_4  and  N2_5 
REMARK       I    between atoms: C2_4  and  N3_8 
ROOT
HETATM    1  C1  UNL     1      25.486  12.614  13.090  1.00  0.00     0.165 C 
HETATM    2  N1  UNL     1      24.915  11.309  13.021  1.00  0.00    -0.230 N 
ATOM      3  H1  UNL     1      24.490  10.951  13.876  1.00  0.00     0.177 HD
HETATM    4  C2  UNL     1      24.880  10.545  12.003  1.00  0.00     0.682 C 
HETATM    5  N2  UNL     1      24.255   9.267  12.147  1.00  0.00    -0.230 N 
ATOM      6  H2  UNL     1      24.835   8.430  12.090  1.00  0.00     0.177 HD
HETATM    7  C3  UNL     1      22.841   9.113  12.370  1.00  0.00     0.165 C 
HETATM    8  N3  UNL     1      25.418  10.866  10.727  1.00  0.00    -0.126 N 
ATOM      9  H3  UNL     1      26.280  11.408  10.662  1.00  0.00     0.197 HD
HETATM   10  C4  UNL     1      24.774  10.442   9.560  1.00  0.00     0.196 C 
HETATM   11  N4  UNL     1      24.238  10.103   8.595  1.00  0.00    -0.171 NA
ENDROOT
TORSDOF 0
ENDMDL
MODEL 4
REMARK VINA RESULT: -4.364057549      3.981      4.922
REMARK  0 active torsions:
REMARK  status: ('A' for Active; 'I' for Inactive)
REMARK       I    between atoms: C2_4  and  N2_5 
REMARK       I    between atoms: C2_4  and  N3_8 
ROOT
HETATM    1  C1  UNL     1      26.717   6.841   7.179  1.00  0.00     0.165 C 
HETATM    2  N1  UNL     1      26.884   8.223   6.871  1.00  0.00    -0.230 N 
ATOM      3  H1  UNL     1      27.061   8.456   5.894  1.00  0.00     0.177 HD
HETATM    4  C2  UNL     1      26.834   9.198   7.689  1.00  0.00     0.682 C 
HETATM    5  N2  UNL     1      27.029  10.516   7.172  1.00  0.00    -0.230 N 
ATOM      6  H2  UNL     1      27.868  11.028   7.442  1.00  0.00     0.177 HD
HETATM    7  C3  UNL     1      26.088  11.152   6.285  1.00  0.00     0.165 C 
HETATM    8  N3  UNL     1      26.599   9.075   9.086  1.00  0.00    -0.126 N 
ATOM      9  H3  UNL     1      26.980   8.278   9.596  1.00  0.00     0.197 HD
HETATM   10  C4  UNL     1      25.848  10.040   9.766  1.00  0.00     0.196 C 
HETATM   11  N4  UNL     1      25.220  10.830  10.326  1.00  0.00    -0.171 NA
ENDROOT
TORSDOF 0
ENDMDL
MODEL 5
REMARK VINA RESULT: -4.307447069      1.432      3.429
REMARK  0 active torsions:
REMARK  status: ('A' for Active; 'I' for Inactive)
REMARK       I    between atoms: C2_4  and  N2_5 
REMARK       I    between atoms: C2_4  and  N3_8 
ROOT
HETATM    1  C1  UNL     1      25.625  12.532  13.802  1.00  0.00     0.165 C 
HETATM    2  N1  UNL     1      25.429  12.067  12.468  1.00  0.00    -0.230 N 
ATOM      3  H1  UNL     1      26.099  12.387  11.769  1.00  0.00     0.177 HD
HETATM    4  C2  UNL     1      24.505  11.292  12.059  1.00  0.00     0.682 C 
HETATM    5  N2  UNL     1      24.488  10.944  10.672  1.00  0.00    -0.230 N 
ATOM      6  H2  UNL     1      23.724  11.287  10.091  1.00  0.00     0.177 HD
HETATM    7  C3  UNL     1      25.507  10.128  10.062  1.00  0.00     0.165 C 
HETATM    8  N3  UNL     1      23.482  10.743  12.879  1.00  0.00    -0.126 N 
ATOM      9  H3  UNL     1      23.089  11.299  13.639  1.00  0.00     0.197 HD
HETATM   10  C4  UNL     1      23.010   9.446  12.651  1.00  0.00     0.196 C 
HETATM   11  N4  UNL     1      22.627   8.372  12.472  1.00  0.00    -0.171 NA
ENDROOT
TORSDOF 0
ENDMDL
