MODEL 1
REMARK VINA RESULT: -8.774197563      0.000      0.000
REMARK  12 active torsions:
REMARK  status: ('A' for Active; 'I' for Inactive)
REMARK    1  A    between atoms: C2_2  and  C4_4 
REMARK    2  A    between atoms: C4_4  and  C5_5 
REMARK    3  A    between atoms: C4_4  and  N3_32 
REMARK    4  A    between atoms: C5_5  and  C7_7 
REMARK       I    between atoms: C7_7  and  N1_9 
REMARK    5  A    between atoms: N1_9  and  C8_11 
REMARK    6  A    between atoms: C8_11  and  C9_12 
REMARK    7  A    between atoms: C8_11  and  C18_25 
REMARK       I    between atoms: C9_12  and  N2_14 
REMARK       I    between atoms: N2_14  and  C10_16 
REMARK    8  A    between atoms: C10_16  and  C11_18 
REMARK    9  A    between atoms: C11_18  and  C12_19 
REMARK   10  A    between atoms: C18_25  and  O5_27 
REMARK   11  A    between atoms: O5_27  and  C19_28 
REMARK   12  A    between atoms: N3_32  and  O6_34 
ROOT
HETATM    1  C8  UNL     1      51.672  52.313  18.506  1.00  0.00     0.277 C 
ENDROOT
BRANCH   1   2
HETATM    2  N1  UNL     1      51.907  53.741  18.731  1.00  0.00    -0.339 N 
HETATM    3  C7  UNL     1      50.888  54.611  19.205  1.00  0.00     0.224 C 
HETATM    4  O1  UNL     1      49.761  54.100  19.428  1.00  0.00    -0.273 OA
ATOM      5  H1  UNL     1      52.833  54.124  18.541  1.00  0.00     0.163 HD
BRANCH   3   6
HETATM    6  C5  UNL     1      51.211  56.028  19.401  1.00  0.00     0.099 C 
HETATM    7  C6  UNL     1      52.691  56.211  19.368  1.00  0.00     0.022 C 
BRANCH   6   8
HETATM    8  C4  UNL     1      50.530  56.613  20.618  1.00  0.00     0.124 C 
BRANCH   8   9
HETATM    9  C2  UNL     1      49.753  57.857  20.294  1.00  0.00     0.003 C 
HETATM   10  C1  UNL     1      48.772  58.098  21.434  1.00  0.00     0.011 C 
HETATM   11  C3  UNL     1      48.911  57.682  19.045  1.00  0.00     0.011 C 
ENDBRANCH   8   9
BRANCH   8  12
HETATM   12  N3  UNL     1      51.364  56.751  21.751  1.00  0.00    -0.295 N 
HETATM   13  C23 UNL     1      51.711  55.600  22.488  1.00  0.00     0.178 C 
BRANCH  12  14
HETATM   14  O6  UNL     1      52.230  57.753  21.761  1.00  0.00    -0.292 OA
ATOM     15  H6  UNL     1      53.123  57.563  22.025  1.00  0.00     0.244 HD
ENDBRANCH  12  14
ENDBRANCH   8  12
ENDBRANCH   6   8
ENDBRANCH   3   6
ENDBRANCH   1   2
BRANCH   1  16
HETATM   16  C9  UNL     1      51.822  51.954  17.095  1.00  0.00     0.257 C 
HETATM   17  O2  UNL     1      52.832  52.402  16.466  1.00  0.00    -0.270 OA
HETATM   18  N2  UNL     1      50.891  51.131  16.407  1.00  0.00    -0.295 N 
HETATM   19  C10 UNL     1      51.085  50.800  15.040  1.00  0.00     0.224 C 
ATOM     20  H2  UNL     1      50.074  50.773  16.902  1.00  0.00     0.171 HD
HETATM   21  O3  UNL     1      52.107  51.265  14.480  1.00  0.00    -0.273 OA
BRANCH  19  22
HETATM   22  C11 UNL     1      50.098  49.952  14.379  1.00  0.00     0.108 C 
BRANCH  22  23
HETATM   23  C12 UNL     1      48.995  49.440  15.228  1.00  0.00    -0.006 C 
HETATM   24  C13 UNL     1      47.665  49.380  14.536  1.00  0.00     0.005 C 
HETATM   25  C14 UNL     1      46.617  49.190  15.640  1.00  0.00     0.000 C 
HETATM   26  C15 UNL     1      46.897  47.919  16.414  1.00  0.00     0.000 C 
HETATM   27  C16 UNL     1      48.271  48.020  17.053  1.00  0.00     0.000 C 
HETATM   28  C17 UNL     1      49.260  48.120  15.882  1.00  0.00     0.005 C 
ENDBRANCH  22  23
ENDBRANCH  19  22
ENDBRANCH   1  16
BRANCH   1  29
HETATM   29  C18 UNL     1      52.560  51.507  19.401  1.00  0.00     0.292 C 
HETATM   30  O4  UNL     1      53.689  51.950  19.737  1.00  0.00    -0.262 OA
BRANCH  29  31
HETATM   31  O5  UNL     1      52.194  50.272  19.891  1.00  0.00    -0.309 OA
BRANCH  31  32
HETATM   32  C19 UNL     1      51.051  50.014  20.670  1.00  0.00     0.060 C 
HETATM   33  C20 UNL     1      51.166  48.775  21.499  1.00  0.00     0.045 C 
HETATM   34  C21 UNL     1      49.879  49.859  19.726  1.00  0.00     0.045 C 
HETATM   35  C22 UNL     1      50.770  51.168  21.635  1.00  0.00     0.045 C 
ENDBRANCH  31  32
ENDBRANCH  29  31
ENDBRANCH   1  29
TORSDOF 12
ENDMDL
MODEL 2
REMARK VINA RESULT: -8.370028824      1.858      2.582
REMARK  12 active torsions:
REMARK  status: ('A' for Active; 'I' for Inactive)
REMARK    1  A    between atoms: C2_2  and  C4_4 
REMARK    2  A    between atoms: C4_4  and  C5_5 
REMARK    3  A    between atoms: C4_4  and  N3_32 
REMARK    4  A    between atoms: C5_5  and  C7_7 
REMARK       I    between atoms: C7_7  and  N1_9 
REMARK    5  A    between atoms: N1_9  and  C8_11 
REMARK    6  A    between atoms: C8_11  and  C9_12 
REMARK    7  A    between atoms: C8_11  and  C18_25 
REMARK       I    between atoms: C9_12  and  N2_14 
REMARK       I    between atoms: N2_14  and  C10_16 
REMARK    8  A    between atoms: C10_16  and  C11_18 
REMARK    9  A    between atoms: C11_18  and  C12_19 
REMARK   10  A    between atoms: C18_25  and  O5_27 
REMARK   11  A    between atoms: O5_27  and  C19_28 
REMARK   12  A    between atoms: N3_32  and  O6_34 
ROOT
HETATM    1  C8  UNL     1      50.019  52.905  18.519  1.00  0.00     0.277 C 
ENDROOT
BRANCH   1   2
HETATM    2  N1  UNL     1      49.681  54.326  18.619  1.00  0.00    -0.339 N 
HETATM    3  C7  UNL     1      49.571  54.994  19.869  1.00  0.00     0.224 C 
HETATM    4  O1  UNL     1      49.779  54.306  20.902  1.00  0.00    -0.273 OA
ATOM      5  H1  UNL     1      49.519  54.856  17.762  1.00  0.00     0.163 HD
BRANCH   3   6
HETATM    6  C5  UNL     1      49.227  56.419  19.876  1.00  0.00     0.099 C 
HETATM    7  C6  UNL     1      49.705  57.053  18.613  1.00  0.00     0.022 C 
BRANCH   6   8
HETATM    8  C4  UNL     1      49.675  57.116  21.141  1.00  0.00     0.124 C 
BRANCH   8   9
HETATM    9  C2  UNL     1      49.121  58.507  21.252  1.00  0.00     0.003 C 
HETATM   10  C1  UNL     1      49.199  58.919  22.717  1.00  0.00     0.011 C 
HETATM   11  C3  UNL     1      47.652  58.556  20.880  1.00  0.00     0.011 C 
ENDBRANCH   8   9
BRANCH   8  12
HETATM   12  N3  UNL     1      51.064  57.043  21.393  1.00  0.00    -0.295 N 
HETATM   13  C23 UNL     1      51.914  58.016  20.829  1.00  0.00     0.178 C 
BRANCH  12  14
HETATM   14  O6  UNL     1      51.457  56.493  22.533  1.00  0.00    -0.292 OA
ATOM     15  H6  UNL     1      51.628  55.559  22.538  1.00  0.00     0.244 HD
ENDBRANCH  12  14
ENDBRANCH   8  12
ENDBRANCH   6   8
ENDBRANCH   3   6
ENDBRANCH   1   2
BRANCH   1  16
HETATM   16  C9  UNL     1      49.405  52.282  17.346  1.00  0.00     0.257 C 
HETATM   17  O2  UNL     1      49.099  53.027  16.363  1.00  0.00    -0.270 OA
HETATM   18  N2  UNL     1      49.142  50.888  17.263  1.00  0.00    -0.295 N 
HETATM   19  C10 UNL     1      48.555  50.328  16.099  1.00  0.00     0.224 C 
ATOM     20  H2  UNL     1      49.378  50.284  18.050  1.00  0.00     0.171 HD
HETATM   21  O3  UNL     1      48.286  51.115  15.159  1.00  0.00    -0.273 OA
BRANCH  19  22
HETATM   22  C11 UNL     1      48.304  48.890  16.064  1.00  0.00     0.108 C 
BRANCH  22  23
HETATM   23  C12 UNL     1      47.175  48.399  16.890  1.00  0.00    -0.006 C 
HETATM   24  C13 UNL     1      47.137  48.968  18.278  1.00  0.00     0.005 C 
HETATM   25  C14 UNL     1      46.157  48.093  19.072  1.00  0.00     0.000 C 
HETATM   26  C15 UNL     1      44.789  48.119  18.424  1.00  0.00     0.000 C 
HETATM   27  C16 UNL     1      44.898  47.576  17.010  1.00  0.00     0.000 C 
HETATM   28  C17 UNL     1      45.822  48.553  16.267  1.00  0.00     0.005 C 
ENDBRANCH  22  23
ENDBRANCH  19  22
ENDBRANCH   1  16
BRANCH   1  29
HETATM   29  C18 UNL     1      51.505  52.735  18.549  1.00  0.00     0.292 C 
HETATM   30  O4  UNL     1      52.259  53.730  18.387  1.00  0.00    -0.262 OA
BRANCH  29  31
HETATM   31  O5  UNL     1      52.108  51.512  18.749  1.00  0.00    -0.309 OA
BRANCH  31  32
HETATM   32  C19 UNL     1      52.117  50.802  19.964  1.00  0.00     0.060 C 
HETATM   33  C20 UNL     1      52.057  51.687  21.168  1.00  0.00     0.045 C 
HETATM   34  C21 UNL     1      53.400  50.001  20.015  1.00  0.00     0.045 C 
HETATM   35  C22 UNL     1      50.924  49.848  20.055  1.00  0.00     0.045 C 
ENDBRANCH  31  32
ENDBRANCH  29  31
ENDBRANCH   1  29
TORSDOF 12
ENDMDL
MODEL 3
REMARK VINA RESULT: -8.333188889      2.421      7.748
REMARK  12 active torsions:
REMARK  status: ('A' for Active; 'I' for Inactive)
REMARK    1  A    between atoms: C2_2  and  C4_4 
REMARK    2  A    between atoms: C4_4  and  C5_5 
REMARK    3  A    between atoms: C4_4  and  N3_32 
REMARK    4  A    between atoms: C5_5  and  C7_7 
REMARK       I    between atoms: C7_7  and  N1_9 
REMARK    5  A    between atoms: N1_9  and  C8_11 
REMARK    6  A    between atoms: C8_11  and  C9_12 
REMARK    7  A    between atoms: C8_11  and  C18_25 
REMARK       I    between atoms: C9_12  and  N2_14 
REMARK       I    between atoms: N2_14  and  C10_16 
REMARK    8  A    between atoms: C10_16  and  C11_18 
REMARK    9  A    between atoms: C11_18  and  C12_19 
REMARK   10  A    between atoms: C18_25  and  O5_27 
REMARK   11  A    between atoms: O5_27  and  C19_28 
REMARK   12  A    between atoms: N3_32  and  O6_34 
ROOT
HETATM    1  C8  UNL     1      50.428  51.597  17.001  1.00  0.00     0.277 C 
ENDROOT
BRANCH   1   2
HETATM    2  N1  UNL     1      49.682  50.408  17.417  1.00  0.00    -0.339 N 
HETATM    3  C7  UNL     1      49.451  49.313  16.541  1.00  0.00     0.224 C 
HETATM    4  O1  UNL     1      49.921  49.405  15.378  1.00  0.00    -0.273 OA
ATOM      5  H1  UNL     1      49.315  50.364  18.368  1.00  0.00     0.163 HD
BRANCH   3   6
HETATM    6  C5  UNL     1      48.692  48.162  17.041  1.00  0.00     0.099 C 
HETATM    7  C6  UNL     1      49.184  46.917  16.383  1.00  0.00     0.022 C 
BRANCH   6   8
HETATM    8  C4  UNL     1      47.197  48.374  16.954  1.00  0.00     0.124 C 
BRANCH   8   9
HETATM    9  C2  UNL     1      46.500  48.054  18.245  1.00  0.00     0.003 C 
HETATM   10  C1  UNL     1      45.105  48.662  18.180  1.00  0.00     0.011 C 
HETATM   11  C3  UNL     1      47.187  48.705  19.429  1.00  0.00     0.011 C 
ENDBRANCH   8   9
BRANCH   8  12
HETATM   12  N3  UNL     1      46.584  47.787  15.824  1.00  0.00    -0.295 N 
HETATM   13  C23 UNL     1      46.703  48.426  14.573  1.00  0.00     0.178 C 
BRANCH  12  14
HETATM   14  O6  UNL     1      46.443  46.470  15.812  1.00  0.00    -0.292 OA
ATOM     15  H6  UNL     1      46.240  46.054  14.983  1.00  0.00     0.244 HD
ENDBRANCH  12  14
ENDBRANCH   8  12
ENDBRANCH   6   8
ENDBRANCH   3   6
ENDBRANCH   1   2
BRANCH   1  16
HETATM   16  C9  UNL     1      49.572  52.783  16.943  1.00  0.00     0.257 C 
HETATM   17  O2  UNL     1      48.642  52.809  16.077  1.00  0.00    -0.270 OA
HETATM   18  N2  UNL     1      49.738  53.895  17.811  1.00  0.00    -0.295 N 
HETATM   19  C10 UNL     1      48.875  55.019  17.726  1.00  0.00     0.224 C 
ATOM     20  H2  UNL     1      50.486  53.886  18.504  1.00  0.00     0.171 HD
HETATM   21  O3  UNL     1      47.969  54.979  16.857  1.00  0.00    -0.273 OA
BRANCH  19  22
HETATM   22  C11 UNL     1      49.088  56.137  18.640  1.00  0.00     0.108 C 
BRANCH  22  23
HETATM   23  C12 UNL     1      50.209  55.997  19.601  1.00  0.00    -0.006 C 
HETATM   24  C13 UNL     1      51.551  56.358  19.036  1.00  0.00     0.005 C 
HETATM   25  C14 UNL     1      52.591  55.812  20.023  1.00  0.00     0.000 C 
HETATM   26  C15 UNL     1      52.384  56.423  21.393  1.00  0.00     0.000 C 
HETATM   27  C16 UNL     1      50.995  56.062  21.892  1.00  0.00     0.000 C 
HETATM   28  C17 UNL     1      50.022  56.716  20.900  1.00  0.00     0.005 C 
ENDBRANCH  22  23
ENDBRANCH  19  22
ENDBRANCH   1  16
BRANCH   1  29
HETATM   29  C18 UNL     1      51.614  51.788  17.893  1.00  0.00     0.292 C 
HETATM   30  O4  UNL     1      52.388  52.765  17.716  1.00  0.00    -0.262 OA
BRANCH  29  31
HETATM   31  O5  UNL     1      51.910  50.927  18.927  1.00  0.00    -0.309 OA
BRANCH  31  32
HETATM   32  C19 UNL     1      51.518  51.103  20.267  1.00  0.00     0.060 C 
HETATM   33  C20 UNL     1      50.854  52.418  20.522  1.00  0.00     0.045 C 
HETATM   34  C21 UNL     1      52.762  51.013  21.124  1.00  0.00     0.045 C 
HETATM   35  C22 UNL     1      50.530  50.017  20.700  1.00  0.00     0.045 C 
ENDBRANCH  31  32
ENDBRANCH  29  31
ENDBRANCH   1  29
TORSDOF 12
ENDMDL
MODEL 4
REMARK VINA RESULT: -8.193891839      1.755      2.235
REMARK  12 active torsions:
REMARK  status: ('A' for Active; 'I' for Inactive)
REMARK    1  A    between atoms: C2_2  and  C4_4 
REMARK    2  A    between atoms: C4_4  and  C5_5 
REMARK    3  A    between atoms: C4_4  and  N3_32 
REMARK    4  A    between atoms: C5_5  and  C7_7 
REMARK       I    between atoms: C7_7  and  N1_9 
REMARK    5  A    between atoms: N1_9  and  C8_11 
REMARK    6  A    between atoms: C8_11  and  C9_12 
REMARK    7  A    between atoms: C8_11  and  C18_25 
REMARK       I    between atoms: C9_12  and  N2_14 
REMARK       I    between atoms: N2_14  and  C10_16 
REMARK    8  A    between atoms: C10_16  and  C11_18 
REMARK    9  A    between atoms: C11_18  and  C12_19 
REMARK   10  A    between atoms: C18_25  and  O5_27 
REMARK   11  A    between atoms: O5_27  and  C19_28 
REMARK   12  A    between atoms: N3_32  and  O6_34 
ROOT
HETATM    1  C8  UNL     1      49.853  52.545  18.241  1.00  0.00     0.277 C 
ENDROOT
BRANCH   1   2
HETATM    2  N1  UNL     1      50.278  53.946  18.257  1.00  0.00    -0.339 N 
HETATM    3  C7  UNL     1      50.231  54.740  19.435  1.00  0.00     0.224 C 
HETATM    4  O1  UNL     1      49.805  54.183  20.479  1.00  0.00    -0.273 OA
ATOM      5  H1  UNL     1      50.621  54.367  17.393  1.00  0.00     0.163 HD
BRANCH   3   6
HETATM    6  C5  UNL     1      50.677  56.135  19.360  1.00  0.00     0.099 C 
HETATM    7  C6  UNL     1      52.083  56.182  18.864  1.00  0.00     0.022 C 
BRANCH   6   8
HETATM    8  C4  UNL     1      50.436  56.888  20.650  1.00  0.00     0.124 C 
BRANCH   8   9
HETATM    9  C2  UNL     1      49.671  58.161  20.431  1.00  0.00     0.003 C 
HETATM   10  C1  UNL     1      48.675  58.304  21.576  1.00  0.00     0.011 C 
HETATM   11  C3  UNL     1      48.846  58.108  19.160  1.00  0.00     0.011 C 
ENDBRANCH   8   9
BRANCH   8  12
HETATM   12  N3  UNL     1      51.584  57.053  21.458  1.00  0.00    -0.295 N 
HETATM   13  C23 UNL     1      52.390  58.195  21.275  1.00  0.00     0.178 C 
BRANCH  12  14
HETATM   14  O6  UNL     1      51.567  56.520  22.670  1.00  0.00    -0.292 OA
ATOM     15  H6  UNL     1      52.387  56.194  23.022  1.00  0.00     0.244 HD
ENDBRANCH  12  14
ENDBRANCH   8  12
ENDBRANCH   6   8
ENDBRANCH   3   6
ENDBRANCH   1   2
BRANCH   1  16
HETATM   16  C9  UNL     1      49.150  52.206  17.003  1.00  0.00     0.257 C 
HETATM   17  O2  UNL     1      48.745  53.157  16.263  1.00  0.00    -0.270 OA
HETATM   18  N2  UNL     1      48.905  50.866  16.599  1.00  0.00    -0.295 N 
HETATM   19  C10 UNL     1      48.228  50.585  15.383  1.00  0.00     0.224 C 
ATOM     20  H2  UNL     1      49.219  50.097  17.191  1.00  0.00     0.171 HD
HETATM   21  O3  UNL     1      47.864  51.568  14.692  1.00  0.00    -0.273 OA
BRANCH  19  22
HETATM   22  C11 UNL     1      48.000  49.191  15.014  1.00  0.00     0.108 C 
BRANCH  22  23
HETATM   23  C12 UNL     1      46.627  48.672  15.221  1.00  0.00    -0.006 C 
HETATM   24  C13 UNL     1      46.003  48.081  13.991  1.00  0.00     0.005 C 
HETATM   25  C14 UNL     1      44.505  47.945  14.296  1.00  0.00     0.000 C 
HETATM   26  C15 UNL     1      44.295  47.058  15.505  1.00  0.00     0.000 C 
HETATM   27  C16 UNL     1      44.986  47.683  16.705  1.00  0.00     0.000 C 
HETATM   28  C17 UNL     1      46.481  47.702  16.352  1.00  0.00     0.005 C 
ENDBRANCH  22  23
ENDBRANCH  19  22
ENDBRANCH   1  16
BRANCH   1  29
HETATM   29  C18 UNL     1      51.029  51.656  18.496  1.00  0.00     0.292 C 
HETATM   30  O4  UNL     1      52.163  51.962  18.044  1.00  0.00    -0.262 OA
BRANCH  29  31
HETATM   31  O5  UNL     1      50.931  50.487  19.220  1.00  0.00    -0.309 OA
BRANCH  31  32
HETATM   32  C19 UNL     1      51.538  50.253  20.467  1.00  0.00     0.060 C 
HETATM   33  C20 UNL     1      51.568  51.460  21.348  1.00  0.00     0.045 C 
HETATM   34  C21 UNL     1      52.962  49.808  20.206  1.00  0.00     0.045 C 
HETATM   35  C22 UNL     1      50.804  49.157  21.242  1.00  0.00     0.045 C 
ENDBRANCH  31  32
ENDBRANCH  29  31
ENDBRANCH   1  29
TORSDOF 12
ENDMDL
MODEL 5
REMARK VINA RESULT: -8.007836777      3.302      8.365
REMARK  12 active torsions:
REMARK  status: ('A' for Active; 'I' for Inactive)
REMARK    1  A    between atoms: C2_2  and  C4_4 
REMARK    2  A    between atoms: C4_4  and  C5_5 
REMARK    3  A    between atoms: C4_4  and  N3_32 
REMARK    4  A    between atoms: C5_5  and  C7_7 
REMARK       I    between atoms: C7_7  and  N1_9 
REMARK    5  A    between atoms: N1_9  and  C8_11 
REMARK    6  A    between atoms: C8_11  and  C9_12 
REMARK    7  A    between atoms: C8_11  and  C18_25 
REMARK       I    between atoms: C9_12  and  N2_14 
REMARK       I    between atoms: N2_14  and  C10_16 
REMARK    8  A    between atoms: C10_16  and  C11_18 
REMARK    9  A    between atoms: C11_18  and  C12_19 
REMARK   10  A    between atoms: C18_25  and  O5_27 
REMARK   11  A    between atoms: O5_27  and  C19_28 
REMARK   12  A    between atoms: N3_32  and  O6_34 
ROOT
HETATM    1  C8  UNL     1      50.352  56.788  19.251  1.00  0.00     0.277 C 
ENDROOT
BRANCH   1   2
HETATM    2  N1  UNL     1      50.148  55.412  19.709  1.00  0.00    -0.339 N 
HETATM    3  C7  UNL     1      51.050  54.362  19.383  1.00  0.00     0.224 C 
HETATM    4  O1  UNL     1      52.045  54.666  18.676  1.00  0.00    -0.273 OA
ATOM      5  H1  UNL     1      49.331  55.199  20.281  1.00  0.00     0.163 HD
BRANCH   3   6
HETATM    6  C5  UNL     1      50.767  53.013  19.883  1.00  0.00     0.099 C 
HETATM    7  C6  UNL     1      50.930  52.988  21.366  1.00  0.00     0.022 C 
BRANCH   6   8
HETATM    8  C4  UNL     1      51.546  51.947  19.144  1.00  0.00     0.124 C 
BRANCH   8   9
HETATM    9  C2  UNL     1      50.729  51.287  18.072  1.00  0.00     0.003 C 
HETATM   10  C1  UNL     1      51.269  51.756  16.726  1.00  0.00     0.011 C 
HETATM   11  C3  UNL     1      49.279  51.726  18.119  1.00  0.00     0.011 C 
ENDBRANCH   8   9
BRANCH   8  12
HETATM   12  N3  UNL     1      52.226  51.031  19.978  1.00  0.00    -0.295 N 
HETATM   13  C23 UNL     1      51.698  49.735  20.144  1.00  0.00     0.178 C 
BRANCH  12  14
HETATM   14  O6  UNL     1      53.539  51.162  20.097  1.00  0.00    -0.292 OA
ATOM     15  H6  UNL     1      53.982  50.618  20.737  1.00  0.00     0.244 HD
ENDBRANCH  12  14
ENDBRANCH   8  12
ENDBRANCH   6   8
ENDBRANCH   3   6
ENDBRANCH   1   2
BRANCH   1  16
HETATM   16  C9  UNL     1      49.198  57.286  18.501  1.00  0.00     0.257 C 
HETATM   17  O2  UNL     1      48.696  56.538  17.605  1.00  0.00    -0.270 OA
HETATM   18  N2  UNL     1      48.622  58.564  18.736  1.00  0.00    -0.295 N 
HETATM   19  C10 UNL     1      47.495  59.000  17.991  1.00  0.00     0.224 C 
ATOM     20  H2  UNL     1      49.024  59.174  19.447  1.00  0.00     0.171 HD
HETATM   21  O3  UNL     1      47.040  58.211  17.128  1.00  0.00    -0.273 OA
BRANCH  19  22
HETATM   22  C11 UNL     1      46.942  60.322  18.269  1.00  0.00     0.108 C 
BRANCH  22  23
HETATM   23  C12 UNL     1      45.464  60.413  18.351  1.00  0.00    -0.006 C 
HETATM   24  C13 UNL     1      44.841  59.437  19.305  1.00  0.00     0.005 C 
HETATM   25  C14 UNL     1      43.340  59.426  18.986  1.00  0.00     0.000 C 
HETATM   26  C15 UNL     1      42.759  60.814  19.156  1.00  0.00     0.000 C 
HETATM   27  C16 UNL     1      43.458  61.765  18.200  1.00  0.00     0.000 C 
HETATM   28  C17 UNL     1      44.930  61.781  18.642  1.00  0.00     0.005 C 
ENDBRANCH  22  23
ENDBRANCH  19  22
ENDBRANCH   1  16
BRANCH   1  29
HETATM   29  C18 UNL     1      50.703  57.661  20.414  1.00  0.00     0.292 C 
HETATM   30  O4  UNL     1      49.828  57.959  21.268  1.00  0.00    -0.262 OA
BRANCH  29  31
HETATM   31  O5  UNL     1      51.970  58.170  20.602  1.00  0.00    -0.309 OA
BRANCH  31  32
HETATM   32  C19 UNL     1      53.042  57.477  21.192  1.00  0.00     0.060 C 
HETATM   33  C20 UNL     1      53.945  58.355  21.998  1.00  0.00     0.045 C 
HETATM   34  C21 UNL     1      53.849  56.847  20.077  1.00  0.00     0.045 C 
HETATM   35  C22 UNL     1      52.540  56.378  22.132  1.00  0.00     0.045 C 
ENDBRANCH  31  32
ENDBRANCH  29  31
ENDBRANCH   1  29
TORSDOF 12
ENDMDL
