MODEL 1
REMARK VINA RESULT: -6.241617274      0.000      0.000
REMARK  4 active torsions:
REMARK  status: ('A' for Active; 'I' for Inactive)
REMARK    1  A    between atoms: S1_2  and  C2_3 
REMARK    2  A    between atoms: C6_7  and  O1_8 
REMARK    3  A    between atoms: C6_7  and  O2_10 
REMARK    4  A    between atoms: C13_18  and  O3_19 
ROOT
HETATM    1  C2  UNL     1      38.824  15.480  28.868  1.00  0.00    -0.006 A 
HETATM    2  C3  UNL     1      39.037  15.840  30.116  1.00  0.00    -0.052 A 
HETATM    3  C4  UNL     1      39.406  16.595  31.325  1.00  0.00     0.042 C 
HETATM    4  C5  UNL     1      39.287  15.830  32.609  1.00  0.00     0.073 C 
HETATM    5  C6  UNL     1      37.945  15.697  33.210  1.00  0.00     0.169 C 
HETATM    6  C7  UNL     1      37.216  14.382  33.015  1.00  0.00     0.038 C 
HETATM    7  C8  UNL     1      37.303  13.528  34.265  1.00  0.00     0.024 C 
HETATM    8  C9  UNL     1      35.775  14.597  32.599  1.00  0.00     0.017 C 
HETATM    9  C10 UNL     1      35.228  13.704  31.537  1.00  0.00     0.002 C 
HETATM   10  C11 UNL     1      36.100  13.578  30.279  1.00  0.00     0.009 C 
HETATM   11  C12 UNL     1      37.329  14.308  30.653  1.00  0.00     0.033 C 
HETATM   12  C13 UNL     1      37.828  13.585  31.901  1.00  0.00     0.137 C 
HETATM   13  C14 UNL     1      38.471  14.467  29.779  1.00  0.00     0.020 A 
HETATM   14  C15 UNL     1      39.479  13.300  29.808  1.00  0.00     0.026 C 
ENDROOT
BRANCH   5  15
HETATM   15  O1  UNL     1      38.019  15.861  34.622  1.00  0.00    -0.365 OA
ATOM     16  H1  UNL     1      37.251  15.489  35.037  1.00  0.00     0.213 HD
ENDBRANCH   5  15
BRANCH   5  17
HETATM   17  O2  UNL     1      37.180  16.806  32.816  1.00  0.00    -0.365 OA
ATOM     18  H2  UNL     1      36.305  16.702  33.170  1.00  0.00     0.213 HD
ENDBRANCH   5  17
BRANCH  12  19
HETATM   19  O3  UNL     1      37.288  12.277  31.991  1.00  0.00    -0.394 OA
ATOM     20  H3  UNL     1      37.269  12.051  32.914  1.00  0.00     0.210 HD
ENDBRANCH  12  19
BRANCH   1  21
HETATM   21  S1  UNL     1      38.942  16.033  27.147  1.00  0.00    -0.137 SA
HETATM   22  C1  UNL     1      40.617  15.862  26.548  1.00  0.00     0.095 C 
ENDBRANCH   1  21
TORSDOF 4
ENDMDL
MODEL 2
REMARK VINA RESULT: -5.400764004     10.600     12.367
REMARK  4 active torsions:
REMARK  status: ('A' for Active; 'I' for Inactive)
REMARK    1  A    between atoms: S1_2  and  C2_3 
REMARK    2  A    between atoms: C6_7  and  O1_8 
REMARK    3  A    between atoms: C6_7  and  O2_10 
REMARK    4  A    between atoms: C13_18  and  O3_19 
ROOT
HETATM    1  C2  UNL     1      44.008  23.511  25.081  1.00  0.00    -0.006 A 
HETATM    2  C3  UNL     1      43.432  22.643  24.276  1.00  0.00    -0.052 A 
HETATM    3  C4  UNL     1      42.615  22.021  23.221  1.00  0.00     0.042 C 
HETATM    4  C5  UNL     1      42.641  20.521  23.204  1.00  0.00     0.073 C 
HETATM    5  C6  UNL     1      43.800  19.860  22.571  1.00  0.00     0.169 C 
HETATM    6  C7  UNL     1      44.876  19.306  23.484  1.00  0.00     0.038 C 
HETATM    7  C8  UNL     1      44.740  17.802  23.625  1.00  0.00     0.024 C 
HETATM    8  C9  UNL     1      46.264  19.687  23.011  1.00  0.00     0.017 C 
HETATM    9  C10 UNL     1      47.251  20.102  24.048  1.00  0.00     0.002 C 
HETATM   10  C11 UNL     1      46.750  21.164  25.038  1.00  0.00     0.009 C 
HETATM   11  C12 UNL     1      45.320  21.293  24.689  1.00  0.00     0.033 C 
HETATM   12  C13 UNL     1      44.763  19.882  24.865  1.00  0.00     0.137 C 
HETATM   13  C14 UNL     1      44.402  22.189  25.359  1.00  0.00     0.020 A 
HETATM   14  C15 UNL     1      43.760  21.622  26.641  1.00  0.00     0.026 C 
ENDROOT
BRANCH   5  15
HETATM   15  O1  UNL     1      43.369  18.742  21.802  1.00  0.00    -0.365 OA
ATOM     16  H1  UNL     1      42.873  19.033  21.047  1.00  0.00     0.213 HD
ENDBRANCH   5  15
BRANCH   5  17
HETATM   17  O2  UNL     1      44.312  20.724  21.590  1.00  0.00    -0.365 OA
ATOM     18  H2  UNL     1      45.227  20.509  21.458  1.00  0.00     0.213 HD
ENDBRANCH   5  17
BRANCH  12  19
HETATM   19  O3  UNL     1      45.595  19.100  25.703  1.00  0.00    -0.394 OA
ATOM     20  H3  UNL     1      45.957  19.689  26.356  1.00  0.00     0.210 HD
ENDBRANCH  12  19
BRANCH   1  21
HETATM   21  S1  UNL     1      44.137  25.274  25.476  1.00  0.00    -0.137 SA
HETATM   22  C1  UNL     1      45.560  25.582  26.512  1.00  0.00     0.095 C 
ENDBRANCH   1  21
TORSDOF 4
ENDMDL
MODEL 3
REMARK VINA RESULT: -5.222743774      2.779      5.145
REMARK  4 active torsions:
REMARK  status: ('A' for Active; 'I' for Inactive)
REMARK    1  A    between atoms: S1_2  and  C2_3 
REMARK    2  A    between atoms: C6_7  and  O1_8 
REMARK    3  A    between atoms: C6_7  and  O2_10 
REMARK    4  A    between atoms: C13_18  and  O3_19 
ROOT
HETATM    1  C2  UNL     1      39.837  17.103  25.411  1.00  0.00    -0.006 A 
HETATM    2  C3  UNL     1      39.371  16.038  26.029  1.00  0.00    -0.052 A 
HETATM    3  C4  UNL     1      38.954  14.664  26.357  1.00  0.00     0.042 C 
HETATM    4  C5  UNL     1      38.287  14.508  27.691  1.00  0.00     0.073 C 
HETATM    5  C6  UNL     1      39.149  14.436  28.888  1.00  0.00     0.169 C 
HETATM    6  C7  UNL     1      39.283  15.687  29.733  1.00  0.00     0.038 C 
HETATM    7  C8  UNL     1      38.418  15.593  30.975  1.00  0.00     0.024 C 
HETATM    8  C9  UNL     1      40.728  15.969  30.092  1.00  0.00     0.017 C 
HETATM    9  C10 UNL     1      41.186  17.386  30.026  1.00  0.00     0.002 C 
HETATM   10  C11 UNL     1      40.841  18.123  28.724  1.00  0.00     0.009 C 
HETATM   11  C12 UNL     1      39.981  17.155  28.013  1.00  0.00     0.033 C 
HETATM   12  C13 UNL     1      38.826  16.901  28.978  1.00  0.00     0.137 C 
HETATM   13  C14 UNL     1      39.393  17.398  26.713  1.00  0.00     0.020 A 
HETATM   14  C15 UNL     1      38.051  18.158  26.740  1.00  0.00     0.026 C 
ENDROOT
BRANCH   5  15
HETATM   15  O1  UNL     1      38.662  13.445  29.787  1.00  0.00    -0.365 OA
ATOM     16  H1  UNL     1      38.653  13.783  30.674  1.00  0.00     0.213 HD
ENDBRANCH   5  15
BRANCH   5  17
HETATM   17  O2  UNL     1      40.390  13.908  28.498  1.00  0.00    -0.365 OA
ATOM     18  H2  UNL     1      40.610  13.202  29.094  1.00  0.00     0.213 HD
ENDBRANCH   5  17
BRANCH  12  19
HETATM   19  O3  UNL     1      38.704  17.949  29.924  1.00  0.00    -0.394 OA
ATOM     20  H3  UNL     1      39.496  17.936  30.450  1.00  0.00     0.210 HD
ENDBRANCH  12  19
BRANCH   1  21
HETATM   21  S1  UNL     1      40.568  17.689  23.861  1.00  0.00    -0.137 SA
HETATM   22  C1  UNL     1      42.243  17.090  23.693  1.00  0.00     0.095 C 
ENDBRANCH   1  21
TORSDOF 4
ENDMDL
MODEL 4
REMARK VINA RESULT: -5.178102669      5.265      7.824
REMARK  4 active torsions:
REMARK  status: ('A' for Active; 'I' for Inactive)
REMARK    1  A    between atoms: S1_2  and  C2_3 
REMARK    2  A    between atoms: C6_7  and  O1_8 
REMARK    3  A    between atoms: C6_7  and  O2_10 
REMARK    4  A    between atoms: C13_18  and  O3_19 
ROOT
HETATM    1  C2  UNL     1      38.624  15.083  27.048  1.00  0.00    -0.006 A 
HETATM    2  C3  UNL     1      39.120  14.516  25.968  1.00  0.00    -0.052 A 
HETATM    3  C4  UNL     1      40.015  13.855  25.003  1.00  0.00     0.042 C 
HETATM    4  C5  UNL     1      39.438  13.668  23.632  1.00  0.00     0.073 C 
HETATM    5  C6  UNL     1      38.518  12.532  23.421  1.00  0.00     0.169 C 
HETATM    6  C7  UNL     1      37.032  12.829  23.391  1.00  0.00     0.038 C 
HETATM    7  C8  UNL     1      36.517  12.853  21.965  1.00  0.00     0.024 C 
HETATM    8  C9  UNL     1      36.247  11.849  24.239  1.00  0.00     0.017 C 
HETATM    9  C10 UNL     1      35.143  12.399  25.077  1.00  0.00     0.002 C 
HETATM   10  C11 UNL     1      35.520  13.616  25.935  1.00  0.00     0.009 C 
HETATM   11  C12 UNL     1      36.889  13.931  25.479  1.00  0.00     0.033 C 
HETATM   12  C13 UNL     1      36.738  14.177  23.980  1.00  0.00     0.137 C 
HETATM   13  C14 UNL     1      37.684  15.022  26.002  1.00  0.00     0.020 A 
HETATM   14  C15 UNL     1      37.436  16.387  25.329  1.00  0.00     0.026 C 
ENDROOT
BRANCH   5  15
HETATM   15  O1  UNL     1      38.786  11.908  22.169  1.00  0.00    -0.365 OA
ATOM     16  H1  UNL     1      38.214  11.160  22.046  1.00  0.00     0.213 HD
ENDBRANCH   5  15
BRANCH   5  17
HETATM   17  O2  UNL     1      38.852  11.525  24.339  1.00  0.00    -0.365 OA
ATOM     18  H2  UNL     1      38.388  11.700  25.149  1.00  0.00     0.213 HD
ENDBRANCH   5  17
BRANCH  12  19
HETATM   19  O3  UNL     1      35.397  14.488  23.641  1.00  0.00    -0.394 OA
ATOM     20  H3  UNL     1      35.030  14.959  24.381  1.00  0.00     0.210 HD
ENDBRANCH  12  19
BRANCH   1  21
HETATM   21  S1  UNL     1      39.009  15.570  28.749  1.00  0.00    -0.137 SA
HETATM   22  C1  UNL     1      38.435  14.330  29.901  1.00  0.00     0.095 C 
ENDBRANCH   1  21
TORSDOF 4
ENDMDL
MODEL 5
REMARK VINA RESULT: -5.173945184      4.402      6.382
REMARK  4 active torsions:
REMARK  status: ('A' for Active; 'I' for Inactive)
REMARK    1  A    between atoms: S1_2  and  C2_3 
REMARK    2  A    between atoms: C6_7  and  O1_8 
REMARK    3  A    between atoms: C6_7  and  O2_10 
REMARK    4  A    between atoms: C13_18  and  O3_19 
ROOT
HETATM    1  C2  UNL     1      37.458  14.012  25.166  1.00  0.00    -0.006 A 
HETATM    2  C3  UNL     1      37.704  15.276  24.895  1.00  0.00    -0.052 A 
HETATM    3  C4  UNL     1      37.622  16.651  24.375  1.00  0.00     0.042 C 
HETATM    4  C5  UNL     1      38.797  17.523  24.705  1.00  0.00     0.073 C 
HETATM    5  C6  UNL     1      38.848  18.130  26.050  1.00  0.00     0.169 C 
HETATM    6  C7  UNL     1      39.757  17.484  27.077  1.00  0.00     0.038 C 
HETATM    7  C8  UNL     1      41.044  18.271  27.228  1.00  0.00     0.024 C 
HETATM    8  C9  UNL     1      39.061  17.312  28.412  1.00  0.00     0.017 C 
HETATM    9  C10 UNL     1      39.283  16.031  29.141  1.00  0.00     0.002 C 
HETATM   10  C11 UNL     1      39.080  14.760  28.303  1.00  0.00     0.009 C 
HETATM   11  C12 UNL     1      38.877  15.292  26.939  1.00  0.00     0.033 C 
HETATM   12  C13 UNL     1      40.144  16.095  26.659  1.00  0.00     0.137 C 
HETATM   13  C14 UNL     1      38.643  14.463  25.776  1.00  0.00     0.020 A 
HETATM   14  C15 UNL     1      39.919  13.935  25.088  1.00  0.00     0.026 C 
ENDROOT
BRANCH   5  15
HETATM   15  O1  UNL     1      39.302  19.477  25.965  1.00  0.00    -0.365 OA
ATOM     16  H1  UNL     1      40.153  19.511  25.545  1.00  0.00     0.213 HD
ENDBRANCH   5  15
BRANCH   5  17
HETATM   17  O2  UNL     1      37.531  18.282  26.509  1.00  0.00    -0.365 OA
ATOM     18  H2  UNL     1      37.413  19.187  26.772  1.00  0.00     0.213 HD
ENDBRANCH   5  17
BRANCH  12  19
HETATM   19  O3  UNL     1      41.207  15.695  27.506  1.00  0.00    -0.394 OA
ATOM     20  H3  UNL     1      41.952  15.514  26.945  1.00  0.00     0.210 HD
ENDBRANCH  12  19
BRANCH   1  21
HETATM   21  S1  UNL     1      36.290  12.657  24.881  1.00  0.00    -0.137 SA
HETATM   22  C1  UNL     1      37.120  11.262  24.131  1.00  0.00     0.095 C 
ENDBRANCH   1  21
TORSDOF 4
ENDMDL
