MODEL 1
REMARK VINA RESULT: -6.052395906      0.000      0.000
REMARK  3 active torsions:
REMARK  status: ('A' for Active; 'I' for Inactive)
REMARK    1  A    between atoms: C2_2  and  O1_3 
REMARK    2  A    between atoms: C4_6  and  C5_7 
REMARK    3  A    between atoms: C5_7  and  N1_8 
ROOT
HETATM    1  C1  UNL     1      39.092  14.821  26.574  1.00  0.00     0.051 C 
HETATM    2  C2  UNL     1      39.392  14.983  28.085  1.00  0.00     0.083 C 
HETATM    3  C3  UNL     1      38.237  14.422  28.750  1.00  0.00     0.028 C 
HETATM    4  C4  UNL     1      37.989  14.599  30.173  1.00  0.00     0.003 C 
HETATM    5  C6  UNL     1      38.427  15.268  31.409  1.00  0.00     0.049 C 
HETATM    6  C7  UNL     1      38.735  16.703  31.314  1.00  0.00     0.020 C 
HETATM    7  C8  UNL     1      39.875  17.271  30.677  1.00  0.00     0.025 C 
HETATM    8  C9  UNL     1      39.750  18.816  30.749  1.00  0.00     0.022 C 
HETATM    9  C10 UNL     1      41.282  16.984  31.222  1.00  0.00     0.106 C 
HETATM   10  C11 UNL     1      41.485  16.757  32.606  1.00  0.00     0.050 C 
HETATM   11  C12 UNL     1      41.363  15.870  30.202  1.00  0.00     0.084 C 
HETATM   12  C13 UNL     1      40.483  16.799  29.451  1.00  0.00     0.119 C 
HETATM   13  O2  UNL     1      41.453  17.842  29.290  1.00  0.00    -0.227 OA
HETATM   14  O3  UNL     1      41.990  17.969  30.513  1.00  0.00    -0.228 OA
HETATM   15  C14 UNL     1      39.738  16.407  28.289  1.00  0.00     0.022 C 
HETATM   16  C15 UNL     1      40.680  16.776  27.116  1.00  0.00     0.021 C 
HETATM   17  C16 UNL     1      38.495  17.229  28.026  1.00  0.00     0.021 C 
ENDROOT
BRANCH   4  18
HETATM   18  C5  UNL     1      36.928  13.833  30.439  1.00  0.00    -0.042 C 
BRANCH  18  19
HETATM   19  N1  UNL     1      36.009  12.955  30.611  1.00  0.00    -0.365 N 
ATOM     20  H12 UNL     1      35.374  13.613  30.157  1.00  0.00     0.165 HD
ATOM     21  H11 UNL     1      35.387  12.172  30.813  1.00  0.00     0.165 HD
ENDBRANCH  18  19
ENDBRANCH   4  18
BRANCH   2  22
HETATM   22  O1  UNL     1      40.497  14.114  28.258  1.00  0.00    -0.385 OA
ATOM     23  H1  UNL     1      41.121  14.464  27.632  1.00  0.00     0.211 HD
ENDBRANCH   2  22
TORSDOF 3
ENDMDL
MODEL 2
REMARK VINA RESULT: -5.976884920      7.516      9.197
REMARK  3 active torsions:
REMARK  status: ('A' for Active; 'I' for Inactive)
REMARK    1  A    between atoms: C2_2  and  O1_3 
REMARK    2  A    between atoms: C4_6  and  C5_7 
REMARK    3  A    between atoms: C5_7  and  N1_8 
ROOT
HETATM    1  C1  UNL     1      45.312  18.778  23.657  1.00  0.00     0.051 C 
HETATM    2  C2  UNL     1      45.227  19.991  24.617  1.00  0.00     0.083 C 
HETATM    3  C3  UNL     1      44.208  19.627  25.576  1.00  0.00     0.028 C 
HETATM    4  C4  UNL     1      43.630  20.586  26.507  1.00  0.00     0.003 C 
HETATM    5  C6  UNL     1      43.563  22.000  26.910  1.00  0.00     0.049 C 
HETATM    6  C7  UNL     1      43.398  22.989  25.833  1.00  0.00     0.020 C 
HETATM    7  C8  UNL     1      44.395  23.371  24.890  1.00  0.00     0.025 C 
HETATM    8  C9  UNL     1      43.760  24.377  23.896  1.00  0.00     0.022 C 
HETATM    9  C10 UNL     1      45.676  24.071  25.367  1.00  0.00     0.106 C 
HETATM   10  C11 UNL     1      45.654  24.910  26.509  1.00  0.00     0.050 C 
HETATM   11  C12 UNL     1      46.322  22.703  25.383  1.00  0.00     0.084 C 
HETATM   12  C13 UNL     1      45.360  22.485  24.275  1.00  0.00     0.119 C 
HETATM   13  O2  UNL     1      45.948  23.424  23.365  1.00  0.00    -0.227 OA
HETATM   14  O3  UNL     1      46.152  24.513  24.122  1.00  0.00    -0.228 OA
HETATM   15  C14 UNL     1      45.039  21.184  23.762  1.00  0.00     0.022 C 
HETATM   16  C15 UNL     1      46.028  21.007  22.582  1.00  0.00     0.021 C 
HETATM   17  C16 UNL     1      43.678  21.079  23.110  1.00  0.00     0.021 C 
ENDROOT
BRANCH   4  18
HETATM   18  C5  UNL     1      42.847  19.862  27.310  1.00  0.00    -0.042 C 
BRANCH  18  19
HETATM   19  N1  UNL     1      42.119  19.024  27.954  1.00  0.00    -0.365 N 
ATOM     20  H12 UNL     1      42.493  18.307  27.332  1.00  0.00     0.165 HD
ATOM     21  H11 UNL     1      41.496  18.479  28.549  1.00  0.00     0.165 HD
ENDBRANCH  18  19
ENDBRANCH   4  18
BRANCH   2  22
HETATM   22  O1  UNL     1      46.495  19.953  25.246  1.00  0.00    -0.385 OA
ATOM     23  H1  UNL     1      46.600  20.855  25.528  1.00  0.00     0.211 HD
ENDBRANCH   2  22
TORSDOF 3
ENDMDL
MODEL 3
REMARK VINA RESULT: -5.648373105      2.884      5.232
REMARK  3 active torsions:
REMARK  status: ('A' for Active; 'I' for Inactive)
REMARK    1  A    between atoms: C2_2  and  O1_3 
REMARK    2  A    between atoms: C4_6  and  C5_7 
REMARK    3  A    between atoms: C5_7  and  N1_8 
ROOT
HETATM    1  C1  UNL     1      40.174  17.323  32.084  1.00  0.00     0.051 C 
HETATM    2  C2  UNL     1      40.634  17.198  30.609  1.00  0.00     0.083 C 
HETATM    3  C3  UNL     1      41.156  18.505  30.277  1.00  0.00     0.028 C 
HETATM    4  C4  UNL     1      41.461  18.902  28.910  1.00  0.00     0.003 C 
HETATM    5  C6  UNL     1      41.387  18.525  27.489  1.00  0.00     0.049 C 
HETATM    6  C7  UNL     1      40.107  17.978  27.013  1.00  0.00     0.020 C 
HETATM    7  C8  UNL     1      39.585  16.688  27.318  1.00  0.00     0.025 C 
HETATM    8  C9  UNL     1      38.180  16.570  26.673  1.00  0.00     0.022 C 
HETATM    9  C10 UNL     1      40.324  15.428  26.843  1.00  0.00     0.106 C 
HETATM   10  C11 UNL     1      41.072  15.445  25.640  1.00  0.00     0.050 C 
HETATM   11  C12 UNL     1      40.985  15.399  28.203  1.00  0.00     0.084 C 
HETATM   12  C13 UNL     1      39.692  16.013  28.594  1.00  0.00     0.119 C 
HETATM   13  O2  UNL     1      38.876  14.874  28.290  1.00  0.00    -0.227 OA
HETATM   14  O3  UNL     1      39.311  14.485  27.082  1.00  0.00    -0.228 OA
HETATM   15  C14 UNL     1      39.480  16.655  29.860  1.00  0.00     0.022 C 
HETATM   16  C15 UNL     1      38.906  15.522  30.748  1.00  0.00     0.021 C 
HETATM   17  C16 UNL     1      38.389  17.704  29.863  1.00  0.00     0.021 C 
ENDROOT
BRANCH   4  18
HETATM   18  C5  UNL     1      42.044  20.099  29.017  1.00  0.00    -0.042 C 
BRANCH  18  19
HETATM   19  N1  UNL     1      42.458  21.313  29.011  1.00  0.00    -0.365 N 
ATOM     20  H12 UNL     1      41.897  21.441  28.169  1.00  0.00     0.165 HD
ATOM     21  H11 UNL     1      42.866  22.240  29.133  1.00  0.00     0.165 HD
ENDBRANCH  18  19
ENDBRANCH   4  18
BRANCH   2  22
HETATM   22  O1  UNL     1      41.707  16.281  30.716  1.00  0.00    -0.385 OA
ATOM     23  H1  UNL     1      41.794  16.189  31.658  1.00  0.00     0.211 HD
ENDBRANCH   2  22
TORSDOF 3
ENDMDL
MODEL 4
REMARK VINA RESULT: -5.575345843      1.729      3.956
REMARK  3 active torsions:
REMARK  status: ('A' for Active; 'I' for Inactive)
REMARK    1  A    between atoms: C2_2  and  O1_3 
REMARK    2  A    between atoms: C4_6  and  C5_7 
REMARK    3  A    between atoms: C5_7  and  N1_8 
ROOT
HETATM    1  C1  UNL     1      38.805  17.430  33.890  1.00  0.00     0.051 C 
HETATM    2  C2  UNL     1      38.483  16.879  32.478  1.00  0.00     0.083 C 
HETATM    3  C3  UNL     1      37.945  15.558  32.716  1.00  0.00     0.028 C 
HETATM    4  C4  UNL     1      37.749  14.588  31.648  1.00  0.00     0.003 C 
HETATM    5  C6  UNL     1      37.962  14.291  30.222  1.00  0.00     0.049 C 
HETATM    6  C7  UNL     1      39.298  14.576  29.677  1.00  0.00     0.020 C 
HETATM    7  C8  UNL     1      39.837  15.870  29.423  1.00  0.00     0.025 C 
HETATM    8  C9  UNL     1      41.297  15.697  28.930  1.00  0.00     0.022 C 
HETATM    9  C10 UNL     1      39.190  16.778  28.367  1.00  0.00     0.106 C 
HETATM   10  C11 UNL     1      38.550  16.219  27.232  1.00  0.00     0.050 C 
HETATM   11  C12 UNL     1      38.412  17.408  29.502  1.00  0.00     0.084 C 
HETATM   12  C13 UNL     1      39.642  17.044  30.246  1.00  0.00     0.119 C 
HETATM   13  O2  UNL     1      40.523  17.933  29.546  1.00  0.00    -0.227 OA
HETATM   14  O3  UNL     1      40.211  17.736  28.255  1.00  0.00    -0.228 OA
HETATM   15  C14 UNL     1      39.718  17.038  31.679  1.00  0.00     0.022 C 
HETATM   16  C15 UNL     1      40.252  18.452  32.019  1.00  0.00     0.021 C 
HETATM   17  C16 UNL     1      40.766  16.110  32.254  1.00  0.00     0.021 C 
ENDROOT
BRANCH   4  18
HETATM   18  C5  UNL     1      37.116  13.562  32.221  1.00  0.00    -0.042 C 
BRANCH  18  19
HETATM   19  N1  UNL     1      36.365  12.613  32.647  1.00  0.00    -0.365 N 
ATOM     20  H12 UNL     1      35.894  12.656  31.743  1.00  0.00     0.165 HD
ATOM     21  H11 UNL     1      35.850  11.868  33.116  1.00  0.00     0.165 HD
ENDBRANCH  18  19
ENDBRANCH   4  18
BRANCH   2  22
HETATM   22  O1  UNL     1      37.438  17.739  32.062  1.00  0.00    -0.385 OA
ATOM     23  H1  UNL     1      36.826  17.669  32.785  1.00  0.00     0.211 HD
ENDBRANCH   2  22
TORSDOF 3
ENDMDL
MODEL 5
REMARK VINA RESULT: -5.467341474      7.574      9.833
REMARK  3 active torsions:
REMARK  status: ('A' for Active; 'I' for Inactive)
REMARK    1  A    between atoms: C2_2  and  O1_3 
REMARK    2  A    between atoms: C4_6  and  C5_7 
REMARK    3  A    between atoms: C5_7  and  N1_8 
ROOT
HETATM    1  C1  UNL     1      44.539  24.447  26.307  1.00  0.00     0.051 C 
HETATM    2  C2  UNL     1      44.288  23.074  25.634  1.00  0.00     0.083 C 
HETATM    3  C3  UNL     1      43.928  22.193  26.723  1.00  0.00     0.028 C 
HETATM    4  C4  UNL     1      43.858  20.747  26.570  1.00  0.00     0.003 C 
HETATM    5  C6  UNL     1      44.106  19.606  25.674  1.00  0.00     0.049 C 
HETATM    6  C7  UNL     1      45.393  19.589  24.961  1.00  0.00     0.020 C 
HETATM    7  C8  UNL     1      45.758  20.438  23.878  1.00  0.00     0.025 C 
HETATM    8  C9  UNL     1      47.227  20.126  23.493  1.00  0.00     0.022 C 
HETATM    9  C10 UNL     1      44.996  20.357  22.546  1.00  0.00     0.106 C 
HETATM   10  C11 UNL     1      44.433  19.130  22.114  1.00  0.00     0.050 C 
HETATM   11  C12 UNL     1      44.145  21.499  23.056  1.00  0.00     0.084 C 
HETATM   12  C13 UNL     1      45.413  21.838  23.747  1.00  0.00     0.119 C 
HETATM   13  O2  UNL     1      46.169  22.124  22.563  1.00  0.00    -0.227 OA
HETATM   14  O3  UNL     1      45.883  21.097  21.748  1.00  0.00    -0.228 OA
HETATM   15  C14 UNL     1      45.491  22.785  24.822  1.00  0.00     0.022 C 
HETATM   16  C15 UNL     1      45.837  24.116  24.107  1.00  0.00     0.021 C 
HETATM   17  C16 UNL     1      46.652  22.574  25.769  1.00  0.00     0.021 C 
ENDROOT
BRANCH   4  18
HETATM   18  C5  UNL     1      43.365  20.299  27.727  1.00  0.00    -0.042 C 
BRANCH  18  19
HETATM   19  N1  UNL     1      42.879  20.054  28.888  1.00  0.00    -0.365 N 
ATOM     20  H12 UNL     1      43.784  19.645  29.119  1.00  0.00     0.165 HD
ATOM     21  H11 UNL     1      42.363  19.925  29.759  1.00  0.00     0.165 HD
ENDBRANCH  18  19
ENDBRANCH   4  18
BRANCH   2  22
HETATM   22  O1  UNL     1      43.140  23.339  24.849  1.00  0.00    -0.385 OA
ATOM     23  H1  UNL     1      42.465  22.871  25.326  1.00  0.00     0.211 HD
ENDBRANCH   2  22
TORSDOF 3
ENDMDL
