MODEL 1
REMARK VINA RESULT: -9.295933025      0.000      0.000
REMARK  16 active torsions:
REMARK  status: ('A' for Active; 'I' for Inactive)
REMARK    1  A    between atoms: N1_1  and  C1_5 
REMARK    2  A    between atoms: C4_8  and  N2_9 
REMARK    3  A    between atoms: N3_12  and  C7_13 
REMARK    4  A    between atoms: N6_21  and  C11_22 
REMARK    5  A    between atoms: C11_22  and  C12_23 
REMARK    6  A    between atoms: C12_23  and  O1_24 
REMARK    7  A    between atoms: C12_23  and  C13_26 
REMARK    8  A    between atoms: C13_26  and  C14_27 
REMARK    9  A    between atoms: C14_27  and  O2_28 
REMARK   10  A    between atoms: C15_30  and  N7_31 
REMARK   11  A    between atoms: N7_31  and  C16_33 
REMARK   12  A    between atoms: C18_35  and  N8_36 
REMARK   13  A    between atoms: C19_40  and  O3_41 
REMARK   14  A    between atoms: C20_43  and  O4_44 
REMARK   15  A    between atoms: C20_43  and  C21_46 
REMARK   16  A    between atoms: C21_46  and  O5_47 
ROOT
HETATM    1  C7  UNL     1      20.182  40.727  97.274  1.00  0.00     0.683 A 
HETATM    2  N4  UNL     1      19.541  41.506  98.172  1.00  0.00    -0.174 N 
ATOM      3  H4  UNL     1      19.666  42.518  98.130  1.00  0.00     0.186 HD
HETATM    4  C8  UNL     1      18.747  40.989  99.116  1.00  0.00     0.155 A 
HETATM    5  C9  UNL     1      18.598  39.620  99.150  1.00  0.00     0.123 A 
HETATM    6  N5  UNL     1      17.771  39.344 100.165  1.00  0.00    -0.346 N 
ATOM      7  H5  UNL     1      17.459  38.417 100.451  1.00  0.00     0.167 HD
HETATM    8  C10 UNL     1      17.423  40.511 100.739  1.00  0.00     0.185 A 
HETATM    9  N6  UNL     1      18.011  41.542 100.112  1.00  0.00    -0.324 N 
HETATM   10  C15 UNL     1      19.241  38.803  98.243  1.00  0.00     0.148 A 
HETATM   11  N9  UNL     1      20.029  39.407  97.316  1.00  0.00    -0.174 N 
ATOM     12  H9  UNL     1      20.518  38.830  96.631  1.00  0.00     0.186 HD
ENDROOT
BRANCH  10  13
HETATM   13  N7  UNL     1      19.108  37.521  98.269  1.00  0.00    -0.369 N 
ATOM     14  H7  UNL     1      19.868  36.973  98.671  1.00  0.00     0.161 HD
BRANCH  13  15
HETATM   15  C16 UNL     1      17.965  36.812  97.771  1.00  0.00     0.088 C 
HETATM   16  C17 UNL     1      18.061  36.462  96.322  1.00  0.00     0.060 C 
HETATM   17  C18 UNL     1      18.626  35.109  96.017  1.00  0.00     0.217 C 
HETATM   18  C19 UNL     1      18.157  34.009  96.910  1.00  0.00     0.185 C 
HETATM   19  C20 UNL     1      18.493  34.407  98.333  1.00  0.00     0.108 C 
HETATM   20  C22 UNL     1      17.698  35.625  98.662  1.00  0.00     0.068 C 
BRANCH  17  21
HETATM   21  N8  UNL     1      18.239  34.772  94.652  1.00  0.00    -0.072 N 
ATOM     22  H83 UNL     1      18.354  33.781  94.438  1.00  0.00     0.274 HD
ATOM     23  H82 UNL     1      17.231  34.825  94.499  1.00  0.00     0.274 HD
ATOM     24  H81 UNL     1      18.769  35.378  94.027  1.00  0.00     0.274 HD
ENDBRANCH  17  21
BRANCH  18  25
HETATM   25  O3  UNL     1      18.882  32.859  96.594  1.00  0.00    -0.390 OA
ATOM     26  H3  UNL     1      19.259  32.520  97.397  1.00  0.00     0.210 HD
ENDBRANCH  18  25
BRANCH  19  27
HETATM   27  O4  UNL     1      18.041  33.392  99.209  1.00  0.00    -0.385 OA
ATOM     28  H4  UNL     1      18.528  33.451 100.024  1.00  0.00     0.210 HD
ENDBRANCH  19  27
BRANCH  19  29
HETATM   29  C21 UNL     1      19.962  34.545  98.561  1.00  0.00     0.204 C 
BRANCH  29  30
HETATM   30  O5  UNL     1      20.402  33.345  99.156  1.00  0.00    -0.398 OA
ATOM     31  H5  UNL     1      21.231  33.532  99.580  1.00  0.00     0.209 HD
ENDBRANCH  29  30
ENDBRANCH  19  29
ENDBRANCH  13  15
ENDBRANCH  10  13
BRANCH   1  32
HETATM   32  N3  UNL     1      21.017  41.384  96.286  1.00  0.00    -0.214 N 
HETATM   33  C6  UNL     1      21.431  40.668  95.105  1.00  0.00     0.171 C 
HETATM   34  C5  UNL     1      22.766  41.242  94.653  1.00  0.00     0.293 C 
HETATM   35  N2  UNL     1      22.617  42.654  94.515  1.00  0.00     0.096 N 
HETATM   36  C24 UNL     1      22.624  43.226  95.846  1.00  0.00     0.293 C 
HETATM   37  C23 UNL     1      21.388  42.764  96.536  1.00  0.00     0.171 C 
BRANCH  35  38
HETATM   38  C4  UNL     1      23.632  43.250  93.667  1.00  0.00     0.225 C 
HETATM   39  C3  UNL     1      24.614  43.959  94.595  1.00  0.00     0.038 C 
HETATM   40  C2  UNL     1      25.963  43.839  93.919  1.00  0.00     0.035 C 
HETATM   41  C1  UNL     1      25.875  42.704  92.948  1.00  0.00     0.185 C 
HETATM   42  C25 UNL     1      24.504  42.133  93.138  1.00  0.00     0.068 C 
BRANCH  41  43
HETATM   43  N1  UNL     1      26.846  41.654  93.213  1.00  0.00    -0.075 N 
ATOM     44  H13 UNL     1      26.911  41.010  92.425  1.00  0.00     0.274 HD
ATOM     45  H12 UNL     1      27.796  42.026  93.202  1.00  0.00     0.274 HD
ATOM     46  H11 UNL     1      26.661  41.151  94.080  1.00  0.00     0.274 HD
ENDBRANCH  41  43
ENDBRANCH  35  38
ENDBRANCH   1  32
BRANCH   9  47
HETATM   47  C11 UNL     1      17.936  42.951 100.367  1.00  0.00     0.163 C 
BRANCH  47  48
HETATM   48  C12 UNL     1      17.032  43.256 101.550  1.00  0.00     0.138 C 
BRANCH  48  49
HETATM   49  O1  UNL     1      16.126  44.240 101.177  1.00  0.00    -0.394 OA
ATOM     50  H1  UNL     1      15.912  44.763 101.940  1.00  0.00     0.210 HD
ENDBRANCH  48  49
BRANCH  48  51
HETATM   51  C13 UNL     1      17.914  43.687 102.683  1.00  0.00     0.059 C 
BRANCH  51  52
HETATM   52  C14 UNL     1      18.519  45.057 102.443  1.00  0.00     0.166 C 
BRANCH  52  53
HETATM   53  O2  UNL     1      17.608  46.069 102.702  1.00  0.00    -0.401 OA
ATOM     54  H2  UNL     1      17.070  46.257 101.942  1.00  0.00     0.209 HD
ENDBRANCH  52  53
ENDBRANCH  51  52
ENDBRANCH  48  51
ENDBRANCH  47  48
ENDBRANCH   9  47
TORSDOF 16
ENDMDL
MODEL 2
REMARK VINA RESULT: -9.237877066      6.172     10.059
REMARK  16 active torsions:
REMARK  status: ('A' for Active; 'I' for Inactive)
REMARK    1  A    between atoms: N1_1  and  C1_5 
REMARK    2  A    between atoms: C4_8  and  N2_9 
REMARK    3  A    between atoms: N3_12  and  C7_13 
REMARK    4  A    between atoms: N6_21  and  C11_22 
REMARK    5  A    between atoms: C11_22  and  C12_23 
REMARK    6  A    between atoms: C12_23  and  O1_24 
REMARK    7  A    between atoms: C12_23  and  C13_26 
REMARK    8  A    between atoms: C13_26  and  C14_27 
REMARK    9  A    between atoms: C14_27  and  O2_28 
REMARK   10  A    between atoms: C15_30  and  N7_31 
REMARK   11  A    between atoms: N7_31  and  C16_33 
REMARK   12  A    between atoms: C18_35  and  N8_36 
REMARK   13  A    between atoms: C19_40  and  O3_41 
REMARK   14  A    between atoms: C20_43  and  O4_44 
REMARK   15  A    between atoms: C20_43  and  C21_46 
REMARK   16  A    between atoms: C21_46  and  O5_47 
ROOT
HETATM    1  C7  UNL     1      18.047  37.617 103.627  1.00  0.00     0.683 A 
HETATM    2  N4  UNL     1      17.969  36.843 102.523  1.00  0.00    -0.174 N 
ATOM      3  H4  UNL     1      18.120  37.269 101.608  1.00  0.00     0.186 HD
HETATM    4  C8  UNL     1      17.701  35.535 102.594  1.00  0.00     0.155 A 
HETATM    5  C9  UNL     1      17.503  34.987 103.842  1.00  0.00     0.123 A 
HETATM    6  N5  UNL     1      17.253  33.686 103.660  1.00  0.00    -0.346 N 
ATOM      7  H5  UNL     1      17.065  33.002 104.392  1.00  0.00     0.167 HD
HETATM    8  C10 UNL     1      17.296  33.441 102.337  1.00  0.00     0.185 A 
HETATM    9  N6  UNL     1      17.571  34.564 101.655  1.00  0.00    -0.324 N 
HETATM   10  C15 UNL     1      17.578  35.756 104.986  1.00  0.00     0.148 A 
HETATM   11  N9  UNL     1      17.855  37.075 104.827  1.00  0.00    -0.174 N 
ATOM     12  H9  UNL     1      17.917  37.671 105.654  1.00  0.00     0.186 HD
ENDROOT
BRANCH  10  13
HETATM   13  N7  UNL     1      17.392  35.252 106.157  1.00  0.00    -0.369 N 
ATOM     14  H7  UNL     1      17.169  34.258 106.216  1.00  0.00     0.161 HD
BRANCH  13  15
HETATM   15  C16 UNL     1      17.476  35.991 107.383  1.00  0.00     0.088 C 
HETATM   16  C17 UNL     1      16.309  35.778 108.292  1.00  0.00     0.060 C 
HETATM   17  C18 UNL     1      16.469  34.694 109.313  1.00  0.00     0.217 C 
HETATM   18  C19 UNL     1      17.808  34.634 109.969  1.00  0.00     0.185 C 
HETATM   19  C20 UNL     1      18.843  34.477 108.872  1.00  0.00     0.108 C 
HETATM   20  C22 UNL     1      18.806  35.710 108.035  1.00  0.00     0.068 C 
BRANCH  17  21
HETATM   21  N8  UNL     1      15.472  34.923 110.353  1.00  0.00    -0.072 N 
ATOM     22  H83 UNL     1      14.521  34.979 109.987  1.00  0.00     0.274 HD
ATOM     23  H82 UNL     1      15.335  34.114 110.958  1.00  0.00     0.274 HD
ATOM     24  H81 UNL     1      15.752  35.760 110.864  1.00  0.00     0.274 HD
ENDBRANCH  17  21
BRANCH  18  25
HETATM   25  O3  UNL     1      17.843  33.493 110.772  1.00  0.00    -0.390 OA
ATOM     26  H3  UNL     1      17.535  33.734 111.638  1.00  0.00     0.210 HD
ENDBRANCH  18  25
BRANCH  19  27
HETATM   27  O4  UNL     1      20.129  34.437 109.461  1.00  0.00    -0.385 OA
ATOM     28  H4  UNL     1      20.626  33.731 109.064  1.00  0.00     0.210 HD
ENDBRANCH  19  27
BRANCH  19  29
HETATM   29  C21 UNL     1      18.683  33.203 108.109  1.00  0.00     0.204 C 
BRANCH  29  30
HETATM   30  O5  UNL     1      19.612  32.285 108.638  1.00  0.00    -0.398 OA
ATOM     31  H5  UNL     1      20.138  31.971 107.912  1.00  0.00     0.209 HD
ENDBRANCH  29  30
ENDBRANCH  19  29
ENDBRANCH  13  15
ENDBRANCH  10  13
BRANCH   1  32
HETATM   32  N3  UNL     1      18.348  39.023 103.446  1.00  0.00    -0.214 N 
HETATM   33  C6  UNL     1      17.275  39.981 103.347  1.00  0.00     0.171 C 
HETATM   34  C5  UNL     1      17.761  41.144 102.494  1.00  0.00     0.293 C 
HETATM   35  N2  UNL     1      18.984  41.622 103.052  1.00  0.00     0.096 N 
HETATM   36  C24 UNL     1      20.027  40.688 102.682  1.00  0.00     0.293 C 
HETATM   37  C23 UNL     1      19.746  39.406 103.385  1.00  0.00     0.171 C 
BRANCH  35  38
HETATM   38  C4  UNL     1      19.302  42.977 102.640  1.00  0.00     0.225 C 
HETATM   39  C3  UNL     1      19.437  42.949 101.121  1.00  0.00     0.038 C 
HETATM   40  C2  UNL     1      18.950  44.303 100.651  1.00  0.00     0.035 C 
HETATM   41  C1  UNL     1      18.105  44.877 101.744  1.00  0.00     0.185 C 
HETATM   42  C25 UNL     1      18.050  43.811 102.795  1.00  0.00     0.068 C 
BRANCH  41  43
HETATM   43  N1  UNL     1      16.745  45.167 101.318  1.00  0.00    -0.075 N 
ATOM     44  H13 UNL     1      16.674  45.167 100.301  1.00  0.00     0.274 HD
ATOM     45  H12 UNL     1      16.124  44.386 101.528  1.00  0.00     0.274 HD
ATOM     46  H11 UNL     1      16.383  46.037 101.708  1.00  0.00     0.274 HD
ENDBRANCH  41  43
ENDBRANCH  35  38
ENDBRANCH   1  32
BRANCH   9  47
HETATM   47  C11 UNL     1      17.715  34.786 100.246  1.00  0.00     0.163 C 
BRANCH  47  48
HETATM   48  C12 UNL     1      19.175  34.775  99.827  1.00  0.00     0.138 C 
BRANCH  48  49
HETATM   49  O1  UNL     1      19.510  36.034  99.345  1.00  0.00    -0.394 OA
ATOM     50  H1  UNL     1      19.507  36.008  98.396  1.00  0.00     0.210 HD
ENDBRANCH  48  49
BRANCH  48  51
HETATM   51  C13 UNL     1      19.333  33.703  98.791  1.00  0.00     0.059 C 
BRANCH  51  52
HETATM   52  C14 UNL     1      18.447  33.946  97.583  1.00  0.00     0.166 C 
BRANCH  52  53
HETATM   53  O2  UNL     1      18.490  32.881  96.697  1.00  0.00    -0.401 OA
ATOM     54  H2  UNL     1      17.618  32.605  96.440  1.00  0.00     0.209 HD
ENDBRANCH  52  53
ENDBRANCH  51  52
ENDBRANCH  48  51
ENDBRANCH  47  48
ENDBRANCH   9  47
TORSDOF 16
ENDMDL
MODEL 3
REMARK VINA RESULT: -9.159237429      5.564      8.061
REMARK  16 active torsions:
REMARK  status: ('A' for Active; 'I' for Inactive)
REMARK    1  A    between atoms: N1_1  and  C1_5 
REMARK    2  A    between atoms: C4_8  and  N2_9 
REMARK    3  A    between atoms: N3_12  and  C7_13 
REMARK    4  A    between atoms: N6_21  and  C11_22 
REMARK    5  A    between atoms: C11_22  and  C12_23 
REMARK    6  A    between atoms: C12_23  and  O1_24 
REMARK    7  A    between atoms: C12_23  and  C13_26 
REMARK    8  A    between atoms: C13_26  and  C14_27 
REMARK    9  A    between atoms: C14_27  and  O2_28 
REMARK   10  A    between atoms: C15_30  and  N7_31 
REMARK   11  A    between atoms: N7_31  and  C16_33 
REMARK   12  A    between atoms: C18_35  and  N8_36 
REMARK   13  A    between atoms: C19_40  and  O3_41 
REMARK   14  A    between atoms: C20_43  and  O4_44 
REMARK   15  A    between atoms: C20_43  and  C21_46 
REMARK   16  A    between atoms: C21_46  and  O5_47 
ROOT
HETATM    1  C7  UNL     1      18.261  37.301 102.832  1.00  0.00     0.683 A 
HETATM    2  N4  UNL     1      18.026  36.660 103.997  1.00  0.00    -0.174 N 
ATOM      3  H4  UNL     1      17.977  37.203 104.860  1.00  0.00     0.186 HD
HETATM    4  C8  UNL     1      17.856  35.335 104.054  1.00  0.00     0.155 A 
HETATM    5  C9  UNL     1      17.928  34.628 102.874  1.00  0.00     0.123 A 
HETATM    6  N5  UNL     1      17.730  33.341 103.180  1.00  0.00    -0.346 N 
ATOM      7  H5  UNL     1      17.722  32.561 102.523  1.00  0.00     0.167 HD
HETATM    8  C10 UNL     1      17.542  33.259 104.510  1.00  0.00     0.185 A 
HETATM    9  N6  UNL     1      17.615  34.475 105.075  1.00  0.00    -0.324 N 
HETATM   10  C15 UNL     1      18.166  35.259 101.670  1.00  0.00     0.148 A 
HETATM   11  N9  UNL     1      18.327  36.607 101.699  1.00  0.00    -0.174 N 
ATOM     12  H9  UNL     1      18.504  37.103 100.825  1.00  0.00     0.186 HD
ENDROOT
BRANCH  10  13
HETATM   13  N7  UNL     1      18.237  34.605 100.562  1.00  0.00    -0.369 N 
ATOM     14  H7  UNL     1      18.988  33.921 100.461  1.00  0.00     0.161 HD
BRANCH  13  15
HETATM   15  C16 UNL     1      17.333  34.769  99.461  1.00  0.00     0.088 C 
HETATM   16  C17 UNL     1      17.382  36.130  98.844  1.00  0.00     0.060 C 
HETATM   17  C18 UNL     1      18.312  36.282  97.681  1.00  0.00     0.217 C 
HETATM   18  C19 UNL     1      18.315  35.144  96.717  1.00  0.00     0.185 C 
HETATM   19  C20 UNL     1      18.655  33.890  97.497  1.00  0.00     0.108 C 
HETATM   20  C22 UNL     1      17.553  33.652  98.473  1.00  0.00     0.068 C 
BRANCH  17  21
HETATM   21  N8  UNL     1      17.910  37.482  96.955  1.00  0.00    -0.072 N 
ATOM     22  H83 UNL     1      17.212  38.034  97.454  1.00  0.00     0.274 HD
ATOM     23  H82 UNL     1      18.642  38.192  96.922  1.00  0.00     0.274 HD
ATOM     24  H81 UNL     1      17.599  37.188  96.030  1.00  0.00     0.274 HD
ENDBRANCH  17  21
BRANCH  18  25
HETATM   25  O3  UNL     1      19.330  35.370  95.786  1.00  0.00    -0.390 OA
ATOM     26  H3  UNL     1      19.136  36.182  95.331  1.00  0.00     0.210 HD
ENDBRANCH  18  25
BRANCH  19  27
HETATM   27  O4  UNL     1      18.645  32.786  96.612  1.00  0.00    -0.385 OA
ATOM     28  H4  UNL     1      18.611  31.985  97.123  1.00  0.00     0.210 HD
ENDBRANCH  19  27
BRANCH  19  29
HETATM   29  C21 UNL     1      20.020  33.941  98.101  1.00  0.00     0.204 C 
BRANCH  29  30
HETATM   30  O5  UNL     1      20.137  32.823  98.952  1.00  0.00    -0.398 OA
ATOM     31  H5  UNL     1      19.728  32.090  98.506  1.00  0.00     0.209 HD
ENDBRANCH  29  30
ENDBRANCH  19  29
ENDBRANCH  13  15
ENDBRANCH  10  13
BRANCH   1  32
HETATM   32  N3  UNL     1      18.427  38.741 102.875  1.00  0.00    -0.214 N 
HETATM   33  C6  UNL     1      17.304  39.602 102.598  1.00  0.00     0.171 C 
HETATM   34  C5  UNL     1      17.841  40.902 102.019  1.00  0.00     0.293 C 
HETATM   35  N2  UNL     1      18.823  41.415 102.918  1.00  0.00     0.096 N 
HETATM   36  C24 UNL     1      20.029  40.634 102.739  1.00  0.00     0.293 C 
HETATM   37  C23 UNL     1      19.740  39.253 103.215  1.00  0.00     0.171 C 
BRANCH  35  38
HETATM   38  C4  UNL     1      19.067  42.834 102.740  1.00  0.00     0.225 C 
HETATM   39  C3  UNL     1      19.447  43.029 101.275  1.00  0.00     0.038 C 
HETATM   40  C2  UNL     1      18.910  44.394 100.900  1.00  0.00     0.035 C 
HETATM   41  C1  UNL     1      17.848  44.743 101.895  1.00  0.00     0.185 C 
HETATM   42  C25 UNL     1      17.730  43.540 102.779  1.00  0.00     0.068 C 
BRANCH  41  43
HETATM   43  N1  UNL     1      16.552  44.985 101.280  1.00  0.00    -0.075 N 
ATOM     44  H13 UNL     1      16.066  44.107 101.097  1.00  0.00     0.274 HD
ATOM     45  H12 UNL     1      15.904  45.398 101.949  1.00  0.00     0.274 HD
ATOM     46  H11 UNL     1      16.613  45.550 100.433  1.00  0.00     0.274 HD
ENDBRANCH  41  43
ENDBRANCH  35  38
ENDBRANCH   1  32
BRANCH   9  47
HETATM   47  C11 UNL     1      17.479  34.874 106.445  1.00  0.00     0.163 C 
BRANCH  47  48
HETATM   48  C12 UNL     1      17.133  33.694 107.337  1.00  0.00     0.138 C 
BRANCH  48  49
HETATM   49  O1  UNL     1      16.067  34.050 108.155  1.00  0.00    -0.394 OA
ATOM     50  H1  UNL     1      15.377  33.406 108.052  1.00  0.00     0.210 HD
ENDBRANCH  48  49
BRANCH  48  51
HETATM   51  C13 UNL     1      18.366  33.351 108.119  1.00  0.00     0.059 C 
BRANCH  51  52
HETATM   52  C14 UNL     1      18.757  34.459 109.079  1.00  0.00     0.166 C 
BRANCH  52  53
HETATM   53  O2  UNL     1      20.112  34.428 109.366  1.00  0.00    -0.401 OA
ATOM     54  H2  UNL     1      20.600  33.954 108.703  1.00  0.00     0.209 HD
ENDBRANCH  52  53
ENDBRANCH  51  52
ENDBRANCH  48  51
ENDBRANCH  47  48
ENDBRANCH   9  47
TORSDOF 16
ENDMDL
MODEL 4
REMARK VINA RESULT: -9.158182849      2.013      7.002
REMARK  16 active torsions:
REMARK  status: ('A' for Active; 'I' for Inactive)
REMARK    1  A    between atoms: N1_1  and  C1_5 
REMARK    2  A    between atoms: C4_8  and  N2_9 
REMARK    3  A    between atoms: N3_12  and  C7_13 
REMARK    4  A    between atoms: N6_21  and  C11_22 
REMARK    5  A    between atoms: C11_22  and  C12_23 
REMARK    6  A    between atoms: C12_23  and  O1_24 
REMARK    7  A    between atoms: C12_23  and  C13_26 
REMARK    8  A    between atoms: C13_26  and  C14_27 
REMARK    9  A    between atoms: C14_27  and  O2_28 
REMARK   10  A    between atoms: C15_30  and  N7_31 
REMARK   11  A    between atoms: N7_31  and  C16_33 
REMARK   12  A    between atoms: C18_35  and  N8_36 
REMARK   13  A    between atoms: C19_40  and  O3_41 
REMARK   14  A    between atoms: C20_43  and  O4_44 
REMARK   15  A    between atoms: C20_43  and  C21_46 
REMARK   16  A    between atoms: C21_46  and  O5_47 
ROOT
HETATM    1  C7  UNL     1      19.376  40.049  97.775  1.00  0.00     0.683 A 
HETATM    2  N4  UNL     1      19.432  38.720  97.542  1.00  0.00    -0.174 N 
ATOM      3  H4  UNL     1      20.026  38.373  96.789  1.00  0.00     0.186 HD
HETATM    4  C8  UNL     1      18.730  37.844  98.270  1.00  0.00     0.155 A 
HETATM    5  C9  UNL     1      17.936  38.342  99.280  1.00  0.00     0.123 A 
HETATM    6  N5  UNL     1      17.341  37.292  99.858  1.00  0.00    -0.346 N 
ATOM      7  H5  UNL     1      16.689  37.326 100.642  1.00  0.00     0.167 HD
HETATM    8  C10 UNL     1      17.757  36.182  99.220  1.00  0.00     0.185 A 
HETATM    9  N6  UNL     1      18.615  36.493  98.236  1.00  0.00    -0.324 N 
HETATM   10  C15 UNL     1      17.863  39.695  99.539  1.00  0.00     0.148 A 
HETATM   11  N9  UNL     1      18.607  40.516  98.755  1.00  0.00    -0.174 N 
ATOM     12  H9  UNL     1      18.574  41.522  98.921  1.00  0.00     0.186 HD
ENDROOT
BRANCH  10  13
HETATM   13  N7  UNL     1      17.121  40.167 100.481  1.00  0.00    -0.369 N 
ATOM     14  H7  UNL     1      16.176  40.466 100.238  1.00  0.00     0.161 HD
BRANCH  13  15
HETATM   15  C16 UNL     1      17.531  40.303 101.849  1.00  0.00     0.088 C 
HETATM   16  C17 UNL     1      19.011  40.413 102.022  1.00  0.00     0.060 C 
HETATM   17  C18 UNL     1      19.560  41.806 102.059  1.00  0.00     0.217 C 
HETATM   18  C19 UNL     1      18.752  42.785 102.842  1.00  0.00     0.185 C 
HETATM   19  C20 UNL     1      17.353  42.789 102.256  1.00  0.00     0.108 C 
HETATM   20  C22 UNL     1      16.765  41.438 102.481  1.00  0.00     0.068 C 
BRANCH  17  21
HETATM   21  N8  UNL     1      20.886  41.737 102.663  1.00  0.00    -0.072 N 
ATOM     22  H83 UNL     1      21.143  42.591 103.158  1.00  0.00     0.274 HD
ATOM     23  H82 UNL     1      20.927  41.103 103.462  1.00  0.00     0.274 HD
ATOM     24  H81 UNL     1      21.544  41.491 101.925  1.00  0.00     0.274 HD
ENDBRANCH  17  21
BRANCH  18  25
HETATM   25  O3  UNL     1      19.309  44.052 102.654  1.00  0.00    -0.390 OA
ATOM     26  H3  UNL     1      19.229  44.273 101.734  1.00  0.00     0.210 HD
ENDBRANCH  18  25
BRANCH  19  27
HETATM   27  O4  UNL     1      16.554  43.696 102.992  1.00  0.00    -0.385 OA
ATOM     28  H4  UNL     1      15.966  44.141 102.393  1.00  0.00     0.210 HD
ENDBRANCH  19  27
BRANCH  19  29
HETATM   29  C21 UNL     1      17.325  43.251 100.836  1.00  0.00     0.204 C 
BRANCH  29  30
HETATM   30  O5  UNL     1      17.381  44.659 100.858  1.00  0.00    -0.398 OA
ATOM     31  H5  UNL     1      18.293  44.900 100.967  1.00  0.00     0.209 HD
ENDBRANCH  29  30
ENDBRANCH  19  29
ENDBRANCH  13  15
ENDBRANCH  10  13
BRANCH   1  32
HETATM   32  N3  UNL     1      20.179  40.915  96.934  1.00  0.00    -0.214 N 
HETATM   33  C6  UNL     1      21.112  40.343  95.995  1.00  0.00     0.171 C 
HETATM   34  C5  UNL     1      22.249  41.335  95.800  1.00  0.00     0.293 C 
HETATM   35  N2  UNL     1      21.682  42.593  95.438  1.00  0.00     0.096 N 
HETATM   36  C24 UNL     1      21.137  43.188  96.640  1.00  0.00     0.293 C 
HETATM   37  C23 UNL     1      19.988  42.347  97.073  1.00  0.00     0.171 C 
BRANCH  35  38
HETATM   38  C4  UNL     1      22.630  43.474  94.782  1.00  0.00     0.225 C 
HETATM   39  C3  UNL     1      22.011  44.868  94.795  1.00  0.00     0.038 C 
HETATM   40  C2  UNL     1      23.178  45.824  94.913  1.00  0.00     0.035 C 
HETATM   41  C1  UNL     1      24.336  45.048  95.457  1.00  0.00     0.185 C 
HETATM   42  C25 UNL     1      23.797  43.677  95.723  1.00  0.00     0.068 C 
BRANCH  41  43
HETATM   43  N1  UNL     1      24.843  45.588  96.709  1.00  0.00    -0.075 N 
ATOM     44  H13 UNL     1      25.253  46.511  96.568  1.00  0.00     0.274 HD
ATOM     45  H12 UNL     1      24.077  45.840  97.334  1.00  0.00     0.274 HD
ATOM     46  H11 UNL     1      25.503  44.964  97.174  1.00  0.00     0.274 HD
ENDBRANCH  41  43
ENDBRANCH  35  38
ENDBRANCH   1  32
BRANCH   9  47
HETATM   47  C11 UNL     1      19.307  35.653  97.304  1.00  0.00     0.163 C 
BRANCH  47  48
HETATM   48  C12 UNL     1      18.442  35.329  96.097  1.00  0.00     0.138 C 
BRANCH  48  49
HETATM   49  O1  UNL     1      18.382  33.948  95.948  1.00  0.00    -0.394 OA
ATOM     50  H1  UNL     1      17.828  33.592  96.632  1.00  0.00     0.210 HD
ENDBRANCH  48  49
BRANCH  48  51
HETATM   51  C13 UNL     1      19.060  36.007  94.912  1.00  0.00     0.059 C 
BRANCH  51  52
HETATM   52  C14 UNL     1      18.228  37.182  94.431  1.00  0.00     0.166 C 
BRANCH  52  53
HETATM   53  O2  UNL     1      17.052  37.302  95.153  1.00  0.00    -0.401 OA
ATOM     54  H2  UNL     1      16.308  37.469  94.585  1.00  0.00     0.209 HD
ENDBRANCH  52  53
ENDBRANCH  51  52
ENDBRANCH  48  51
ENDBRANCH  47  48
ENDBRANCH   9  47
TORSDOF 16
ENDMDL
MODEL 5
REMARK VINA RESULT: -9.130516408      1.960      7.345
REMARK  16 active torsions:
REMARK  status: ('A' for Active; 'I' for Inactive)
REMARK    1  A    between atoms: N1_1  and  C1_5 
REMARK    2  A    between atoms: C4_8  and  N2_9 
REMARK    3  A    between atoms: N3_12  and  C7_13 
REMARK    4  A    between atoms: N6_21  and  C11_22 
REMARK    5  A    between atoms: C11_22  and  C12_23 
REMARK    6  A    between atoms: C12_23  and  O1_24 
REMARK    7  A    between atoms: C12_23  and  C13_26 
REMARK    8  A    between atoms: C13_26  and  C14_27 
REMARK    9  A    between atoms: C14_27  and  O2_28 
REMARK   10  A    between atoms: C15_30  and  N7_31 
REMARK   11  A    between atoms: N7_31  and  C16_33 
REMARK   12  A    between atoms: C18_35  and  N8_36 
REMARK   13  A    between atoms: C19_40  and  O3_41 
REMARK   14  A    between atoms: C20_43  and  O4_44 
REMARK   15  A    between atoms: C20_43  and  C21_46 
REMARK   16  A    between atoms: C21_46  and  O5_47 
ROOT
HETATM    1  C7  UNL     1      19.110  40.286  97.924  1.00  0.00     0.683 A 
HETATM    2  N4  UNL     1      19.022  38.961  97.681  1.00  0.00    -0.174 N 
ATOM      3  H4  UNL     1      19.554  38.563  96.906  1.00  0.00     0.186 HD
HETATM    4  C8  UNL     1      18.259  38.154  98.426  1.00  0.00     0.155 A 
HETATM    5  C9  UNL     1      17.552  38.720  99.465  1.00  0.00     0.123 A 
HETATM    6  N5  UNL     1      16.872  37.730 100.055  1.00  0.00    -0.346 N 
ATOM      7  H5  UNL     1      16.253  37.823 100.860  1.00  0.00     0.167 HD
HETATM    8  C10 UNL     1      17.152  36.590  99.397  1.00  0.00     0.185 A 
HETATM    9  N6  UNL     1      18.005  36.822  98.386  1.00  0.00    -0.324 N 
HETATM   10  C15 UNL     1      17.625  40.071  99.735  1.00  0.00     0.148 A 
HETATM   11  N9  UNL     1      18.423  40.819  98.931  1.00  0.00    -0.174 N 
ATOM     12  H9  UNL     1      18.499  41.822  99.105  1.00  0.00     0.186 HD
ENDROOT
BRANCH  10  13
HETATM   13  N7  UNL     1      16.966  40.607 100.703  1.00  0.00    -0.369 N 
ATOM     14  H7  UNL     1      16.027  40.952 100.505  1.00  0.00     0.161 HD
BRANCH  13  15
HETATM   15  C16 UNL     1      17.462  40.753 102.041  1.00  0.00     0.088 C 
HETATM   16  C17 UNL     1      18.953  40.776 102.129  1.00  0.00     0.060 C 
HETATM   17  C18 UNL     1      19.585  42.134 102.094  1.00  0.00     0.217 C 
HETATM   18  C19 UNL     1      18.882  43.181 102.892  1.00  0.00     0.185 C 
HETATM   19  C20 UNL     1      17.456  43.255 102.385  1.00  0.00     0.108 C 
HETATM   20  C22 UNL     1      16.802  41.948 102.682  1.00  0.00     0.068 C 
BRANCH  17  21
HETATM   21  N8  UNL     1      20.937  42.000 102.625  1.00  0.00    -0.072 N 
ATOM     22  H83 UNL     1      21.529  42.804 102.415  1.00  0.00     0.274 HD
ATOM     23  H82 UNL     1      20.974  42.069 103.642  1.00  0.00     0.274 HD
ATOM     24  H81 UNL     1      21.317  41.122 102.272  1.00  0.00     0.274 HD
ENDBRANCH  17  21
BRANCH  18  25
HETATM   25  O3  UNL     1      19.503  44.405 102.637  1.00  0.00    -0.390 OA
ATOM     26  H3  UNL     1      19.889  44.713 103.448  1.00  0.00     0.210 HD
ENDBRANCH  18  25
BRANCH  19  27
HETATM   27  O4  UNL     1      16.755  44.227 103.138  1.00  0.00    -0.385 OA
ATOM     28  H4  UNL     1      16.219  44.743 102.547  1.00  0.00     0.210 HD
ENDBRANCH  19  27
BRANCH  19  29
HETATM   29  C21 UNL     1      17.374  43.680 100.956  1.00  0.00     0.204 C 
BRANCH  29  30
HETATM   30  O5  UNL     1      17.270  45.086 100.948  1.00  0.00    -0.398 OA
ATOM     31  H5  UNL     1      16.545  45.308 100.376  1.00  0.00     0.209 HD
ENDBRANCH  29  30
ENDBRANCH  19  29
ENDBRANCH  13  15
ENDBRANCH  10  13
BRANCH   1  32
HETATM   32  N3  UNL     1      19.969  41.075  97.062  1.00  0.00    -0.214 N 
HETATM   33  C6  UNL     1      20.916  40.418  96.196  1.00  0.00     0.171 C 
HETATM   34  C5  UNL     1      22.091  41.362  95.983  1.00  0.00     0.293 C 
HETATM   35  N2  UNL     1      21.577  42.611  95.524  1.00  0.00     0.096 N 
HETATM   36  C24 UNL     1      21.008  43.296  96.667  1.00  0.00     0.293 C 
HETATM   37  C23 UNL     1      19.818  42.517  97.106  1.00  0.00     0.171 C 
BRANCH  35  38
HETATM   38  C4  UNL     1      22.576  43.421  94.852  1.00  0.00     0.225 C 
HETATM   39  C3  UNL     1      22.004  44.833  94.765  1.00  0.00     0.038 C 
HETATM   40  C2  UNL     1      23.200  45.756  94.868  1.00  0.00     0.035 C 
HETATM   41  C1  UNL     1      24.312  44.976  95.495  1.00  0.00     0.185 C 
HETATM   42  C25 UNL     1      23.717  43.641  95.820  1.00  0.00     0.068 C 
BRANCH  41  43
HETATM   43  N1  UNL     1      24.796  45.571  96.730  1.00  0.00    -0.075 N 
ATOM     44  H13 UNL     1      25.815  45.612  96.740  1.00  0.00     0.274 HD
ATOM     45  H12 UNL     1      24.590  46.569  96.759  1.00  0.00     0.274 HD
ATOM     46  H11 UNL     1      24.443  45.101  97.564  1.00  0.00     0.274 HD
ENDBRANCH  41  43
ENDBRANCH  35  38
ENDBRANCH   1  32
BRANCH   9  47
HETATM   47  C11 UNL     1      18.578  35.925  97.427  1.00  0.00     0.163 C 
BRANCH  47  48
HETATM   48  C12 UNL     1      19.104  34.662  98.089  1.00  0.00     0.138 C 
BRANCH  48  49
HETATM   49  O1  UNL     1      20.300  34.960  98.730  1.00  0.00    -0.394 OA
ATOM     50  H1  UNL     1      20.693  34.150  99.033  1.00  0.00     0.210 HD
ENDBRANCH  48  49
BRANCH  48  51
HETATM   51  C13 UNL     1      19.270  33.631  97.013  1.00  0.00     0.059 C 
BRANCH  51  52
HETATM   52  C14 UNL     1      20.705  33.150  96.904  1.00  0.00     0.166 C 
BRANCH  52  53
HETATM   53  O2  UNL     1      21.088  32.431  98.024  1.00  0.00    -0.401 OA
ATOM     54  H2  UNL     1      20.337  32.073  98.483  1.00  0.00     0.209 HD
ENDBRANCH  52  53
ENDBRANCH  51  52
ENDBRANCH  48  51
ENDBRANCH  47  48
ENDBRANCH   9  47
TORSDOF 16
ENDMDL
