MODEL 1
REMARK VINA RESULT: -3.196248207      0.000      0.000
REMARK  4 active torsions:
REMARK  status: ('A' for Active; 'I' for Inactive)
REMARK    1  A    between atoms: C2_2  and  N1_3 
REMARK    2  A    between atoms: N1_3  and  C5_6 
REMARK    3  A    between atoms: C5_6  and  C6_7 
REMARK    4  A    between atoms: C9_13  and  N3_14 
ROOT
HETATM    1  C6  UNL     1      28.564   9.305  48.677  1.00  0.00     0.069 C 
HETATM    2  C7  UNL     1      28.133  10.784  48.682  1.00  0.00     0.240 C 
HETATM    3  N2  UNL     1      29.358  11.531  48.649  1.00  0.00    -0.073 N 
ATOM      4  H21 UNL     1      29.803  11.654  49.559  1.00  0.00     0.277 HD
ATOM      5  H22 UNL     1      29.243  12.525  48.452  1.00  0.00     0.277 HD
HETATM    6  C8  UNL     1      30.155  10.817  47.686  1.00  0.00     0.265 C 
HETATM    7  C9  UNL     1      29.758   9.351  47.791  1.00  0.00     0.216 C 
ENDROOT
BRANCH   1   8
HETATM    8  C5  UNL     1      27.408   8.547  48.170  1.00  0.00     0.244 C 
BRANCH   8   9
HETATM    9  N1  UNL     1      27.110   7.301  48.762  1.00  0.00    -0.075 N 
HETATM   10  C3  UNL     1      28.051   7.151  49.892  1.00  0.00     0.272 C 
HETATM   11  C4  UNL     1      25.790   7.304  49.414  1.00  0.00     0.272 C 
BRANCH   9  12
HETATM   12  C2  UNL     1      27.300   6.148  47.934  1.00  0.00     0.232 C 
HETATM   13  C1  UNL     1      27.762   6.523  46.519  1.00  0.00     0.034 C 
ENDBRANCH   9  12
ENDBRANCH   8   9
ENDBRANCH   1   8
BRANCH   7  14
HETATM   14  N3  UNL     1      30.912   8.664  48.395  1.00  0.00    -0.073 N 
ATOM     15  H33 UNL     1      31.562   9.328  48.817  1.00  0.00     0.274 HD
ATOM     16  H32 UNL     1      30.641   8.151  49.235  1.00  0.00     0.274 HD
ATOM     17  H31 UNL     1      31.383   8.057  47.724  1.00  0.00     0.274 HD
ENDBRANCH   7  14
TORSDOF 4
ENDMDL
MODEL 2
REMARK VINA RESULT: -2.882896582      1.357      2.608
REMARK  4 active torsions:
REMARK  status: ('A' for Active; 'I' for Inactive)
REMARK    1  A    between atoms: C2_2  and  N1_3 
REMARK    2  A    between atoms: N1_3  and  C5_6 
REMARK    3  A    between atoms: C5_6  and  C6_7 
REMARK    4  A    between atoms: C9_13  and  N3_14 
ROOT
HETATM    1  C6  UNL     1      29.193  10.071  48.410  1.00  0.00     0.069 C 
HETATM    2  C7  UNL     1      29.951   8.734  48.512  1.00  0.00     0.240 C 
HETATM    3  N2  UNL     1      31.334   9.073  48.328  1.00  0.00    -0.073 N 
ATOM      4  H21 UNL     1      31.622   9.166  47.354  1.00  0.00     0.277 HD
ATOM      5  H22 UNL     1      31.988   8.326  48.561  1.00  0.00     0.277 HD
HETATM    6  C8  UNL     1      31.488  10.270  49.114  1.00  0.00     0.265 C 
HETATM    7  C9  UNL     1      30.155  11.003  49.059  1.00  0.00     0.216 C 
ENDROOT
BRANCH   1   8
HETATM    8  C5  UNL     1      27.914   9.866  49.110  1.00  0.00     0.244 C 
BRANCH   8   9
HETATM    9  N1  UNL     1      26.917   9.095  48.475  1.00  0.00    -0.075 N 
HETATM   10  C3  UNL     1      25.726   9.966  48.381  1.00  0.00     0.272 C 
HETATM   11  C4  UNL     1      27.250   8.819  47.067  1.00  0.00     0.272 C 
BRANCH   9  12
HETATM   12  C2  UNL     1      26.492   7.917  49.169  1.00  0.00     0.232 C 
HETATM   13  C1  UNL     1      26.962   6.634  48.470  1.00  0.00     0.034 C 
ENDBRANCH   9  12
ENDBRANCH   8   9
ENDBRANCH   1   8
BRANCH   7  14
HETATM   14  N3  UNL     1      30.388  12.203  48.238  1.00  0.00    -0.073 N 
ATOM     15  H33 UNL     1      29.918  12.133  47.335  1.00  0.00     0.274 HD
ATOM     16  H32 UNL     1      29.893  13.012  48.613  1.00  0.00     0.274 HD
ATOM     17  H31 UNL     1      31.384  12.395  48.125  1.00  0.00     0.274 HD
ENDBRANCH   7  14
TORSDOF 4
ENDMDL
MODEL 3
REMARK VINA RESULT: -2.832666054      1.274      2.582
REMARK  4 active torsions:
REMARK  status: ('A' for Active; 'I' for Inactive)
REMARK    1  A    between atoms: C2_2  and  N1_3 
REMARK    2  A    between atoms: N1_3  and  C5_6 
REMARK    3  A    between atoms: C5_6  and  C6_7 
REMARK    4  A    between atoms: C9_13  and  N3_14 
ROOT
HETATM    1  C6  UNL     1      29.586   9.128  48.097  1.00  0.00     0.069 C 
HETATM    2  C7  UNL     1      31.072   8.954  48.458  1.00  0.00     0.240 C 
HETATM    3  N2  UNL     1      31.564  10.285  48.671  1.00  0.00    -0.073 N 
ATOM      4  H21 UNL     1      31.826  10.782  47.820  1.00  0.00     0.277 HD
ATOM      5  H22 UNL     1      32.485  10.332  49.108  1.00  0.00     0.277 HD
HETATM    6  C8  UNL     1      30.510  10.909  49.428  1.00  0.00     0.265 C 
HETATM    7  C9  UNL     1      29.206  10.275  48.966  1.00  0.00     0.216 C 
ENDROOT
BRANCH   1   8
HETATM    8  C5  UNL     1      28.940   7.840  48.404  1.00  0.00     0.244 C 
BRANCH   8   9
HETATM    9  N1  UNL     1      27.663   7.583  47.862  1.00  0.00    -0.075 N 
HETATM   10  C3  UNL     1      27.529   8.475  46.690  1.00  0.00     0.272 C 
HETATM   11  C4  UNL     1      27.575   6.235  47.277  1.00  0.00     0.272 C 
BRANCH   9  12
HETATM   12  C2  UNL     1      26.547   7.876  48.710  1.00  0.00     0.232 C 
HETATM   13  C1  UNL     1      26.167   6.682  49.597  1.00  0.00     0.034 C 
ENDBRANCH   9  12
ENDBRANCH   8   9
ENDBRANCH   1   8
BRANCH   7  14
HETATM   14  N3  UNL     1      28.496  11.319  48.209  1.00  0.00    -0.073 N 
ATOM     15  H33 UNL     1      28.777  12.253  48.508  1.00  0.00     0.274 HD
ATOM     16  H32 UNL     1      28.816  11.359  47.240  1.00  0.00     0.274 HD
ATOM     17  H31 UNL     1      27.483  11.201  48.262  1.00  0.00     0.274 HD
ENDBRANCH   7  14
TORSDOF 4
ENDMDL
MODEL 4
REMARK VINA RESULT: -2.773524493      0.459      1.709
REMARK  4 active torsions:
REMARK  status: ('A' for Active; 'I' for Inactive)
REMARK    1  A    between atoms: C2_2  and  N1_3 
REMARK    2  A    between atoms: N1_3  and  C5_6 
REMARK    3  A    between atoms: C5_6  and  C6_7 
REMARK    4  A    between atoms: C9_13  and  N3_14 
ROOT
HETATM    1  C6  UNL     1      28.782   9.363  48.631  1.00  0.00     0.069 C 
HETATM    2  C7  UNL     1      28.332  10.835  48.645  1.00  0.00     0.240 C 
HETATM    3  N2  UNL     1      29.546  11.598  48.705  1.00  0.00    -0.073 N 
ATOM      4  H21 UNL     1      29.934  11.705  49.643  1.00  0.00     0.277 HD
ATOM      5  H22 UNL     1      29.429  12.595  48.526  1.00  0.00     0.277 HD
HETATM    6  C8  UNL     1      30.409  10.919  47.774  1.00  0.00     0.265 C 
HETATM    7  C9  UNL     1      30.028   9.446  47.820  1.00  0.00     0.216 C 
ENDROOT
BRANCH   1   8
HETATM    8  C5  UNL     1      27.670   8.604  48.037  1.00  0.00     0.244 C 
BRANCH   8   9
HETATM    9  N1  UNL     1      27.190   7.467  48.722  1.00  0.00    -0.075 N 
HETATM   10  C3  UNL     1      27.274   6.346  47.763  1.00  0.00     0.272 C 
HETATM   11  C4  UNL     1      28.098   7.057  49.807  1.00  0.00     0.272 C 
BRANCH   9  12
HETATM   12  C2  UNL     1      25.826   7.518  49.152  1.00  0.00     0.232 C 
HETATM   13  C1  UNL     1      25.450   6.315  50.028  1.00  0.00     0.034 C 
ENDBRANCH   9  12
ENDBRANCH   8   9
ENDBRANCH   1   8
BRANCH   7  14
HETATM   14  N3  UNL     1      31.152   8.758  48.476  1.00  0.00    -0.073 N 
ATOM     15  H33 UNL     1      30.927   7.782  48.673  1.00  0.00     0.274 HD
ATOM     16  H32 UNL     1      31.929   8.616  47.831  1.00  0.00     0.274 HD
ATOM     17  H31 UNL     1      31.453   9.247  49.320  1.00  0.00     0.274 HD
ENDBRANCH   7  14
TORSDOF 4
ENDMDL
MODEL 5
REMARK VINA RESULT: -2.553637347      1.228      2.483
REMARK  4 active torsions:
REMARK  status: ('A' for Active; 'I' for Inactive)
REMARK    1  A    between atoms: C2_2  and  N1_3 
REMARK    2  A    between atoms: N1_3  and  C5_6 
REMARK    3  A    between atoms: C5_6  and  C6_7 
REMARK    4  A    between atoms: C9_13  and  N3_14 
ROOT
HETATM    1  C6  UNL     1      29.540   9.224  48.321  1.00  0.00     0.069 C 
HETATM    2  C7  UNL     1      30.991   8.842  48.664  1.00  0.00     0.240 C 
HETATM    3  N2  UNL     1      31.712  10.082  48.676  1.00  0.00    -0.073 N 
ATOM      4  H21 UNL     1      32.012  10.408  47.757  1.00  0.00     0.277 HD
ATOM      5  H22 UNL     1      32.648  10.024  49.078  1.00  0.00     0.277 HD
HETATM    6  C8  UNL     1      30.819  10.976  49.366  1.00  0.00     0.265 C 
HETATM    7  C9  UNL     1      29.404  10.525  49.030  1.00  0.00     0.216 C 
ENDROOT
BRANCH   1   8
HETATM    8  C5  UNL     1      28.701   8.122  48.820  1.00  0.00     0.244 C 
BRANCH   8   9
HETATM    9  N1  UNL     1      27.477   7.860  48.168  1.00  0.00    -0.075 N 
HETATM   10  C3  UNL     1      26.512   8.845  48.700  1.00  0.00     0.272 C 
HETATM   11  C4  UNL     1      27.539   8.185  46.733  1.00  0.00     0.272 C 
BRANCH   9  12
HETATM   12  C2  UNL     1      26.898   6.572  48.404  1.00  0.00     0.232 C 
HETATM   13  C1  UNL     1      26.021   6.556  49.664  1.00  0.00     0.034 C 
ENDBRANCH   9  12
ENDBRANCH   8   9
ENDBRANCH   1   8
BRANCH   7  14
HETATM   14  N3  UNL     1      28.846  11.568  48.153  1.00  0.00    -0.073 N 
ATOM     15  H33 UNL     1      29.420  12.411  48.164  1.00  0.00     0.274 HD
ATOM     16  H32 UNL     1      28.946  11.319  47.169  1.00  0.00     0.274 HD
ATOM     17  H31 UNL     1      27.875  11.777  48.387  1.00  0.00     0.274 HD
ENDBRANCH   7  14
TORSDOF 4
ENDMDL
