MODEL 1
REMARK VINA RESULT: -7.549287820      0.000      0.000
REMARK  9 active torsions:
REMARK  status: ('A' for Active; 'I' for Inactive)
REMARK    1  A    between atoms: O1_1  and  C1_3 
REMARK    2  A    between atoms: C1_3  and  C2_4 
REMARK    3  A    between atoms: C3_6  and  C4_7 
REMARK    4  A    between atoms: C7_11  and  O3_12 
REMARK    5  A    between atoms: C8_14  and  C9_15 
REMARK    6  A    between atoms: C9_15  and  C10_16 
REMARK    7  A    between atoms: C15_26  and  C16_27 
REMARK    8  A    between atoms: C16_27  and  O5_28 
REMARK    9  A    between atoms: C17_30  and  O6_31 
ROOT
HETATM    1  C4  UNL     1      31.011  49.458  48.695  1.00  0.00    -0.001 A 
HETATM    2  C5  UNL     1      30.728  48.254  49.317  1.00  0.00     0.039 A 
HETATM    3  C6  UNL     1      29.466  47.709  49.195  1.00  0.00     0.068 A 
HETATM    4 CL1  UNL     1      29.126  46.194  49.983  1.00  0.00    -0.081 Cl
HETATM    5  C7  UNL     1      28.487  48.351  48.461  1.00  0.00     0.093 A 
HETATM    6  C8  UNL     1      28.737  49.560  47.824  1.00  0.00    -0.022 A 
HETATM    7  C14 UNL     1      30.010  50.070  47.972  1.00  0.00     0.022 A 
ENDROOT
BRANCH   1   8
HETATM    8  C3  UNL     1      32.372  50.081  48.805  1.00  0.00     0.295 C 
HETATM    9  O2  UNL     1      32.806  50.606  47.607  1.00  0.00    -0.347 OA
HETATM   10  C2  UNL     1      34.101  51.045  47.776  1.00  0.00     0.179 C 
HETATM   11  C17 UNL     1      34.088  52.262  48.667  1.00  0.00     0.180 C 
HETATM   12  C15 UNL     1      32.812  52.234  49.503  1.00  0.00     0.179 C 
HETATM   13  O4  UNL     1      32.413  50.964  49.852  1.00  0.00    -0.347 OA
BRANCH  10  14
HETATM   14  C1  UNL     1      34.758  51.401  46.468  1.00  0.00     0.198 C 
BRANCH  14  15
HETATM   15  O1  UNL     1      33.861  51.660  45.443  1.00  0.00    -0.398 OA
ATOM     16  H1  UNL     1      33.254  50.948  45.277  1.00  0.00     0.209 HD
ENDBRANCH  14  15
ENDBRANCH  10  14
BRANCH  11  17
HETATM   17  O6  UNL     1      34.013  53.405  47.894  1.00  0.00    -0.390 OA
ATOM     18  H6  UNL     1      34.011  54.171  48.456  1.00  0.00     0.210 HD
ENDBRANCH  11  17
BRANCH  12  19
HETATM   19  C16 UNL     1      33.085  53.031  50.759  1.00  0.00     0.198 C 
BRANCH  19  20
HETATM   20  O5  UNL     1      33.939  52.317  51.613  1.00  0.00    -0.398 OA
ATOM     21  H5  UNL     1      33.435  51.760  52.193  1.00  0.00     0.209 HD
ENDBRANCH  19  20
ENDBRANCH  12  19
ENDBRANCH   1   8
BRANCH   6  22
HETATM   22  C9  UNL     1      27.669  50.234  47.041  1.00  0.00     0.052 C 
BRANCH  22  23
HETATM   23  C10 UNL     1      27.575  49.739  45.627  1.00  0.00     0.075 C 
HETATM   24  C11 UNL     1      26.464  50.414  44.813  1.00  0.00     0.096 C 
HETATM   25  C12 UNL     1      27.448  50.378  43.637  1.00  0.00     0.308 C 
HETATM   26  F1  UNL     1      27.495  49.126  43.065  1.00  0.00    -0.200 F 
HETATM   27  F2  UNL     1      27.352  51.438  42.795  1.00  0.00    -0.200 F 
HETATM   28  C13 UNL     1      28.547  50.485  44.703  1.00  0.00     0.311 C 
HETATM   29  F3  UNL     1      28.670  51.812  45.077  1.00  0.00    -0.199 F 
HETATM   30  F4  UNL     1      29.696  49.827  44.413  1.00  0.00    -0.199 F 
ENDBRANCH  22  23
ENDBRANCH   6  22
BRANCH   5  31
HETATM   31  O3  UNL     1      27.239  47.780  48.360  1.00  0.00    -0.358 OA
ATOM     32  H3  UNL     1      26.918  47.512  47.507  1.00  0.00     0.217 HD
ENDBRANCH   5  31
TORSDOF 9
ENDMDL
MODEL 2
REMARK VINA RESULT: -7.418676739      0.802      1.142
REMARK  9 active torsions:
REMARK  status: ('A' for Active; 'I' for Inactive)
REMARK    1  A    between atoms: O1_1  and  C1_3 
REMARK    2  A    between atoms: C1_3  and  C2_4 
REMARK    3  A    between atoms: C3_6  and  C4_7 
REMARK    4  A    between atoms: C7_11  and  O3_12 
REMARK    5  A    between atoms: C8_14  and  C9_15 
REMARK    6  A    between atoms: C9_15  and  C10_16 
REMARK    7  A    between atoms: C15_26  and  C16_27 
REMARK    8  A    between atoms: C16_27  and  O5_28 
REMARK    9  A    between atoms: C17_30  and  O6_31 
ROOT
HETATM    1  C4  UNL     1      31.041  49.529  48.649  1.00  0.00    -0.001 A 
HETATM    2  C5  UNL     1      30.672  48.358  49.287  1.00  0.00     0.039 A 
HETATM    3  C6  UNL     1      29.396  47.864  49.110  1.00  0.00     0.068 A 
HETATM    4 CL1  UNL     1      28.946  46.389  49.919  1.00  0.00    -0.081 Cl
HETATM    5  C7  UNL     1      28.488  48.524  48.305  1.00  0.00     0.093 A 
HETATM    6  C8  UNL     1      28.826  49.702  47.650  1.00  0.00    -0.022 A 
HETATM    7  C14 UNL     1      30.110  50.161  47.854  1.00  0.00     0.022 A 
ENDROOT
BRANCH   1   8
HETATM    8  C3  UNL     1      32.420  50.097  48.818  1.00  0.00     0.295 C 
HETATM    9  O2  UNL     1      32.933  50.586  47.637  1.00  0.00    -0.347 OA
HETATM   10  C2  UNL     1      34.236  50.974  47.863  1.00  0.00     0.179 C 
HETATM   11  C17 UNL     1      34.232  52.203  48.738  1.00  0.00     0.180 C 
HETATM   12  C15 UNL     1      32.916  52.239  49.512  1.00  0.00     0.179 C 
HETATM   13  O4  UNL     1      32.448  50.992  49.856  1.00  0.00    -0.347 OA
BRANCH  10  14
HETATM   14  C1  UNL     1      34.970  51.284  46.585  1.00  0.00     0.198 C 
BRANCH  14  15
HETATM   15  O1  UNL     1      34.136  51.575  45.517  1.00  0.00    -0.398 OA
ATOM     16  H1  UNL     1      34.592  51.911  44.754  1.00  0.00     0.209 HD
ENDBRANCH  14  15
ENDBRANCH  10  14
BRANCH  11  17
HETATM   17  O6  UNL     1      34.242  53.336  47.950  1.00  0.00    -0.390 OA
ATOM     18  H6  UNL     1      34.499  53.108  47.064  1.00  0.00     0.210 HD
ENDBRANCH  11  17
BRANCH  12  19
HETATM   19  C16 UNL     1      33.162  53.041  50.770  1.00  0.00     0.198 C 
BRANCH  19  20
HETATM   20  O5  UNL     1      34.002  52.334  51.643  1.00  0.00    -0.398 OA
ATOM     21  H5  UNL     1      34.581  52.931  52.100  1.00  0.00     0.209 HD
ENDBRANCH  19  20
ENDBRANCH  12  19
ENDBRANCH   1   8
BRANCH   6  22
HETATM   22  C9  UNL     1      27.833  50.397  46.790  1.00  0.00     0.052 C 
BRANCH  22  23
HETATM   23  C10 UNL     1      28.251  50.472  45.350  1.00  0.00     0.075 C 
HETATM   24  C11 UNL     1      27.949  49.195  44.556  1.00  0.00     0.096 C 
HETATM   25  C12 UNL     1      27.584  50.129  43.395  1.00  0.00     0.308 C 
HETATM   26  F1  UNL     1      28.712  50.596  42.758  1.00  0.00    -0.200 F 
HETATM   27  F2  UNL     1      26.574  49.676  42.609  1.00  0.00    -0.200 F 
HETATM   28  C13 UNL     1      27.170  51.130  44.482  1.00  0.00     0.311 C 
HETATM   29  F3  UNL     1      25.902  50.796  44.928  1.00  0.00    -0.199 F 
HETATM   30  F4  UNL     1      27.382  52.433  44.176  1.00  0.00    -0.199 F 
ENDBRANCH  22  23
ENDBRANCH   6  22
BRANCH   5  31
HETATM   31  O3  UNL     1      27.223  48.005  48.150  1.00  0.00    -0.358 OA
ATOM     32  H3  UNL     1      26.574  48.150  48.828  1.00  0.00     0.217 HD
ENDBRANCH   5  31
TORSDOF 9
ENDMDL
MODEL 3
REMARK VINA RESULT: -7.314784333      3.579      5.029
REMARK  9 active torsions:
REMARK  status: ('A' for Active; 'I' for Inactive)
REMARK    1  A    between atoms: O1_1  and  C1_3 
REMARK    2  A    between atoms: C1_3  and  C2_4 
REMARK    3  A    between atoms: C3_6  and  C4_7 
REMARK    4  A    between atoms: C7_11  and  O3_12 
REMARK    5  A    between atoms: C8_14  and  C9_15 
REMARK    6  A    between atoms: C9_15  and  C10_16 
REMARK    7  A    between atoms: C15_26  and  C16_27 
REMARK    8  A    between atoms: C16_27  and  O5_28 
REMARK    9  A    between atoms: C17_30  and  O6_31 
ROOT
HETATM    1  C4  UNL     1      29.884  50.805  46.213  1.00  0.00    -0.001 A 
HETATM    2  C5  UNL     1      29.423  51.078  44.937  1.00  0.00     0.039 A 
HETATM    3  C6  UNL     1      28.522  50.219  44.344  1.00  0.00     0.068 A 
HETATM    4 CL1  UNL     1      27.952  50.577  42.738  1.00  0.00    -0.081 Cl
HETATM    5  C7  UNL     1      28.075  49.093  45.010  1.00  0.00     0.093 A 
HETATM    6  C8  UNL     1      28.517  48.789  46.291  1.00  0.00    -0.022 A 
HETATM    7  C14 UNL     1      29.417  49.673  46.847  1.00  0.00     0.022 A 
ENDROOT
BRANCH   1   8
HETATM    8  C3  UNL     1      30.866  51.716  46.891  1.00  0.00     0.295 C 
HETATM    9  O2  UNL     1      32.161  51.492  46.476  1.00  0.00    -0.347 OA
HETATM   10  C2  UNL     1      32.996  52.284  47.233  1.00  0.00     0.179 C 
HETATM   11  C17 UNL     1      32.784  53.725  46.841  1.00  0.00     0.180 C 
HETATM   12  C15 UNL     1      31.395  53.858  46.222  1.00  0.00     0.179 C 
HETATM   13  O4  UNL     1      30.461  53.021  46.788  1.00  0.00    -0.347 OA
BRANCH  10  14
HETATM   14  C1  UNL     1      34.448  51.931  47.039  1.00  0.00     0.198 C 
BRANCH  14  15
HETATM   15  O1  UNL     1      34.703  51.234  45.868  1.00  0.00    -0.398 OA
ATOM     16  H1  UNL     1      34.055  51.378  45.188  1.00  0.00     0.209 HD
ENDBRANCH  14  15
ENDBRANCH  10  14
BRANCH  11  17
HETATM   17  O6  UNL     1      33.679  54.075  45.849  1.00  0.00    -0.390 OA
ATOM     18  H6  UNL     1      34.160  54.852  46.112  1.00  0.00     0.210 HD
ENDBRANCH  11  17
BRANCH  12  19
HETATM   19  C16 UNL     1      30.957  55.292  46.413  1.00  0.00     0.198 C 
BRANCH  19  20
HETATM   20  O5  UNL     1      31.556  56.117  45.450  1.00  0.00    -0.398 OA
ATOM     21  H5  UNL     1      30.894  56.508  44.893  1.00  0.00     0.209 HD
ENDBRANCH  19  20
ENDBRANCH  12  19
ENDBRANCH   1   8
BRANCH   6  22
HETATM   22  C9  UNL     1      28.024  47.572  46.989  1.00  0.00     0.052 C 
BRANCH  22  23
HETATM   23  C10 UNL     1      28.476  47.489  48.417  1.00  0.00     0.075 C 
HETATM   24  C11 UNL     1      27.967  46.241  49.150  1.00  0.00     0.096 C 
HETATM   25  C12 UNL     1      29.345  46.203  49.823  1.00  0.00     0.308 C 
HETATM   26  F1  UNL     1      29.424  47.119  50.849  1.00  0.00    -0.200 F 
HETATM   27  F2  UNL     1      29.810  44.953  50.076  1.00  0.00    -0.200 F 
HETATM   28  C13 UNL     1      29.866  46.849  48.532  1.00  0.00     0.311 C 
HETATM   29  F3  UNL     1      30.037  45.856  47.582  1.00  0.00    -0.199 F 
HETATM   30  F4  UNL     1      30.895  47.716  48.696  1.00  0.00    -0.199 F 
ENDBRANCH  22  23
ENDBRANCH   6  22
BRANCH   5  31
HETATM   31  O3  UNL     1      27.176  48.257  44.390  1.00  0.00    -0.358 OA
ATOM     32  H3  UNL     1      26.894  47.466  44.833  1.00  0.00     0.217 HD
ENDBRANCH   5  31
TORSDOF 9
ENDMDL
MODEL 4
REMARK VINA RESULT: -7.280181771      3.122      4.767
REMARK  9 active torsions:
REMARK  status: ('A' for Active; 'I' for Inactive)
REMARK    1  A    between atoms: O1_1  and  C1_3 
REMARK    2  A    between atoms: C1_3  and  C2_4 
REMARK    3  A    between atoms: C3_6  and  C4_7 
REMARK    4  A    between atoms: C7_11  and  O3_12 
REMARK    5  A    between atoms: C8_14  and  C9_15 
REMARK    6  A    between atoms: C9_15  and  C10_16 
REMARK    7  A    between atoms: C15_26  and  C16_27 
REMARK    8  A    between atoms: C16_27  and  O5_28 
REMARK    9  A    between atoms: C17_30  and  O6_31 
ROOT
HETATM    1  C4  UNL     1      30.472  51.106  46.848  1.00  0.00    -0.001 A 
HETATM    2  C5  UNL     1      30.139  51.031  45.507  1.00  0.00     0.039 A 
HETATM    3  C6  UNL     1      29.058  50.268  45.119  1.00  0.00     0.068 A 
HETATM    4 CL1  UNL     1      28.651  50.185  43.427  1.00  0.00    -0.081 Cl
HETATM    5  C7  UNL     1      28.305  49.581  46.053  1.00  0.00     0.093 A 
HETATM    6  C8  UNL     1      28.611  49.634  47.407  1.00  0.00    -0.022 A 
HETATM    7  C14 UNL     1      29.700  50.407  47.752  1.00  0.00     0.022 A 
ENDROOT
BRANCH   1   8
HETATM    8  C3  UNL     1      31.642  51.925  47.308  1.00  0.00     0.295 C 
HETATM    9  O2  UNL     1      31.758  51.947  48.681  1.00  0.00    -0.347 OA
HETATM   10  C2  UNL     1      32.778  52.813  49.011  1.00  0.00     0.179 C 
HETATM   11  C17 UNL     1      34.091  52.198  48.593  1.00  0.00     0.180 C 
HETATM   12  C15 UNL     1      33.817  51.181  47.488  1.00  0.00     0.179 C 
HETATM   13  O4  UNL     1      32.784  51.543  46.655  1.00  0.00    -0.347 OA
BRANCH  10  14
HETATM   14  C1  UNL     1      32.822  53.107  50.488  1.00  0.00     0.198 C 
BRANCH  14  15
HETATM   15  O1  UNL     1      32.992  54.451  50.786  1.00  0.00    -0.398 OA
ATOM     16  H1  UNL     1      33.767  54.834  50.392  1.00  0.00     0.209 HD
ENDBRANCH  14  15
ENDBRANCH  10  14
BRANCH  11  17
HETATM   17  O6  UNL     1      34.626  51.483  49.646  1.00  0.00    -0.390 OA
ATOM     18  H6  UNL     1      35.436  51.067  49.372  1.00  0.00     0.210 HD
ENDBRANCH  11  17
BRANCH  12  19
HETATM   19  C16 UNL     1      35.087  51.052  46.678  1.00  0.00     0.198 C 
BRANCH  19  20
HETATM   20  O5  UNL     1      36.100  50.464  47.451  1.00  0.00    -0.398 OA
ATOM     21  H5  UNL     1      36.354  49.628  47.081  1.00  0.00     0.209 HD
ENDBRANCH  19  20
ENDBRANCH  12  19
ENDBRANCH   1   8
BRANCH   6  22
HETATM   22  C9  UNL     1      27.790  48.886  48.394  1.00  0.00     0.052 C 
BRANCH  22  23
HETATM   23  C10 UNL     1      28.551  47.794  49.087  1.00  0.00     0.075 C 
HETATM   24  C11 UNL     1      27.667  46.871  49.934  1.00  0.00     0.096 C 
HETATM   25  C12 UNL     1      28.565  45.730  49.440  1.00  0.00     0.308 C 
HETATM   26  F1  UNL     1      29.754  45.697  50.136  1.00  0.00    -0.200 F 
HETATM   27  F2  UNL     1      27.922  44.549  49.261  1.00  0.00    -0.200 F 
HETATM   28  C13 UNL     1      28.749  46.577  48.174  1.00  0.00     0.311 C 
HETATM   29  F3  UNL     1      27.649  46.386  47.354  1.00  0.00    -0.199 F 
HETATM   30  F4  UNL     1      29.967  46.480  47.587  1.00  0.00    -0.199 F 
ENDBRANCH  22  23
ENDBRANCH   6  22
BRANCH   5  31
HETATM   31  O3  UNL     1      27.233  48.829  45.632  1.00  0.00    -0.358 OA
ATOM     32  H3  UNL     1      27.212  48.508  44.738  1.00  0.00     0.217 HD
ENDBRANCH   5  31
TORSDOF 9
ENDMDL
MODEL 5
REMARK VINA RESULT: -7.270335805      3.311      4.619
REMARK  9 active torsions:
REMARK  status: ('A' for Active; 'I' for Inactive)
REMARK    1  A    between atoms: O1_1  and  C1_3 
REMARK    2  A    between atoms: C1_3  and  C2_4 
REMARK    3  A    between atoms: C3_6  and  C4_7 
REMARK    4  A    between atoms: C7_11  and  O3_12 
REMARK    5  A    between atoms: C8_14  and  C9_15 
REMARK    6  A    between atoms: C9_15  and  C10_16 
REMARK    7  A    between atoms: C15_26  and  C16_27 
REMARK    8  A    between atoms: C16_27  and  O5_28 
REMARK    9  A    between atoms: C17_30  and  O6_31 
ROOT
HETATM    1  C4  UNL     1      29.838  50.506  46.006  1.00  0.00    -0.001 A 
HETATM    2  C5  UNL     1      29.250  50.390  44.760  1.00  0.00     0.039 A 
HETATM    3  C6  UNL     1      28.055  49.712  44.634  1.00  0.00     0.068 A 
HETATM    4 CL1  UNL     1      27.327  49.576  43.058  1.00  0.00    -0.081 Cl
HETATM    5  C7  UNL     1      27.442  49.150  45.738  1.00  0.00     0.093 A 
HETATM    6  C8  UNL     1      28.005  49.247  47.004  1.00  0.00    -0.022 A 
HETATM    7  C14 UNL     1      29.199  49.933  47.085  1.00  0.00     0.022 A 
ENDROOT
BRANCH   1   8
HETATM    8  C3  UNL     1      31.138  51.236  46.182  1.00  0.00     0.295 C 
HETATM    9  O2  UNL     1      30.957  52.589  46.372  1.00  0.00    -0.347 OA
HETATM   10  C2  UNL     1      32.198  53.186  46.403  1.00  0.00     0.179 C 
HETATM   11  C17 UNL     1      32.901  52.780  47.675  1.00  0.00     0.180 C 
HETATM   12  C15 UNL     1      32.292  51.469  48.164  1.00  0.00     0.179 C 
HETATM   13  O4  UNL     1      31.903  50.631  47.144  1.00  0.00    -0.347 OA
BRANCH  10  14
HETATM   14  C1  UNL     1      32.110  54.689  46.349  1.00  0.00     0.198 C 
BRANCH  14  15
HETATM   15  O1  UNL     1      33.342  55.319  46.275  1.00  0.00    -0.398 OA
ATOM     16  H1  UNL     1      33.439  56.045  46.881  1.00  0.00     0.209 HD
ENDBRANCH  14  15
ENDBRANCH  10  14
BRANCH  11  17
HETATM   17  O6  UNL     1      32.650  53.710  48.664  1.00  0.00    -0.390 OA
ATOM     18  H6  UNL     1      32.479  53.266  49.486  1.00  0.00     0.210 HD
ENDBRANCH  11  17
BRANCH  12  19
HETATM   19  C16 UNL     1      33.343  50.776  49.002  1.00  0.00     0.198 C 
BRANCH  19  20
HETATM   20  O5  UNL     1      33.427  51.372  50.269  1.00  0.00    -0.398 OA
ATOM     21  H5  UNL     1      32.795  50.981  50.860  1.00  0.00     0.209 HD
ENDBRANCH  19  20
ENDBRANCH  12  19
ENDBRANCH   1   8
BRANCH   6  22
HETATM   22  C9  UNL     1      27.330  48.635  48.178  1.00  0.00     0.052 C 
BRANCH  22  23
HETATM   23  C10 UNL     1      28.206  47.673  48.926  1.00  0.00     0.075 C 
HETATM   24  C11 UNL     1      27.429  46.721  49.843  1.00  0.00     0.096 C 
HETATM   25  C12 UNL     1      28.436  45.648  49.408  1.00  0.00     0.308 C 
HETATM   26  F1  UNL     1      29.628  45.781  50.085  1.00  0.00    -0.200 F 
HETATM   27  F2  UNL     1      27.916  44.398  49.314  1.00  0.00    -0.200 F 
HETATM   28  C13 UNL     1      28.519  46.426  48.088  1.00  0.00     0.311 C 
HETATM   29  F3  UNL     1      27.438  46.072  47.300  1.00  0.00    -0.199 F 
HETATM   30  F4  UNL     1      29.736  46.417  47.489  1.00  0.00    -0.199 F 
ENDBRANCH  22  23
ENDBRANCH   6  22
BRANCH   5  31
HETATM   31  O3  UNL     1      26.251  48.481  45.578  1.00  0.00    -0.358 OA
ATOM     32  H3  UNL     1      25.489  48.954  45.265  1.00  0.00     0.217 HD
ENDBRANCH   5  31
TORSDOF 9
ENDMDL
