MODEL 1
REMARK VINA RESULT: -4.182193893      0.000      0.000
REMARK  1 active torsions:
REMARK  status: ('A' for Active; 'I' for Inactive)
REMARK    1  A    between atoms: C1_2  and  C2_4 
ROOT
HETATM    1  C2  UNL     1      22.987  15.037  58.134  1.00  0.00     0.083 C 
HETATM    2  C3  UNL     1      22.976  13.956  59.173  1.00  0.00    -0.001 C 
HETATM    3  C4  UNL     1      24.458  14.113  59.235  1.00  0.00     0.011 C 
HETATM    4  C5  UNL     1      24.151  14.214  57.762  1.00  0.00    -0.001 C 
HETATM    5  C6  UNL     1      23.247  13.022  58.014  1.00  0.00     0.011 C 
ENDROOT
BRANCH   1   6
HETATM    6  C1  UNL     1      23.165  16.415  58.570  1.00  0.00     0.236 C 
HETATM    7  N1  UNL     1      23.981  17.261  57.747  1.00  0.00    -0.062 NA
HETATM    8  O1  UNL     1      22.680  16.953  59.595  1.00  0.00    -0.276 OA
ENDBRANCH   1   6
TORSDOF 1
ENDMDL
MODEL 2
REMARK VINA RESULT: -4.054736957      1.261      1.699
REMARK  1 active torsions:
REMARK  status: ('A' for Active; 'I' for Inactive)
REMARK    1  A    between atoms: C1_2  and  C2_4 
ROOT
HETATM    1  C2  UNL     1      22.310  14.655  59.321  1.00  0.00     0.083 C 
HETATM    2  C3  UNL     1      23.554  13.820  59.294  1.00  0.00    -0.001 C 
HETATM    3  C4  UNL     1      23.211  13.500  57.878  1.00  0.00     0.011 C 
HETATM    4  C5  UNL     1      21.880  13.453  58.586  1.00  0.00    -0.001 C 
HETATM    5  C6  UNL     1      22.634  12.672  59.647  1.00  0.00     0.011 C 
ENDROOT
BRANCH   1   6
HETATM    6  C1  UNL     1      22.334  15.954  58.664  1.00  0.00     0.236 C 
HETATM    7  N1  UNL     1      23.475  16.789  58.909  1.00  0.00    -0.062 NA
HETATM    8  O1  UNL     1      21.461  16.433  57.901  1.00  0.00    -0.276 OA
ENDBRANCH   1   6
TORSDOF 1
ENDMDL
MODEL 3
REMARK VINA RESULT: -4.037712179      1.472      1.596
REMARK  1 active torsions:
REMARK  status: ('A' for Active; 'I' for Inactive)
REMARK    1  A    between atoms: C1_2  and  C2_4 
ROOT
HETATM    1  C2  UNL     1      22.369  14.554  58.336  1.00  0.00     0.083 C 
HETATM    2  C3  UNL     1      22.297  13.843  59.654  1.00  0.00    -0.001 C 
HETATM    3  C4  UNL     1      23.630  13.263  59.321  1.00  0.00     0.011 C 
HETATM    4  C5  UNL     1      22.884  13.213  58.011  1.00  0.00    -0.001 C 
HETATM    5  C6  UNL     1      21.733  12.690  58.851  1.00  0.00     0.011 C 
ENDROOT
BRANCH   1   6
HETATM    6  C1  UNL     1      23.229  15.723  58.227  1.00  0.00     0.236 C 
HETATM    7  N1  UNL     1      22.984  16.803  59.140  1.00  0.00    -0.062 NA
HETATM    8  O1  UNL     1      24.171  15.897  57.416  1.00  0.00    -0.276 OA
ENDBRANCH   1   6
TORSDOF 1
ENDMDL
MODEL 4
REMARK VINA RESULT: -3.982203725      1.562      1.562
REMARK  1 active torsions:
REMARK  status: ('A' for Active; 'I' for Inactive)
REMARK    1  A    between atoms: C1_2  and  C2_4 
ROOT
HETATM    1  C2  UNL     1      22.897  14.551  58.264  1.00  0.00     0.083 C 
HETATM    2  C3  UNL     1      23.119  13.181  58.828  1.00  0.00    -0.001 C 
HETATM    3  C4  UNL     1      24.402  13.705  59.381  1.00  0.00     0.011 C 
HETATM    4  C5  UNL     1      24.329  14.321  58.006  1.00  0.00    -0.001 C 
HETATM    5  C6  UNL     1      23.910  12.931  57.563  1.00  0.00     0.011 C 
ENDROOT
BRANCH   1   6
HETATM    6  C1  UNL     1      22.469  15.611  59.166  1.00  0.00     0.236 C 
HETATM    7  N1  UNL     1      21.379  15.315  60.051  1.00  0.00    -0.062 NA
HETATM    8  O1  UNL     1      22.950  16.766  59.258  1.00  0.00    -0.276 OA
ENDBRANCH   1   6
TORSDOF 1
ENDMDL
MODEL 5
REMARK VINA RESULT: -3.954059715      0.802      1.468
REMARK  1 active torsions:
REMARK  status: ('A' for Active; 'I' for Inactive)
REMARK    1  A    between atoms: C1_2  and  C2_4 
ROOT
HETATM    1  C2  UNL     1      24.048  14.745  58.978  1.00  0.00     0.083 C 
HETATM    2  C3  UNL     1      23.989  13.687  57.917  1.00  0.00    -0.001 C 
HETATM    3  C4  UNL     1      22.506  13.723  58.079  1.00  0.00     0.011 C 
HETATM    4  C5  UNL     1      23.021  13.824  59.493  1.00  0.00    -0.001 C 
HETATM    5  C6  UNL     1      23.967  12.713  59.076  1.00  0.00     0.011 C 
ENDROOT
BRANCH   1   6
HETATM    6  C1  UNL     1      23.701  16.111  58.613  1.00  0.00     0.236 C 
HETATM    7  N1  UNL     1      24.306  16.644  57.426  1.00  0.00    -0.062 NA
HETATM    8  O1  UNL     1      22.925  16.883  59.225  1.00  0.00    -0.276 OA
ENDBRANCH   1   6
TORSDOF 1
ENDMDL
