MODEL 1
REMARK VINA RESULT: -4.134899182      0.000      0.000
REMARK  1 active torsions:
REMARK  status: ('A' for Active; 'I' for Inactive)
REMARK    1  A    between atoms: C1_2  and  C2_4 
ROOT
HETATM    1  C2  UNL     1      29.034  15.705  17.246  1.00  0.00     0.075 C 
HETATM    2  C3  UNL     1      29.463  14.307  17.644  1.00  0.00     0.013 C 
HETATM    3  C4  UNL     1      28.299  14.214  18.622  1.00  0.00     0.002 C 
HETATM    4  C5  UNL     1      27.723  15.436  17.951  1.00  0.00     0.013 C 
ENDROOT
BRANCH   1   5
HETATM    5  C1  UNL     1      28.836  15.905  15.800  1.00  0.00     0.235 C 
HETATM    6  N1  UNL     1      28.740  17.169  15.160  1.00  0.00    -0.062 NA
HETATM    7  O1  UNL     1      28.743  14.886  15.072  1.00  0.00    -0.277 OA
ENDBRANCH   1   5
TORSDOF 1
ENDMDL
MODEL 2
REMARK VINA RESULT: -4.129526349      1.429      1.810
REMARK  1 active torsions:
REMARK  status: ('A' for Active; 'I' for Inactive)
REMARK    1  A    between atoms: C1_2  and  C2_4 
ROOT
HETATM    1  C2  UNL     1      28.296  14.810  17.016  1.00  0.00     0.075 C 
HETATM    2  C3  UNL     1      27.549  14.669  18.328  1.00  0.00     0.013 C 
HETATM    3  C4  UNL     1      28.532  13.601  18.788  1.00  0.00     0.002 C 
HETATM    4  C5  UNL     1      29.423  14.021  17.645  1.00  0.00     0.013 C 
ENDROOT
BRANCH   1   5
HETATM    5  C1  UNL     1      28.718  16.181  16.687  1.00  0.00     0.235 C 
HETATM    6  N1  UNL     1      28.674  16.755  15.388  1.00  0.00    -0.062 NA
HETATM    7  O1  UNL     1      29.152  16.904  17.618  1.00  0.00    -0.277 OA
ENDBRANCH   1   5
TORSDOF 1
ENDMDL
MODEL 3
REMARK VINA RESULT: -4.107103568      2.662      3.403
REMARK  1 active torsions:
REMARK  status: ('A' for Active; 'I' for Inactive)
REMARK    1  A    between atoms: C1_2  and  C2_4 
ROOT
HETATM    1  C2  UNL     1      29.061  15.836  17.605  1.00  0.00     0.075 C 
HETATM    2  C3  UNL     1      28.113  16.370  16.549  1.00  0.00     0.013 C 
HETATM    3  C4  UNL     1      28.957  15.737  15.451  1.00  0.00     0.002 C 
HETATM    4  C5  UNL     1      29.655  14.949  16.533  1.00  0.00     0.013 C 
ENDROOT
BRANCH   1   5
HETATM    5  C1  UNL     1      28.422  15.042  18.667  1.00  0.00     0.235 C 
HETATM    6  N1  UNL     1      29.045  13.978  19.372  1.00  0.00    -0.062 NA
HETATM    7  O1  UNL     1      27.237  15.318  18.978  1.00  0.00    -0.277 OA
ENDBRANCH   1   5
TORSDOF 1
ENDMDL
MODEL 4
REMARK VINA RESULT: -4.058436508      1.477      1.477
REMARK  1 active torsions:
REMARK  status: ('A' for Active; 'I' for Inactive)
REMARK    1  A    between atoms: C1_2  and  C2_4 
ROOT
HETATM    1  C2  UNL     1      28.651  15.345  17.322  1.00  0.00     0.075 C 
HETATM    2  C3  UNL     1      28.482  13.954  16.745  1.00  0.00     0.013 C 
HETATM    3  C4  UNL     1      27.708  13.519  17.983  1.00  0.00     0.002 C 
HETATM    4  C5  UNL     1      27.599  14.980  18.346  1.00  0.00     0.013 C 
ENDROOT
BRANCH   1   5
HETATM    5  C1  UNL     1      28.194  16.438  16.448  1.00  0.00     0.235 C 
HETATM    6  N1  UNL     1      28.830  16.835  15.242  1.00  0.00    -0.062 NA
HETATM    7  O1  UNL     1      27.165  17.074  16.788  1.00  0.00    -0.277 OA
ENDBRANCH   1   5
TORSDOF 1
ENDMDL
MODEL 5
REMARK VINA RESULT: -4.041527864      1.550      1.550
REMARK  1 active torsions:
REMARK  status: ('A' for Active; 'I' for Inactive)
REMARK    1  A    between atoms: C1_2  and  C2_4 
ROOT
HETATM    1  C2  UNL     1      28.572  15.603  17.310  1.00  0.00     0.075 C 
HETATM    2  C3  UNL     1      28.475  14.232  16.672  1.00  0.00     0.013 C 
HETATM    3  C4  UNL     1      27.802  13.683  17.923  1.00  0.00     0.002 C 
HETATM    4  C5  UNL     1      27.606  15.112  18.365  1.00  0.00     0.013 C 
ENDROOT
BRANCH   1   5
HETATM    5  C1  UNL     1      27.990  16.699  16.517  1.00  0.00     0.235 C 
HETATM    6  N1  UNL     1      26.803  17.403  16.851  1.00  0.00    -0.062 NA
HETATM    7  O1  UNL     1      28.582  17.042  15.463  1.00  0.00    -0.277 OA
ENDBRANCH   1   5
TORSDOF 1
ENDMDL
