MODEL 1
REMARK VINA RESULT: -4.354512010      0.000      0.000
REMARK  1 active torsions:
REMARK  status: ('A' for Active; 'I' for Inactive)
REMARK    1  A    between atoms: C1_2  and  C2_4 
ROOT
HETATM    1  C2  UNL     1      27.979  14.908  17.172  1.00  0.00     0.075 C 
HETATM    2  C3  UNL     1      28.515  13.741  16.337  1.00  0.00     0.013 C 
HETATM    3  C4  UNL     1      27.898  12.566  17.034  1.00  0.00     0.001 C 
HETATM    4  C5  UNL     1      27.463  13.015  18.399  1.00  0.00     0.001 C 
HETATM    5  C6  UNL     1      28.226  14.314  18.565  1.00  0.00     0.013 C 
ENDROOT
BRANCH   1   6
HETATM    6  C1  UNL     1      28.721  16.141  16.953  1.00  0.00     0.235 C 
HETATM    7  N1  UNL     1      28.869  16.632  15.626  1.00  0.00    -0.062 NA
HETATM    8  O1  UNL     1      29.218  16.758  17.903  1.00  0.00    -0.277 OA
ENDBRANCH   1   6
TORSDOF 1
ENDMDL
MODEL 2
REMARK VINA RESULT: -4.306772373      1.377      1.993
REMARK  1 active torsions:
REMARK  status: ('A' for Active; 'I' for Inactive)
REMARK    1  A    between atoms: C1_2  and  C2_4 
ROOT
HETATM    1  C2  UNL     1      28.859  14.071  17.588  1.00  0.00     0.075 C 
HETATM    2  C3  UNL     1      27.586  13.234  17.742  1.00  0.00     0.013 C 
HETATM    3  C4  UNL     1      27.761  12.218  16.653  1.00  0.00     0.001 C 
HETATM    4  C5  UNL     1      28.790  12.743  15.694  1.00  0.00     0.001 C 
HETATM    5  C6  UNL     1      28.846  14.213  16.059  1.00  0.00     0.013 C 
ENDROOT
BRANCH   1   6
HETATM    6  C1  UNL     1      28.771  15.355  18.267  1.00  0.00     0.235 C 
HETATM    7  N1  UNL     1      29.085  16.541  17.547  1.00  0.00    -0.062 NA
HETATM    8  O1  UNL     1      28.429  15.421  19.455  1.00  0.00    -0.277 OA
ENDBRANCH   1   6
TORSDOF 1
ENDMDL
MODEL 3
REMARK VINA RESULT: -4.306365216      1.813      2.342
REMARK  1 active torsions:
REMARK  status: ('A' for Active; 'I' for Inactive)
REMARK    1  A    between atoms: C1_2  and  C2_4 
ROOT
HETATM    1  C2  UNL     1      28.616  16.094  17.115  1.00  0.00     0.075 C 
HETATM    2  C3  UNL     1      27.697  15.323  18.068  1.00  0.00     0.013 C 
HETATM    3  C4  UNL     1      28.571  14.170  18.459  1.00  0.00     0.001 C 
HETATM    4  C5  UNL     1      29.676  14.064  17.449  1.00  0.00     0.001 C 
HETATM    5  C6  UNL     1      29.143  14.902  16.304  1.00  0.00     0.013 C 
ENDROOT
BRANCH   1   6
HETATM    6  C1  UNL     1      27.893  17.052  16.291  1.00  0.00     0.235 C 
HETATM    7  N1  UNL     1      26.676  17.604  16.780  1.00  0.00    -0.062 NA
HETATM    8  O1  UNL     1      28.326  17.386  15.181  1.00  0.00    -0.277 OA
ENDBRANCH   1   6
TORSDOF 1
ENDMDL
MODEL 4
REMARK VINA RESULT: -4.293497182      1.640      1.831
REMARK  1 active torsions:
REMARK  status: ('A' for Active; 'I' for Inactive)
REMARK    1  A    between atoms: C1_2  and  C2_4 
ROOT
HETATM    1  C2  UNL     1      28.228  14.537  17.136  1.00  0.00     0.075 C 
HETATM    2  C3  UNL     1      29.376  14.035  16.254  1.00  0.00     0.013 C 
HETATM    3  C4  UNL     1      28.821  12.736  15.750  1.00  0.00     0.001 C 
HETATM    4  C5  UNL     1      27.685  12.340  16.648  1.00  0.00     0.001 C 
HETATM    5  C6  UNL     1      27.915  13.220  17.861  1.00  0.00     0.013 C 
ENDROOT
BRANCH   1   6
HETATM    6  C1  UNL     1      28.644  15.590  18.050  1.00  0.00     0.235 C 
HETATM    7  N1  UNL     1      28.465  15.402  19.449  1.00  0.00    -0.062 NA
HETATM    8  O1  UNL     1      29.146  16.638  17.623  1.00  0.00    -0.277 OA
ENDBRANCH   1   6
TORSDOF 1
ENDMDL
MODEL 5
REMARK VINA RESULT: -4.277418913      1.696      2.278
REMARK  1 active torsions:
REMARK  status: ('A' for Active; 'I' for Inactive)
REMARK    1  A    between atoms: C1_2  and  C2_4 
ROOT
HETATM    1  C2  UNL     1      28.918  15.974  16.576  1.00  0.00     0.075 C 
HETATM    2  C3  UNL     1      27.729  15.891  17.537  1.00  0.00     0.013 C 
HETATM    3  C4  UNL     1      28.184  14.824  18.487  1.00  0.00     0.001 C 
HETATM    4  C5  UNL     1      29.298  14.064  17.827  1.00  0.00     0.001 C 
HETATM    5  C6  UNL     1      29.144  14.469  16.375  1.00  0.00     0.013 C 
ENDROOT
BRANCH   1   6
HETATM    6  C1  UNL     1      28.589  16.658  15.334  1.00  0.00     0.235 C 
HETATM    7  N1  UNL     1      29.101  16.150  14.108  1.00  0.00    -0.062 NA
HETATM    8  O1  UNL     1      27.874  17.669  15.339  1.00  0.00    -0.277 OA
ENDBRANCH   1   6
TORSDOF 1
ENDMDL
