MODEL 1
REMARK VINA RESULT: -9.700789414      0.000      0.000
REMARK  4 active torsions:
REMARK  status: ('A' for Active; 'I' for Inactive)
REMARK    1  A    between atoms: C2_2  and  C3_3 
REMARK    2  A    between atoms: N1_12  and  C10_13 
REMARK    3  A    between atoms: C10_13  and  C11_14 
REMARK    4  A    between atoms: C23_26  and  O1_27 
ROOT
HETATM    1  C11 UNL     1       6.968  25.479 119.154  1.00  0.00    -0.027 C 
HETATM    2  C12 UNL     1       5.957  24.943 118.490  1.00  0.00    -0.019 C 
HETATM    3  C13 UNL     1       4.567  25.322 118.800  1.00  0.00     0.033 C 
HETATM    4  C14 UNL     1       4.372  26.755 119.153  1.00  0.00     0.008 C 
HETATM    5  C15 UNL     1       3.439  27.394 118.169  1.00  0.00    -0.043 C 
HETATM    6  C16 UNL     1       2.948  28.750 118.552  1.00  0.00     0.015 C 
HETATM    7  C17 UNL     1       2.233  26.501 117.997  1.00  0.00     0.015 C 
HETATM    8  C18 UNL     1       4.183  27.457 116.855  1.00  0.00     0.009 C 
HETATM    9  C19 UNL     1       5.457  28.208 116.932  1.00  0.00     0.002 C 
HETATM   10  C20 UNL     1       6.303  28.003 118.139  1.00  0.00     0.012 C 
HETATM   11  C21 UNL     1       5.638  27.540 119.362  1.00  0.00    -0.009 C 
HETATM   12  C22 UNL     1       5.350  28.635 120.362  1.00  0.00     0.018 C 
HETATM   13  C23 UNL     1       6.546  26.546 120.144  1.00  0.00     0.157 C 
ENDROOT
BRANCH   1  14
HETATM   14  C10 UNL     1       8.373  25.155 118.910  1.00  0.00     0.309 C 
BRANCH  14  15
HETATM   15  N1  UNL     1       8.753  23.770 119.141  1.00  0.00     0.097 N 
HETATM   16  C3  UNL     1       9.989  23.745 119.867  1.00  0.00     0.223 C 
HETATM   17  C4  UNL     1      10.852  22.550 119.711  1.00  0.00     0.036 C 
HETATM   18  C5  UNL     1      10.200  21.237 120.033  1.00  0.00     0.008 C 
HETATM   19  C6  UNL     1       9.763  20.479 118.799  1.00  0.00     0.079 C 
HETATM   20  C7  UNL     1       8.303  20.629 118.547  1.00  0.00     0.245 C 
HETATM   21  F1  UNL     1       7.660  20.439 119.769  1.00  0.00    -0.206 F 
HETATM   22  F2  UNL     1       7.873  19.561 117.756  1.00  0.00    -0.206 F 
HETATM   23  C8  UNL     1       7.871  21.893 117.877  1.00  0.00     0.109 C 
HETATM   24  C9  UNL     1       8.816  23.028 117.907  1.00  0.00     0.279 C 
BRANCH  16  25
HETATM   25  C2  UNL     1      10.855  24.961 119.774  1.00  0.00     0.031 C 
HETATM   26  C1  UNL     1      12.335  24.687 119.757  1.00  0.00     0.007 C 
ENDBRANCH  16  25
ENDBRANCH  14  15
ENDBRANCH   1  14
BRANCH  13  27
HETATM   27  O1  UNL     1       5.709  25.973 121.071  1.00  0.00    -0.390 OA
ATOM     28  H1  UNL     1       5.167  26.655 121.448  1.00  0.00     0.210 HD
ENDBRANCH  13  27
TORSDOF 4
ENDMDL
MODEL 2
REMARK VINA RESULT: -9.266362181      2.483      3.992
REMARK  4 active torsions:
REMARK  status: ('A' for Active; 'I' for Inactive)
REMARK    1  A    between atoms: C2_2  and  C3_3 
REMARK    2  A    between atoms: N1_12  and  C10_13 
REMARK    3  A    between atoms: C10_13  and  C11_14 
REMARK    4  A    between atoms: C23_26  and  O1_27 
ROOT
HETATM    1  C11 UNL     1       6.360  25.017 117.785  1.00  0.00    -0.027 C 
HETATM    2  C12 UNL     1       6.275  26.176 118.417  1.00  0.00    -0.019 C 
HETATM    3  C13 UNL     1       5.686  27.354 117.755  1.00  0.00     0.033 C 
HETATM    4  C14 UNL     1       4.530  27.059 116.865  1.00  0.00     0.008 C 
HETATM    5  C15 UNL     1       3.313  27.779 117.365  1.00  0.00    -0.043 C 
HETATM    6  C16 UNL     1       2.153  27.789 116.426  1.00  0.00     0.015 C 
HETATM    7  C17 UNL     1       3.685  29.215 117.649  1.00  0.00     0.015 C 
HETATM    8  C18 UNL     1       2.929  27.116 118.667  1.00  0.00     0.009 C 
HETATM    9  C19 UNL     1       2.660  25.665 118.534  1.00  0.00     0.002 C 
HETATM   10  C20 UNL     1       3.566  24.877 117.655  1.00  0.00     0.012 C 
HETATM   11  C21 UNL     1       4.283  25.600 116.598  1.00  0.00    -0.009 C 
HETATM   12  C22 UNL     1       3.659  25.472 115.229  1.00  0.00     0.018 C 
HETATM   13  C23 UNL     1       5.719  25.026 116.412  1.00  0.00     0.157 C 
ENDROOT
BRANCH   1  14
HETATM   14  C10 UNL     1       6.933  23.805 118.368  1.00  0.00     0.309 C 
BRANCH  14  15
HETATM   15  N1  UNL     1       8.362  23.843 118.636  1.00  0.00     0.097 N 
HETATM   16  C3  UNL     1       8.942  22.597 118.229  1.00  0.00     0.223 C 
HETATM   17  C4  UNL     1      10.189  22.169 118.906  1.00  0.00     0.036 C 
HETATM   18  C5  UNL     1      11.324  23.150 118.847  1.00  0.00     0.008 C 
HETATM   19  C6  UNL     1      11.482  23.943 120.125  1.00  0.00     0.079 C 
HETATM   20  C7  UNL     1      10.893  25.306 120.006  1.00  0.00     0.245 C 
HETATM   21  F1  UNL     1      11.318  25.824 118.784  1.00  0.00    -0.206 F 
HETATM   22  F2  UNL     1      11.483  26.134 120.963  1.00  0.00    -0.206 F 
HETATM   23  C8  UNL     1       9.411  25.405 120.173  1.00  0.00     0.109 C 
HETATM   24  C9  UNL     1       8.631  24.161 120.016  1.00  0.00     0.279 C 
BRANCH  16  25
HETATM   25  C2  UNL     1       8.027  21.417 118.148  1.00  0.00     0.031 C 
HETATM   26  C1  UNL     1       8.197  20.404 119.248  1.00  0.00     0.007 C 
ENDBRANCH  16  25
ENDBRANCH  14  15
ENDBRANCH   1  14
BRANCH  13  27
HETATM   27  O1  UNL     1       6.363  25.960 115.637  1.00  0.00    -0.390 OA
ATOM     28  H1  UNL     1       6.292  26.805 116.065  1.00  0.00     0.210 HD
ENDBRANCH  13  27
TORSDOF 4
ENDMDL
MODEL 3
REMARK VINA RESULT: -8.666177083      1.223      1.606
REMARK  4 active torsions:
REMARK  status: ('A' for Active; 'I' for Inactive)
REMARK    1  A    between atoms: C2_2  and  C3_3 
REMARK    2  A    between atoms: N1_12  and  C10_13 
REMARK    3  A    between atoms: C10_13  and  C11_14 
REMARK    4  A    between atoms: C23_26  and  O1_27 
ROOT
HETATM    1  C11 UNL     1       6.372  26.011 118.881  1.00  0.00    -0.027 C 
HETATM    2  C12 UNL     1       5.426  25.087 118.892  1.00  0.00    -0.019 C 
HETATM    3  C13 UNL     1       4.002  25.467 118.867  1.00  0.00     0.033 C 
HETATM    4  C14 UNL     1       3.685  26.654 118.026  1.00  0.00     0.008 C 
HETATM    5  C15 UNL     1       2.733  26.260 116.937  1.00  0.00    -0.043 C 
HETATM    6  C16 UNL     1       2.125  27.397 116.186  1.00  0.00     0.015 C 
HETATM    7  C17 UNL     1       1.606  25.460 117.548  1.00  0.00     0.015 C 
HETATM    8  C18 UNL     1       3.504  25.363 115.998  1.00  0.00     0.009 C 
HETATM    9  C19 UNL     1       4.713  26.004 115.429  1.00  0.00     0.002 C 
HETATM   10  C20 UNL     1       5.538  26.843 116.340  1.00  0.00     0.012 C 
HETATM   11  C21 UNL     1       4.878  27.416 117.518  1.00  0.00    -0.009 C 
HETATM   12  C22 UNL     1       4.478  28.863 117.359  1.00  0.00     0.018 C 
HETATM   13  C23 UNL     1       5.841  27.423 118.742  1.00  0.00     0.157 C 
ENDROOT
BRANCH   1  14
HETATM   14  C10 UNL     1       7.805  25.718 118.907  1.00  0.00     0.309 C 
BRANCH  14  15
HETATM   15  N1  UNL     1       8.162  24.314 119.037  1.00  0.00     0.097 N 
HETATM   16  C3  UNL     1       9.142  24.180 120.075  1.00  0.00     0.223 C 
HETATM   17  C4  UNL     1      10.062  23.021 120.003  1.00  0.00     0.036 C 
HETATM   18  C5  UNL     1       9.402  21.675 119.934  1.00  0.00     0.008 C 
HETATM   19  C6  UNL     1       9.365  21.110 118.531  1.00  0.00     0.079 C 
HETATM   20  C7  UNL     1       8.031  21.297 117.895  1.00  0.00     0.245 C 
HETATM   21  F1  UNL     1       7.078  20.927 118.841  1.00  0.00    -0.206 F 
HETATM   22  F2  UNL     1       7.889  20.359 116.869  1.00  0.00    -0.206 F 
HETATM   23  C8  UNL     1       7.755  22.647 117.317  1.00  0.00     0.109 C 
HETATM   24  C9  UNL     1       8.603  23.764 117.779  1.00  0.00     0.279 C 
BRANCH  16  25
HETATM   25  C2  UNL     1       9.947  25.395 120.409  1.00  0.00     0.031 C 
HETATM   26  C1  UNL     1      11.363  25.379 119.899  1.00  0.00     0.007 C 
ENDBRANCH  16  25
ENDBRANCH  14  15
ENDBRANCH   1  14
BRANCH  13  27
HETATM   27  O1  UNL     1       5.026  27.688 119.817  1.00  0.00    -0.390 OA
ATOM     28  H1  UNL     1       4.158  27.353 119.625  1.00  0.00     0.210 HD
ENDBRANCH  13  27
TORSDOF 4
ENDMDL
MODEL 4
REMARK VINA RESULT: -7.836358481      2.397      3.551
REMARK  4 active torsions:
REMARK  status: ('A' for Active; 'I' for Inactive)
REMARK    1  A    between atoms: C2_2  and  C3_3 
REMARK    2  A    between atoms: N1_12  and  C10_13 
REMARK    3  A    between atoms: C10_13  and  C11_14 
REMARK    4  A    between atoms: C23_26  and  O1_27 
ROOT
HETATM    1  C11 UNL     1       5.610  25.203 118.366  1.00  0.00    -0.027 C 
HETATM    2  C12 UNL     1       4.357  25.034 118.754  1.00  0.00    -0.019 C 
HETATM    3  C13 UNL     1       3.489  26.195 119.021  1.00  0.00     0.033 C 
HETATM    4  C14 UNL     1       3.693  27.353 118.107  1.00  0.00     0.008 C 
HETATM    5  C15 UNL     1       2.424  27.637 117.362  1.00  0.00    -0.043 C 
HETATM    6  C16 UNL     1       2.405  28.928 116.614  1.00  0.00     0.015 C 
HETATM    7  C17 UNL     1       1.280  27.662 118.348  1.00  0.00     0.015 C 
HETATM    8  C18 UNL     1       2.216  26.478 116.414  1.00  0.00     0.009 C 
HETATM    9  C19 UNL     1       3.342  26.276 115.473  1.00  0.00     0.002 C 
HETATM   10  C20 UNL     1       4.722  26.428 116.010  1.00  0.00     0.012 C 
HETATM   11  C21 UNL     1       4.895  27.255 117.209  1.00  0.00    -0.009 C 
HETATM   12  C22 UNL     1       5.387  28.655 116.928  1.00  0.00     0.018 C 
HETATM   13  C23 UNL     1       5.987  26.653 118.143  1.00  0.00     0.157 C 
ENDROOT
BRANCH   1  14
HETATM   14  C10 UNL     1       6.536  24.106 118.086  1.00  0.00     0.309 C 
BRANCH  14  15
HETATM   15  N1  UNL     1       7.898  24.289 118.561  1.00  0.00     0.097 N 
HETATM   16  C3  UNL     1       8.736  23.293 117.959  1.00  0.00     0.223 C 
HETATM   17  C4  UNL     1       9.963  22.898 118.689  1.00  0.00     0.036 C 
HETATM   18  C5  UNL     1      10.900  24.019 119.033  1.00  0.00     0.008 C 
HETATM   19  C6  UNL     1      10.776  24.468 120.472  1.00  0.00     0.079 C 
HETATM   20  C7  UNL     1       9.963  25.710 120.595  1.00  0.00     0.245 C 
HETATM   21  F1  UNL     1      10.411  26.586 119.608  1.00  0.00    -0.206 F 
HETATM   22  F2  UNL     1      10.290  26.342 121.798  1.00  0.00    -0.206 F 
HETATM   23  C8  UNL     1       8.480  25.538 120.562  1.00  0.00     0.109 C 
HETATM   24  C9  UNL     1       7.960  24.274 120.001  1.00  0.00     0.279 C 
BRANCH  16  25
HETATM   25  C2  UNL     1       8.065  22.051 117.467  1.00  0.00     0.031 C 
HETATM   26  C1  UNL     1       8.200  20.855 118.370  1.00  0.00     0.007 C 
ENDBRANCH  16  25
ENDBRANCH  14  15
ENDBRANCH   1  14
BRANCH  13  27
HETATM   27  O1  UNL     1       5.834  27.330 119.329  1.00  0.00    -0.390 OA
ATOM     28  H1  UNL     1       6.696  27.505 119.688  1.00  0.00     0.210 HD
ENDBRANCH  13  27
TORSDOF 4
ENDMDL
MODEL 5
REMARK VINA RESULT: -7.811484378      2.405      3.800
REMARK  4 active torsions:
REMARK  status: ('A' for Active; 'I' for Inactive)
REMARK    1  A    between atoms: C2_2  and  C3_3 
REMARK    2  A    between atoms: N1_12  and  C10_13 
REMARK    3  A    between atoms: C10_13  and  C11_14 
REMARK    4  A    between atoms: C23_26  and  O1_27 
ROOT
HETATM    1  C11 UNL     1       5.845  24.780 117.669  1.00  0.00    -0.027 C 
HETATM    2  C12 UNL     1       6.379  25.885 117.177  1.00  0.00    -0.019 C 
HETATM    3  C13 UNL     1       5.526  27.002 116.735  1.00  0.00     0.033 C 
HETATM    4  C14 UNL     1       4.312  27.230 117.567  1.00  0.00     0.008 C 
HETATM    5  C15 UNL     1       4.360  28.606 118.161  1.00  0.00    -0.043 C 
HETATM    6  C16 UNL     1       3.090  29.065 118.797  1.00  0.00     0.015 C 
HETATM    7  C17 UNL     1       4.709  29.591 117.071  1.00  0.00     0.015 C 
HETATM    8  C18 UNL     1       5.480  28.594 119.176  1.00  0.00     0.009 C 
HETATM    9  C19 UNL     1       5.308  27.573 120.234  1.00  0.00     0.002 C 
HETATM   10  C20 UNL     1       4.801  26.235 119.821  1.00  0.00     0.012 C 
HETATM   11  C21 UNL     1       4.021  26.159 118.582  1.00  0.00    -0.009 C 
HETATM   12  C22 UNL     1       2.527  26.107 118.793  1.00  0.00     0.018 C 
HETATM   13  C23 UNL     1       4.337  24.844 117.809  1.00  0.00     0.157 C 
ENDROOT
BRANCH   1  14
HETATM   14  C10 UNL     1       6.620  23.626 118.125  1.00  0.00     0.309 C 
BRANCH  14  15
HETATM   15  N1  UNL     1       7.974  23.910 118.574  1.00  0.00     0.097 N 
HETATM   16  C3  UNL     1       8.839  22.858 118.127  1.00  0.00     0.223 C 
HETATM   17  C4  UNL     1      10.070  22.604 118.912  1.00  0.00     0.036 C 
HETATM   18  C5  UNL     1      10.977  23.786 119.091  1.00  0.00     0.008 C 
HETATM   19  C6  UNL     1      10.833  24.437 120.449  1.00  0.00     0.079 C 
HETATM   20  C7  UNL     1       9.990  25.663 120.387  1.00  0.00     0.245 C 
HETATM   21  F1  UNL     1      10.424  26.396 119.284  1.00  0.00    -0.206 F 
HETATM   22  F2  UNL     1      10.292  26.471 121.485  1.00  0.00    -0.206 F 
HETATM   23  C8  UNL     1       8.510  25.452 120.373  1.00  0.00     0.109 C 
HETATM   24  C9  UNL     1       8.025  24.107 120.001  1.00  0.00     0.279 C 
BRANCH  16  25
HETATM   25  C2  UNL     1       8.202  21.541 117.818  1.00  0.00     0.031 C 
HETATM   26  C1  UNL     1       8.366  20.491 118.884  1.00  0.00     0.007 C 
ENDBRANCH  16  25
ENDBRANCH  14  15
ENDBRANCH   1  14
BRANCH  13  27
HETATM   27  O1  UNL     1       3.793  25.040 116.563  1.00  0.00    -0.390 OA
ATOM     28  H1  UNL     1       2.972  25.507 116.663  1.00  0.00     0.210 HD
ENDBRANCH  13  27
TORSDOF 4
ENDMDL
