MODEL 1
REMARK VINA RESULT: -4.765076775      0.000      0.000
REMARK  3 active torsions:
REMARK  status: ('A' for Active; 'I' for Inactive)
REMARK    1  A    between atoms: C1_2  and  N1_3 
REMARK    2  A    between atoms: N1_3  and  C2_5 
REMARK    3  A    between atoms: N2_8  and  C5_9 
ROOT
HETATM    1  C2  UNL     1     138.626 123.258  84.685  1.00  0.00     0.103 C 
HETATM    2  C3  UNL     1     138.291 124.048  83.415  1.00  0.00     0.046 C 
HETATM    3  C4  UNL     1     138.262 122.929  82.395  1.00  0.00     0.127 C 
HETATM    4  N2  UNL     1     137.534 121.897  83.107  1.00  0.00    -0.357 N 
HETATM    5  C6  UNL     1     137.748 122.053  84.532  1.00  0.00     0.150 C 
ENDROOT
BRANCH   1   6
HETATM    6  N1  UNL     1     138.373 124.006  85.875  1.00  0.00    -0.362 N 
ATOM      7  H1  UNL     1     137.689 123.677  86.556  1.00  0.00     0.162 HD
BRANCH   6   8
HETATM    8  C1  UNL     1     139.084 125.217  86.101  1.00  0.00     0.348 C 
HETATM    9  O1  UNL     1     138.647 126.141  86.804  1.00  0.00    -0.284 OA
ENDBRANCH   6   8
ENDBRANCH   1   6
BRANCH   4  10
HETATM   10  C5  UNL     1     136.744 120.903  82.493  1.00  0.00     0.350 C 
HETATM   11  O2  UNL     1     135.869 120.270  83.165  1.00  0.00    -0.284 OA
ENDBRANCH   4  10
TORSDOF 3
ENDMDL
MODEL 2
REMARK VINA RESULT: -4.626972289      1.175      1.226
REMARK  3 active torsions:
REMARK  status: ('A' for Active; 'I' for Inactive)
REMARK    1  A    between atoms: C1_2  and  N1_3 
REMARK    2  A    between atoms: N1_3  and  C2_5 
REMARK    3  A    between atoms: N2_8  and  C5_9 
ROOT
HETATM    1  C2  UNL     1     138.359 123.586  85.995  1.00  0.00     0.103 C 
HETATM    2  C3  UNL     1     138.653 124.241  84.640  1.00  0.00     0.046 C 
HETATM    3  C4  UNL     1     138.746 123.014  83.757  1.00  0.00     0.127 C 
HETATM    4  N2  UNL     1     137.621 122.227  84.221  1.00  0.00    -0.357 N 
HETATM    5  C6  UNL     1     137.359 122.537  85.612  1.00  0.00     0.150 C 
ENDROOT
BRANCH   1   6
HETATM    6  N1  UNL     1     137.872 124.521  86.958  1.00  0.00    -0.362 N 
ATOM      7  H1  UNL     1     137.082 124.281  87.556  1.00  0.00     0.162 HD
BRANCH   6   8
HETATM    8  C1  UNL     1     138.500 125.791  87.074  1.00  0.00     0.348 C 
HETATM    9  O1  UNL     1     137.881 126.836  87.328  1.00  0.00    -0.284 OA
ENDBRANCH   6   8
ENDBRANCH   1   6
BRANCH   4  10
HETATM   10  C5  UNL     1     136.903 121.307  83.429  1.00  0.00     0.350 C 
HETATM   11  O2  UNL     1     135.833 120.778  83.867  1.00  0.00    -0.284 OA
ENDBRANCH   4  10
TORSDOF 3
ENDMDL
MODEL 3
REMARK VINA RESULT: -4.488639690      1.452      5.145
REMARK  3 active torsions:
REMARK  status: ('A' for Active; 'I' for Inactive)
REMARK    1  A    between atoms: C1_2  and  N1_3 
REMARK    2  A    between atoms: N1_3  and  C2_5 
REMARK    3  A    between atoms: N2_8  and  C5_9 
ROOT
HETATM    1  C2  UNL     1     138.301 122.992  85.235  1.00  0.00     0.103 C 
HETATM    2  C3  UNL     1     137.159 123.132  86.248  1.00  0.00     0.046 C 
HETATM    3  C4  UNL     1     137.854 123.917  87.340  1.00  0.00     0.127 C 
HETATM    4  N2  UNL     1     138.587 124.906  86.575  1.00  0.00    -0.357 N 
HETATM    5  C6  UNL     1     138.902 124.365  85.267  1.00  0.00     0.150 C 
ENDROOT
BRANCH   1   6
HETATM    6  N1  UNL     1     137.838 122.597  83.943  1.00  0.00    -0.362 N 
ATOM      7  H1  UNL     1     138.239 123.012  83.103  1.00  0.00     0.162 HD
BRANCH   6   8
HETATM    8  C1  UNL     1     136.810 121.620  83.841  1.00  0.00     0.348 C 
HETATM    9  O1  UNL     1     136.904 120.605  83.132  1.00  0.00    -0.284 OA
ENDBRANCH   6   8
ENDBRANCH   1   6
BRANCH   4  10
HETATM   10  C5  UNL     1     138.933 126.190  87.044  1.00  0.00     0.350 C 
HETATM   11  O2  UNL     1     138.090 126.887  87.693  1.00  0.00    -0.284 OA
ENDBRANCH   4  10
TORSDOF 3
ENDMDL
MODEL 4
REMARK VINA RESULT: -4.461640212      2.151      4.819
REMARK  3 active torsions:
REMARK  status: ('A' for Active; 'I' for Inactive)
REMARK    1  A    between atoms: C1_2  and  N1_3 
REMARK    2  A    between atoms: N1_3  and  C2_5 
REMARK    3  A    between atoms: N2_8  and  C5_9 
ROOT
HETATM    1  C2  UNL     1     138.590 123.102  85.173  1.00  0.00     0.103 C 
HETATM    2  C3  UNL     1     137.275 123.070  85.959  1.00  0.00     0.046 C 
HETATM    3  C4  UNL     1     137.679 123.836  87.201  1.00  0.00     0.127 C 
HETATM    4  N2  UNL     1     138.437 124.936  86.640  1.00  0.00    -0.357 N 
HETATM    5  C6  UNL     1     139.037 124.517  85.388  1.00  0.00     0.150 C 
ENDROOT
BRANCH   1   6
HETATM    6  N1  UNL     1     138.412 122.758  83.798  1.00  0.00    -0.362 N 
ATOM      7  H1  UNL     1     138.334 121.781  83.517  1.00  0.00     0.162 HD
BRANCH   6   8
HETATM    8  C1  UNL     1     138.344 123.792  82.825  1.00  0.00     0.348 C 
HETATM    9  O1  UNL     1     139.089 123.844  81.834  1.00  0.00    -0.284 OA
ENDBRANCH   6   8
ENDBRANCH   1   6
BRANCH   4  10
HETATM   10  C5  UNL     1     138.563 126.210  87.231  1.00  0.00     0.350 C 
HETATM   11  O2  UNL     1     137.589 127.026  87.214  1.00  0.00    -0.284 OA
ENDBRANCH   4  10
TORSDOF 3
ENDMDL
MODEL 5
REMARK VINA RESULT: -4.228696202      0.840      4.912
REMARK  3 active torsions:
REMARK  status: ('A' for Active; 'I' for Inactive)
REMARK    1  A    between atoms: C1_2  and  N1_3 
REMARK    2  A    between atoms: N1_3  and  C2_5 
REMARK    3  A    between atoms: N2_8  and  C5_9 
ROOT
HETATM    1  C2  UNL     1     138.139 122.511  84.322  1.00  0.00     0.103 C 
HETATM    2  C3  UNL     1     137.167 122.577  85.505  1.00  0.00     0.046 C 
HETATM    3  C4  UNL     1     138.055 123.210  86.556  1.00  0.00     0.127 C 
HETATM    4  N2  UNL     1     138.719 124.251  85.796  1.00  0.00    -0.357 N 
HETATM    5  C6  UNL     1     138.809 123.849  84.406  1.00  0.00     0.150 C 
ENDROOT
BRANCH   1   6
HETATM    6  N1  UNL     1     137.471 122.279  83.081  1.00  0.00    -0.362 N 
ATOM      7  H1  UNL     1     137.258 123.058  82.457  1.00  0.00     0.162 HD
BRANCH   6   8
HETATM    8  C1  UNL     1     137.106 120.953  82.724  1.00  0.00     0.348 C 
HETATM    9  O1  UNL     1     136.034 120.427  83.063  1.00  0.00    -0.284 OA
ENDBRANCH   6   8
ENDBRANCH   1   6
BRANCH   4  10
HETATM   10  C5  UNL     1     139.196 125.462  86.340  1.00  0.00     0.350 C 
HETATM   11  O2  UNL     1     138.399 126.267  86.917  1.00  0.00    -0.284 OA
ENDBRANCH   4  10
TORSDOF 3
ENDMDL
