MODEL 1
REMARK VINA RESULT: -6.625744297      0.000      0.000
REMARK  10 active torsions:
REMARK  status: ('A' for Active; 'I' for Inactive)
REMARK    1  A    between atoms: C2_2  and  S1_4 
REMARK    2  A    between atoms: S1_4  and  C3_5 
REMARK    3  A    between atoms: C3_5  and  C4_7 
REMARK    4  A    between atoms: C4_7  and  O3_8 
REMARK    5  A    between atoms: C6_13  and  N2_14 
REMARK    6  A    between atoms: C10_22  and  C11_23 
REMARK    7  A    between atoms: C11_23  and  N4_24 
REMARK    8  A    between atoms: N4_24  and  C12_26 
REMARK    9  A    between atoms: C13_27  and  N5_28 
REMARK   10  A    between atoms: N5_28  and  N6_30 
ROOT
HETATM    1  C4  UNL     1       8.828  47.334  -2.872  1.00  0.00     0.375 C 
HETATM    2  C5  UNL     1       7.430  47.048  -2.357  1.00  0.00     0.111 A 
HETATM    3  N1  UNL     1       6.286  47.645  -2.723  1.00  0.00    -0.190 N 
ATOM      4  H1  UNL     1       6.296  48.376  -3.433  1.00  0.00     0.184 HD
HETATM    5  C6  UNL     1       5.137  47.280  -2.157  1.00  0.00     0.676 A 
HETATM    6  N3  UNL     1       5.124  46.317  -1.222  1.00  0.00    -0.196 N 
ATOM      7  H3  UNL     1       4.241  46.044  -0.791  1.00  0.00     0.184 HD
HETATM    8  C7  UNL     1       6.284  45.701  -0.841  1.00  0.00     0.033 A 
HETATM    9  C8  UNL     1       6.204  44.678   0.183  1.00  0.00     0.069 C 
HETATM   10  C9  UNL     1       7.480  46.056  -1.407  1.00  0.00     0.028 A 
HETATM   11  C10 UNL     1       8.853  45.671  -1.298  1.00  0.00     0.282 C 
HETATM   12  N7  UNL     1       9.517  46.145  -2.453  1.00  0.00     0.145 N 
HETATM   13  C16 UNL     1       9.595  45.268  -3.586  1.00  0.00     0.316 C 
ENDROOT
BRANCH  11  14
HETATM   14  C11 UNL     1       9.186  44.273  -0.915  1.00  0.00     0.161 C 
BRANCH  14  15
HETATM   15  N4  UNL     1       9.903  44.060   0.285  1.00  0.00    -0.382 N 
ATOM     16  H4  UNL     1      10.815  44.485   0.454  1.00  0.00     0.160 HD
BRANCH  15  17
HETATM   17  C12 UNL     1       9.264  43.201   1.257  1.00  0.00     0.115 A 
HETATM   18  C13 UNL     1       8.994  43.301   2.613  1.00  0.00     0.132 A 
HETATM   19  C14 UNL     1       8.394  42.052   2.616  1.00  0.00     0.254 A 
HETATM   20  O4  UNL     1       7.839  41.306   3.460  1.00  0.00    -0.281 OA
HETATM   21  C15 UNL     1       8.668  41.963   1.267  1.00  0.00     0.252 A 
HETATM   22  O5  UNL     1       8.461  41.092   0.371  1.00  0.00    -0.281 OA
BRANCH  18  23
HETATM   23  N5  UNL     1       9.240  44.295   3.595  1.00  0.00    -0.301 N 
ATOM     24  H5  UNL     1       9.879  45.054   3.357  1.00  0.00     0.186 HD
BRANCH  23  25
HETATM   25  N6  UNL     1       8.665  44.299   4.864  1.00  0.00    -0.344 N 
ATOM     26  H62 UNL     1       8.618  43.404   5.352  1.00  0.00     0.176 HD
ATOM     27  H61 UNL     1       8.296  45.132   5.322  1.00  0.00     0.176 HD
ENDBRANCH  23  25
ENDBRANCH  18  23
ENDBRANCH  15  17
ENDBRANCH  14  15
ENDBRANCH  11  14
BRANCH   1  28
HETATM   28  C3  UNL     1       9.362  48.561  -2.289  1.00  0.00     0.266 C 
HETATM   29  O2  UNL     1       8.554  49.535  -2.334  1.00  0.00    -0.279 OA
BRANCH  28  30
HETATM   30  S1  UNL     1      10.891  48.874  -1.561  1.00  0.00    -0.010 SA
BRANCH  30  31
HETATM   31  C2  UNL     1      11.531  47.921  -0.286  1.00  0.00     0.189 C 
HETATM   32  C1  UNL     1      12.480  46.785  -0.655  1.00  0.00     0.105 C 
HETATM   33  O1  UNL     1      11.336  48.021   0.898  1.00  0.00    -0.285 OA
ENDBRANCH  30  31
ENDBRANCH  28  30
ENDBRANCH   1  28
BRANCH   1  34
HETATM   34  O3  UNL     1       8.743  47.392  -4.268  1.00  0.00    -0.352 OA
ATOM     35  H3  UNL     1       9.250  46.712  -4.695  1.00  0.00     0.213 HD
ENDBRANCH   1  34
BRANCH   5  36
HETATM   36  N2  UNL     1       4.020  47.864  -2.515  1.00  0.00    -0.234 N 
ATOM     37  H22 UNL     1       3.988  48.875  -2.636  1.00  0.00     0.174 HD
ATOM     38  H21 UNL     1       3.183  47.303  -2.671  1.00  0.00     0.174 HD
ENDBRANCH   5  36
TORSDOF 10
ENDMDL
MODEL 2
REMARK VINA RESULT: -6.277484150      1.264      1.823
REMARK  10 active torsions:
REMARK  status: ('A' for Active; 'I' for Inactive)
REMARK    1  A    between atoms: C2_2  and  S1_4 
REMARK    2  A    between atoms: S1_4  and  C3_5 
REMARK    3  A    between atoms: C3_5  and  C4_7 
REMARK    4  A    between atoms: C4_7  and  O3_8 
REMARK    5  A    between atoms: C6_13  and  N2_14 
REMARK    6  A    between atoms: C10_22  and  C11_23 
REMARK    7  A    between atoms: C11_23  and  N4_24 
REMARK    8  A    between atoms: N4_24  and  C12_26 
REMARK    9  A    between atoms: C13_27  and  N5_28 
REMARK   10  A    between atoms: N5_28  and  N6_30 
ROOT
HETATM    1  C4  UNL     1       8.837  47.357  -2.895  1.00  0.00     0.375 C 
HETATM    2  C5  UNL     1       7.448  47.054  -2.363  1.00  0.00     0.111 A 
HETATM    3  N1  UNL     1       6.293  47.641  -2.713  1.00  0.00    -0.190 N 
ATOM      4  H1  UNL     1       6.287  48.375  -3.420  1.00  0.00     0.184 HD
HETATM    5  C6  UNL     1       5.156  47.263  -2.134  1.00  0.00     0.676 A 
HETATM    6  N3  UNL     1       5.164  46.296  -1.202  1.00  0.00    -0.196 N 
ATOM      7  H3  UNL     1       4.289  46.012  -0.762  1.00  0.00     0.184 HD
HETATM    8  C7  UNL     1       6.335  45.690  -0.838  1.00  0.00     0.033 A 
HETATM    9  C8  UNL     1       6.278  44.663   0.182  1.00  0.00     0.069 C 
HETATM   10  C9  UNL     1       7.520  46.059  -1.418  1.00  0.00     0.028 A 
HETATM   11  C10 UNL     1       8.898  45.688  -1.328  1.00  0.00     0.282 C 
HETATM   12  N7  UNL     1       9.543  46.173  -2.490  1.00  0.00     0.145 N 
HETATM   13  C16 UNL     1       9.615  45.301  -3.627  1.00  0.00     0.316 C 
ENDROOT
BRANCH  11  14
HETATM   14  C11 UNL     1       9.250  44.291  -0.954  1.00  0.00     0.161 C 
BRANCH  14  15
HETATM   15  N4  UNL     1      10.052  44.087   0.192  1.00  0.00    -0.382 N 
ATOM     16  H4  UNL     1      10.973  44.514   0.292  1.00  0.00     0.160 HD
BRANCH  15  17
HETATM   17  C12 UNL     1       9.485  43.233   1.212  1.00  0.00     0.115 A 
HETATM   18  C13 UNL     1       9.030  41.924   1.241  1.00  0.00     0.132 A 
HETATM   19  C14 UNL     1       8.706  42.035   2.583  1.00  0.00     0.254 A 
HETATM   20  O4  UNL     1       8.214  41.293   3.469  1.00  0.00    -0.281 OA
HETATM   21  C15 UNL     1       9.162  43.336   2.543  1.00  0.00     0.252 A 
HETATM   22  O5  UNL     1       9.255  44.274   3.389  1.00  0.00    -0.281 OA
BRANCH  18  23
HETATM   23  N5  UNL     1       8.938  40.893   0.271  1.00  0.00    -0.301 N 
ATOM     24  H5  UNL     1       8.132  40.268   0.312  1.00  0.00     0.186 HD
BRANCH  23  25
HETATM   25  N6  UNL     1       9.879  40.679  -0.734  1.00  0.00    -0.344 N 
ATOM     26  H62 UNL     1      10.631  40.021  -0.529  1.00  0.00     0.176 HD
ATOM     27  H61 UNL     1       9.856  41.136  -1.646  1.00  0.00     0.176 HD
ENDBRANCH  23  25
ENDBRANCH  18  23
ENDBRANCH  15  17
ENDBRANCH  14  15
ENDBRANCH  11  14
BRANCH   1  28
HETATM   28  C3  UNL     1       9.365  48.586  -2.314  1.00  0.00     0.266 C 
HETATM   29  O2  UNL     1       8.553  49.557  -2.359  1.00  0.00    -0.279 OA
BRANCH  28  30
HETATM   30  S1  UNL     1      10.893  48.908  -1.588  1.00  0.00    -0.010 SA
BRANCH  30  31
HETATM   31  C2  UNL     1      11.539  47.960  -0.312  1.00  0.00     0.189 C 
HETATM   32  C1  UNL     1      12.502  46.835  -0.679  1.00  0.00     0.105 C 
HETATM   33  O1  UNL     1      11.339  48.056   0.871  1.00  0.00    -0.285 OA
ENDBRANCH  30  31
ENDBRANCH  28  30
ENDBRANCH   1  28
BRANCH   1  34
HETATM   34  O3  UNL     1       8.733  47.419  -4.290  1.00  0.00    -0.352 OA
ATOM     35  H3  UNL     1       7.986  47.929  -4.579  1.00  0.00     0.213 HD
ENDBRANCH   1  34
BRANCH   5  36
HETATM   36  N2  UNL     1       4.029  47.836  -2.475  1.00  0.00    -0.234 N 
ATOM     37  H22 UNL     1       3.536  48.431  -1.810  1.00  0.00     0.174 HD
ATOM     38  H21 UNL     1       3.645  47.686  -3.408  1.00  0.00     0.174 HD
ENDBRANCH   5  36
TORSDOF 10
ENDMDL
MODEL 3
REMARK VINA RESULT: -6.189022684      1.748      2.773
REMARK  10 active torsions:
REMARK  status: ('A' for Active; 'I' for Inactive)
REMARK    1  A    between atoms: C2_2  and  S1_4 
REMARK    2  A    between atoms: S1_4  and  C3_5 
REMARK    3  A    between atoms: C3_5  and  C4_7 
REMARK    4  A    between atoms: C4_7  and  O3_8 
REMARK    5  A    between atoms: C6_13  and  N2_14 
REMARK    6  A    between atoms: C10_22  and  C11_23 
REMARK    7  A    between atoms: C11_23  and  N4_24 
REMARK    8  A    between atoms: N4_24  and  C12_26 
REMARK    9  A    between atoms: C13_27  and  N5_28 
REMARK   10  A    between atoms: N5_28  and  N6_30 
ROOT
HETATM    1  C4  UNL     1       9.963  45.158  -1.015  1.00  0.00     0.375 C 
HETATM    2  C5  UNL     1       8.534  45.627  -1.219  1.00  0.00     0.111 A 
HETATM    3  N1  UNL     1       8.097  46.575  -2.062  1.00  0.00    -0.190 N 
ATOM      4  H1  UNL     1       8.756  47.064  -2.666  1.00  0.00     0.184 HD
HETATM    5  C6  UNL     1       6.802  46.876  -2.106  1.00  0.00     0.676 A 
HETATM    6  N3  UNL     1       5.933  46.233  -1.309  1.00  0.00    -0.196 N 
ATOM      7  H3  UNL     1       4.942  46.469  -1.348  1.00  0.00     0.184 HD
HETATM    8  C7  UNL     1       6.367  45.263  -0.447  1.00  0.00     0.033 A 
HETATM    9  C8  UNL     1       5.381  44.615   0.394  1.00  0.00     0.069 C 
HETATM   10  C9  UNL     1       7.694  44.933  -0.381  1.00  0.00     0.028 A 
HETATM   11  C10 UNL     1       8.517  44.016   0.346  1.00  0.00     0.282 C 
HETATM   12  N7  UNL     1       9.741  43.901  -0.354  1.00  0.00     0.145 N 
HETATM   13  C16 UNL     1       9.851  42.867  -1.342  1.00  0.00     0.316 C 
ENDROOT
BRANCH  11  14
HETATM   14  C11 UNL     1       7.935  42.726   0.805  1.00  0.00     0.161 C 
BRANCH  14  15
HETATM   15  N4  UNL     1       8.645  41.978   1.771  1.00  0.00    -0.382 N 
ATOM     16  H4  UNL     1       9.226  41.178   1.518  1.00  0.00     0.160 HD
BRANCH  15  17
HETATM   17  C12 UNL     1       8.495  42.416   3.141  1.00  0.00     0.115 A 
HETATM   18  C13 UNL     1       9.107  43.382   3.924  1.00  0.00     0.132 A 
HETATM   19  C14 UNL     1       8.318  43.044   5.011  1.00  0.00     0.254 A 
HETATM   20  O4  UNL     1       8.188  43.425   6.201  1.00  0.00    -0.281 OA
HETATM   21  C15 UNL     1       7.716  42.085   4.223  1.00  0.00     0.252 A 
HETATM   22  O5  UNL     1       6.802  41.228   4.405  1.00  0.00    -0.281 OA
BRANCH  18  23
HETATM   23  N5  UNL     1      10.134  44.333   3.691  1.00  0.00    -0.301 N 
ATOM     24  H5  UNL     1       9.942  45.310   3.915  1.00  0.00     0.186 HD
BRANCH  23  25
HETATM   25  N6  UNL     1      11.389  44.017   3.174  1.00  0.00    -0.344 N 
ATOM     26  H62 UNL     1      11.876  43.226   3.596  1.00  0.00     0.176 HD
ATOM     27  H61 UNL     1      11.838  44.524   2.412  1.00  0.00     0.176 HD
ENDBRANCH  23  25
ENDBRANCH  18  23
ENDBRANCH  15  17
ENDBRANCH  14  15
ENDBRANCH  11  14
BRANCH   1  28
HETATM   28  C3  UNL     1      10.722  46.117  -0.220  1.00  0.00     0.266 C 
HETATM   29  O2  UNL     1      10.849  45.780   0.994  1.00  0.00    -0.279 OA
BRANCH  28  30
HETATM   30  S1  UNL     1      11.460  47.604  -0.677  1.00  0.00    -0.010 SA
BRANCH  30  31
HETATM   31  C2  UNL     1      10.684  48.765  -1.673  1.00  0.00     0.189 C 
HETATM   32  C1  UNL     1      11.536  49.505  -2.699  1.00  0.00     0.105 C 
HETATM   33  O1  UNL     1       9.525  49.091  -1.684  1.00  0.00    -0.285 OA
ENDBRANCH  30  31
ENDBRANCH  28  30
ENDBRANCH   1  28
BRANCH   1  34
HETATM   34  O3  UNL     1      10.510  44.958  -2.288  1.00  0.00    -0.352 OA
ATOM     35  H3  UNL     1       9.900  44.548  -2.889  1.00  0.00     0.213 HD
ENDBRANCH   1  34
BRANCH   5  36
HETATM   36  N2  UNL     1       6.376  47.803  -2.928  1.00  0.00    -0.234 N 
ATOM     37  H22 UNL     1       6.047  47.548  -3.859  1.00  0.00     0.174 HD
ATOM     38  H21 UNL     1       6.373  48.779  -2.635  1.00  0.00     0.174 HD
ENDBRANCH   5  36
TORSDOF 10
ENDMDL
MODEL 4
REMARK VINA RESULT: -6.178982125      2.747      4.163
REMARK  10 active torsions:
REMARK  status: ('A' for Active; 'I' for Inactive)
REMARK    1  A    between atoms: C2_2  and  S1_4 
REMARK    2  A    between atoms: S1_4  and  C3_5 
REMARK    3  A    between atoms: C3_5  and  C4_7 
REMARK    4  A    between atoms: C4_7  and  O3_8 
REMARK    5  A    between atoms: C6_13  and  N2_14 
REMARK    6  A    between atoms: C10_22  and  C11_23 
REMARK    7  A    between atoms: C11_23  and  N4_24 
REMARK    8  A    between atoms: N4_24  and  C12_26 
REMARK    9  A    between atoms: C13_27  and  N5_28 
REMARK   10  A    between atoms: N5_28  and  N6_30 
ROOT
HETATM    1  C4  UNL     1       8.504  47.736  -3.644  1.00  0.00     0.375 C 
HETATM    2  C5  UNL     1       7.271  47.321  -2.863  1.00  0.00     0.111 A 
HETATM    3  N1  UNL     1       6.016  47.769  -3.018  1.00  0.00    -0.190 N 
ATOM      4  H1  UNL     1       5.805  48.462  -3.736  1.00  0.00     0.184 HD
HETATM    5  C6  UNL     1       5.045  47.306  -2.233  1.00  0.00     0.676 A 
HETATM    6  N3  UNL     1       5.322  46.394  -1.288  1.00  0.00    -0.196 N 
ATOM      7  H3  UNL     1       4.574  46.044  -0.689  1.00  0.00     0.184 HD
HETATM    8  C7  UNL     1       6.597  45.929  -1.121  1.00  0.00     0.033 A 
HETATM    9  C8  UNL     1       6.832  44.954  -0.075  1.00  0.00     0.069 C 
HETATM   10  C9  UNL     1       7.615  46.388  -1.915  1.00  0.00     0.028 A 
HETATM   11  C10 UNL     1       9.020  46.163  -2.061  1.00  0.00     0.282 C 
HETATM   12  N7  UNL     1       9.395  46.653  -3.334  1.00  0.00     0.145 N 
HETATM   13  C16 UNL     1       9.362  45.737  -4.438  1.00  0.00     0.316 C 
ENDROOT
BRANCH  11  14
HETATM   14  C11 UNL     1       9.582  44.831  -1.713  1.00  0.00     0.161 C 
BRANCH  14  15
HETATM   15  N4  UNL     1      10.982  44.715  -1.554  1.00  0.00    -0.382 N 
ATOM     16  H4  UNL     1      11.517  43.964  -1.992  1.00  0.00     0.160 HD
BRANCH  15  17
HETATM   17  C12 UNL     1      11.608  45.727  -0.733  1.00  0.00     0.115 A 
HETATM   18  C13 UNL     1      12.412  46.827  -0.991  1.00  0.00     0.132 A 
HETATM   19  C14 UNL     1      12.481  47.131   0.359  1.00  0.00     0.254 A 
HETATM   20  O4  UNL     1      13.025  48.010   1.071  1.00  0.00    -0.281 OA
HETATM   21  C15 UNL     1      11.681  46.034   0.604  1.00  0.00     0.252 A 
HETATM   22  O5  UNL     1      11.194  45.502   1.644  1.00  0.00    -0.281 OA
BRANCH  18  23
HETATM   23  N5  UNL     1      12.945  47.401  -2.174  1.00  0.00    -0.301 N 
ATOM     24  H5  UNL     1      12.652  47.010  -3.070  1.00  0.00     0.186 HD
BRANCH  23  25
HETATM   25  N6  UNL     1      13.844  48.465  -2.190  1.00  0.00    -0.344 N 
ATOM     26  H62 UNL     1      14.079  48.884  -1.290  1.00  0.00     0.176 HD
ATOM     27  H61 UNL     1      14.273  48.839  -3.037  1.00  0.00     0.176 HD
ENDBRANCH  23  25
ENDBRANCH  18  23
ENDBRANCH  15  17
ENDBRANCH  14  15
ENDBRANCH  11  14
BRANCH   1  28
HETATM   28  C3  UNL     1       8.988  49.041  -3.206  1.00  0.00     0.266 C 
HETATM   29  O2  UNL     1       8.174  49.658  -2.458  1.00  0.00    -0.279 OA
BRANCH  28  30
HETATM   30  S1  UNL     1      10.472  49.849  -3.543  1.00  0.00    -0.010 SA
BRANCH  30  31
HETATM   31  C2  UNL     1      11.490  49.422  -4.857  1.00  0.00     0.189 C 
HETATM   32  C1  UNL     1      10.938  49.591  -6.268  1.00  0.00     0.105 C 
HETATM   33  O1  UNL     1      12.616  48.997  -4.827  1.00  0.00    -0.285 OA
ENDBRANCH  30  31
ENDBRANCH  28  30
ENDBRANCH   1  28
BRANCH   1  34
HETATM   34  O3  UNL     1       8.152  47.718  -4.998  1.00  0.00    -0.352 OA
ATOM     35  H3  UNL     1       8.191  46.847  -5.375  1.00  0.00     0.213 HD
ENDBRANCH   1  34
BRANCH   5  36
HETATM   36  N2  UNL     1       3.820  47.743  -2.385  1.00  0.00    -0.234 N 
ATOM     37  H22 UNL     1       3.349  48.222  -1.618  1.00  0.00     0.174 HD
ATOM     38  H21 UNL     1       3.338  47.604  -3.273  1.00  0.00     0.174 HD
ENDBRANCH   5  36
TORSDOF 10
ENDMDL
MODEL 5
REMARK VINA RESULT: -6.178442311      1.530      1.773
REMARK  10 active torsions:
REMARK  status: ('A' for Active; 'I' for Inactive)
REMARK    1  A    between atoms: C2_2  and  S1_4 
REMARK    2  A    between atoms: S1_4  and  C3_5 
REMARK    3  A    between atoms: C3_5  and  C4_7 
REMARK    4  A    between atoms: C4_7  and  O3_8 
REMARK    5  A    between atoms: C6_13  and  N2_14 
REMARK    6  A    between atoms: C10_22  and  C11_23 
REMARK    7  A    between atoms: C11_23  and  N4_24 
REMARK    8  A    between atoms: N4_24  and  C12_26 
REMARK    9  A    between atoms: C13_27  and  N5_28 
REMARK   10  A    between atoms: N5_28  and  N6_30 
ROOT
HETATM    1  C4  UNL     1       8.803  47.354  -2.881  1.00  0.00     0.375 C 
HETATM    2  C5  UNL     1       7.409  47.055  -2.361  1.00  0.00     0.111 A 
HETATM    3  N1  UNL     1       6.258  47.640  -2.724  1.00  0.00    -0.190 N 
ATOM      4  H1  UNL     1       6.258  48.371  -3.435  1.00  0.00     0.184 HD
HETATM    5  C6  UNL     1       5.115  47.265  -2.154  1.00  0.00     0.676 A 
HETATM    6  N3  UNL     1       5.115  46.304  -1.217  1.00  0.00    -0.196 N 
ATOM      7  H3  UNL     1       4.235  46.022  -0.783  1.00  0.00     0.184 HD
HETATM    8  C7  UNL     1       6.282  45.699  -0.839  1.00  0.00     0.033 A 
HETATM    9  C8  UNL     1       6.215  44.678   0.187  1.00  0.00     0.069 C 
HETATM   10  C9  UNL     1       7.472  46.065  -1.410  1.00  0.00     0.028 A 
HETATM   11  C10 UNL     1       8.849  45.694  -1.305  1.00  0.00     0.282 C 
HETATM   12  N7  UNL     1       9.505  46.172  -2.463  1.00  0.00     0.145 N 
HETATM   13  C16 UNL     1       9.587  45.294  -3.595  1.00  0.00     0.316 C 
ENDROOT
BRANCH  11  14
HETATM   14  C11 UNL     1       9.197  44.299  -0.920  1.00  0.00     0.161 C 
BRANCH  14  15
HETATM   15  N4  UNL     1      10.495  44.046  -0.422  1.00  0.00    -0.382 N 
ATOM     16  H4  UNL     1      11.299  43.927  -1.039  1.00  0.00     0.160 HD
BRANCH  15  17
HETATM   17  C12 UNL     1      10.613  43.966   1.017  1.00  0.00     0.115 A 
HETATM   18  C13 UNL     1       9.828  43.431   2.027  1.00  0.00     0.132 A 
HETATM   19  C14 UNL     1      10.738  43.837   2.990  1.00  0.00     0.254 A 
HETATM   20  O4  UNL     1      10.839  43.767   4.240  1.00  0.00    -0.281 OA
HETATM   21  C15 UNL     1      11.511  44.365   1.977  1.00  0.00     0.252 A 
HETATM   22  O5  UNL     1      12.616  44.980   1.928  1.00  0.00    -0.281 OA
BRANCH  18  23
HETATM   23  N5  UNL     1       8.586  42.745   2.050  1.00  0.00    -0.301 N 
ATOM     24  H5  UNL     1       8.064  42.670   1.177  1.00  0.00     0.186 HD
BRANCH  23  25
HETATM   25  N6  UNL     1       8.035  42.166   3.192  1.00  0.00    -0.344 N 
ATOM     26  H62 UNL     1       8.417  41.266   3.483  1.00  0.00     0.176 HD
ATOM     27  H61 UNL     1       7.284  42.586   3.741  1.00  0.00     0.176 HD
ENDBRANCH  23  25
ENDBRANCH  18  23
ENDBRANCH  15  17
ENDBRANCH  14  15
ENDBRANCH  11  14
BRANCH   1  28
HETATM   28  C3  UNL     1       9.326  48.587  -2.302  1.00  0.00     0.266 C 
HETATM   29  O2  UNL     1       8.501  49.547  -2.324  1.00  0.00    -0.279 OA
BRANCH  28  30
HETATM   30  S1  UNL     1      10.864  48.924  -1.603  1.00  0.00    -0.010 SA
BRANCH  30  31
HETATM   31  C2  UNL     1      11.592  47.917  -0.419  1.00  0.00     0.189 C 
HETATM   32  C1  UNL     1      12.678  46.950  -0.879  1.00  0.00     0.105 C 
HETATM   33  O1  UNL     1      11.366  47.862   0.762  1.00  0.00    -0.285 OA
ENDBRANCH  30  31
ENDBRANCH  28  30
ENDBRANCH   1  28
BRANCH   1  34
HETATM   34  O3  UNL     1       8.712  47.409  -4.277  1.00  0.00    -0.352 OA
ATOM     35  H3  UNL     1       8.686  46.548  -4.677  1.00  0.00     0.213 HD
ENDBRANCH   1  34
BRANCH   5  36
HETATM   36  N2  UNL     1       3.991  47.837  -2.508  1.00  0.00    -0.234 N 
ATOM     37  H22 UNL     1       3.426  48.326  -1.815  1.00  0.00     0.174 HD
ATOM     38  H21 UNL     1       3.683  47.792  -3.480  1.00  0.00     0.174 HD
ENDBRANCH   5  36
TORSDOF 10
ENDMDL
