MODEL 1
REMARK VINA RESULT: -4.970588169      0.000      0.000
REMARK  4 active torsions:
REMARK  status: ('A' for Active; 'I' for Inactive)
REMARK    1  A    between atoms: S1_2  and  C2_3 
REMARK    2  A    between atoms: C2_3  and  N4_13 
REMARK       I    between atoms: N1_4  and  C3_6 
REMARK       I    between atoms: C3_6  and  N2_8 
REMARK    3  A    between atoms: N2_8  and  N3_10 
REMARK    4  A    between atoms: N4_13  and  N5_15 
ROOT
HETATM    1  C2  UNL     1      -0.211   8.070  10.800  1.00  0.00     0.162 C 
HETATM    2  N1  UNL     1       0.112   9.290  10.932  1.00  0.00    -0.287 N 
ATOM      3  H1  UNL     1       0.451   9.589  11.847  1.00  0.00     0.172 HD
HETATM    4  C3  UNL     1       0.040  10.269   9.912  1.00  0.00     0.340 C 
HETATM    5  O1  UNL     1       0.170   9.872   8.724  1.00  0.00    -0.245 OA
HETATM    6  N2  UNL     1      -0.166  11.620  10.259  1.00  0.00    -0.258 N 
ATOM      7  H2  UNL     1      -0.265  11.896  11.236  1.00  0.00     0.191 HD
ENDROOT
BRANCH   1   8
HETATM    8  S1  UNL     1      -0.069   6.960  12.168  1.00  0.00    -0.097 SA
HETATM    9  C1  UNL     1      -0.431   7.818  13.731  1.00  0.00     0.099 C 
ENDBRANCH   1   8
BRANCH   1  10
HETATM   10  N4  UNL     1      -0.681   7.607   9.563  1.00  0.00    -0.286 N 
ATOM     11  H4  UNL     1      -1.614   7.869   9.243  1.00  0.00     0.188 HD
BRANCH  10  12
HETATM   12  N5  UNL     1       0.109   6.803   8.782  1.00  0.00    -0.343 N 
ATOM     13  H52 UNL     1       0.827   7.234   8.200  1.00  0.00     0.176 HD
ATOM     14  H51 UNL     1      -0.025   5.792   8.785  1.00  0.00     0.176 HD
ENDBRANCH  10  12
ENDBRANCH   1  10
BRANCH   6  15
HETATM   15  N3  UNL     1      -0.234  12.569   9.244  1.00  0.00    -0.341 N 
ATOM     16  H32 UNL     1       0.337  12.454   8.407  1.00  0.00     0.177 HD
ATOM     17  H31 UNL     1      -0.858  13.367   9.359  1.00  0.00     0.177 HD
ENDBRANCH   6  15
TORSDOF 4
ENDMDL
MODEL 2
REMARK VINA RESULT: -4.921366239      0.943      1.001
REMARK  4 active torsions:
REMARK  status: ('A' for Active; 'I' for Inactive)
REMARK    1  A    between atoms: S1_2  and  C2_3 
REMARK    2  A    between atoms: C2_3  and  N4_13 
REMARK       I    between atoms: N1_4  and  C3_6 
REMARK       I    between atoms: C3_6  and  N2_8 
REMARK    3  A    between atoms: N2_8  and  N3_10 
REMARK    4  A    between atoms: N4_13  and  N5_15 
ROOT
HETATM    1  C2  UNL     1      -0.222   8.011  10.776  1.00  0.00     0.162 C 
HETATM    2  N1  UNL     1       0.102   9.229  10.929  1.00  0.00    -0.287 N 
ATOM      3  H1  UNL     1       0.431   9.515  11.851  1.00  0.00     0.172 HD
HETATM    4  C3  UNL     1       0.041  10.222   9.922  1.00  0.00     0.340 C 
HETATM    5  O1  UNL     1       0.183   9.841   8.729  1.00  0.00    -0.245 OA
HETATM    6  N2  UNL     1      -0.168  11.568  10.285  1.00  0.00    -0.258 N 
ATOM      7  H2  UNL     1      -0.277  11.831  11.265  1.00  0.00     0.191 HD
ENDROOT
BRANCH   1   8
HETATM    8  S1  UNL     1      -0.095   6.882  12.130  1.00  0.00    -0.097 SA
HETATM    9  C1  UNL     1       1.456   5.936  12.032  1.00  0.00     0.099 C 
ENDBRANCH   1   8
BRANCH   1  10
HETATM   10  N4  UNL     1      -0.679   7.566   9.528  1.00  0.00    -0.286 N 
ATOM     11  H4  UNL     1      -1.613   7.823   9.207  1.00  0.00     0.188 HD
BRANCH  10  12
HETATM   12  N5  UNL     1       0.124   6.785   8.736  1.00  0.00    -0.343 N 
ATOM     13  H52 UNL     1       1.080   7.090   8.552  1.00  0.00     0.176 HD
ATOM     14  H51 UNL     1      -0.233   5.916   8.341  1.00  0.00     0.176 HD
ENDBRANCH  10  12
ENDBRANCH   1  10
BRANCH   6  15
HETATM   15  N3  UNL     1      -0.224  12.531   9.283  1.00  0.00    -0.341 N 
ATOM     16  H32 UNL     1      -0.180  13.520   9.531  1.00  0.00     0.177 HD
ATOM     17  H31 UNL     1      -0.309  12.228   8.314  1.00  0.00     0.177 HD
ENDBRANCH   6  15
TORSDOF 4
ENDMDL
MODEL 3
REMARK VINA RESULT: -4.898733408      0.815      1.070
REMARK  4 active torsions:
REMARK  status: ('A' for Active; 'I' for Inactive)
REMARK    1  A    between atoms: S1_2  and  C2_3 
REMARK    2  A    between atoms: C2_3  and  N4_13 
REMARK       I    between atoms: N1_4  and  C3_6 
REMARK       I    between atoms: C3_6  and  N2_8 
REMARK    3  A    between atoms: N2_8  and  N3_10 
REMARK    4  A    between atoms: N4_13  and  N5_15 
ROOT
HETATM    1  C2  UNL     1      -0.771   8.352  10.893  1.00  0.00     0.162 C 
HETATM    2  N1  UNL     1      -0.285   9.514  11.046  1.00  0.00    -0.287 N 
ATOM      3  H1  UNL     1      -0.027   9.794  11.993  1.00  0.00     0.172 HD
HETATM    4  C3  UNL     1      -0.072  10.453  10.008  1.00  0.00     0.340 C 
HETATM    5  O1  UNL     1       0.150   9.995   8.856  1.00  0.00    -0.245 OA
HETATM    6  N2  UNL     1      -0.113  11.832  10.299  1.00  0.00    -0.258 N 
ATOM      7  H2  UNL     1      -0.296  12.156  11.249  1.00  0.00     0.191 HD
ENDROOT
BRANCH   1   8
HETATM    8  S1  UNL     1      -0.981   7.285  12.288  1.00  0.00    -0.097 SA
HETATM    9  C1  UNL     1      -1.325   8.254  13.789  1.00  0.00     0.099 C 
ENDBRANCH   1   8
BRANCH   1  10
HETATM   10  N4  UNL     1      -1.140   7.916   9.613  1.00  0.00    -0.286 N 
ATOM     11  H4  UNL     1      -0.476   7.390   9.044  1.00  0.00     0.188 HD
BRANCH  10  12
HETATM   12  N5  UNL     1      -2.389   8.196   9.122  1.00  0.00    -0.343 N 
ATOM     13  H52 UNL     1      -3.187   8.158   9.755  1.00  0.00     0.176 HD
ATOM     14  H51 UNL     1      -2.512   8.436   8.138  1.00  0.00     0.176 HD
ENDBRANCH  10  12
ENDBRANCH   1  10
BRANCH   6  15
HETATM   15  N3  UNL     1       0.098  12.741   9.268  1.00  0.00    -0.341 N 
ATOM     16  H32 UNL     1       0.109  12.414   8.302  1.00  0.00     0.177 HD
ATOM     17  H31 UNL     1       0.240  13.723   9.501  1.00  0.00     0.177 HD
ENDBRANCH   6  15
TORSDOF 4
ENDMDL
MODEL 4
REMARK VINA RESULT: -4.780302220      1.902      2.070
REMARK  4 active torsions:
REMARK  status: ('A' for Active; 'I' for Inactive)
REMARK    1  A    between atoms: S1_2  and  C2_3 
REMARK    2  A    between atoms: C2_3  and  N4_13 
REMARK       I    between atoms: N1_4  and  C3_6 
REMARK       I    between atoms: C3_6  and  N2_8 
REMARK    3  A    between atoms: N2_8  and  N3_10 
REMARK    4  A    between atoms: N4_13  and  N5_15 
ROOT
HETATM    1  C2  UNL     1      -0.705   8.290  12.387  1.00  0.00     0.162 C 
HETATM    2  N1  UNL     1      -1.189   9.413  12.046  1.00  0.00    -0.287 N 
ATOM      3  H1  UNL     1      -1.760   9.906  12.733  1.00  0.00     0.172 HD
HETATM    4  C3  UNL     1      -1.001  10.035  10.789  1.00  0.00     0.340 C 
HETATM    5  O1  UNL     1       0.066   9.773  10.171  1.00  0.00    -0.245 OA
HETATM    6  N2  UNL     1      -1.991  10.905  10.288  1.00  0.00    -0.258 N 
ATOM      7  H2  UNL     1      -2.840  11.089  10.824  1.00  0.00     0.191 HD
ENDROOT
BRANCH   1   8
HETATM    8  S1  UNL     1      -1.027   7.636  13.997  1.00  0.00    -0.097 SA
HETATM    9  C1  UNL     1      -2.726   6.992  14.099  1.00  0.00     0.099 C 
ENDBRANCH   1   8
BRANCH   1  10
HETATM   10  N4  UNL     1       0.088   7.573  11.481  1.00  0.00    -0.286 N 
ATOM     11  H4  UNL     1      -0.345   7.112  10.680  1.00  0.00     0.188 HD
BRANCH  10  12
HETATM   12  N5  UNL     1       1.444   7.487  11.668  1.00  0.00    -0.343 N 
ATOM     13  H52 UNL     1       1.804   6.868  12.394  1.00  0.00     0.176 HD
ATOM     14  H51 UNL     1       2.078   8.037  11.087  1.00  0.00     0.176 HD
ENDBRANCH  10  12
ENDBRANCH   1  10
BRANCH   6  15
HETATM   15  N3  UNL     1      -1.790  11.509   9.052  1.00  0.00    -0.341 N 
ATOM     16  H32 UNL     1      -1.298  11.001   8.317  1.00  0.00     0.177 HD
ATOM     17  H31 UNL     1      -2.142  12.454   8.903  1.00  0.00     0.177 HD
ENDBRANCH   6  15
TORSDOF 4
ENDMDL
MODEL 5
REMARK VINA RESULT: -4.708490982      2.809      4.770
REMARK  4 active torsions:
REMARK  status: ('A' for Active; 'I' for Inactive)
REMARK    1  A    between atoms: S1_2  and  C2_3 
REMARK    2  A    between atoms: C2_3  and  N4_13 
REMARK       I    between atoms: N1_4  and  C3_6 
REMARK       I    between atoms: C3_6  and  N2_8 
REMARK    3  A    between atoms: N2_8  and  N3_10 
REMARK    4  A    between atoms: N4_13  and  N5_15 
ROOT
HETATM    1  C2  UNL     1      -0.506   9.433   9.318  1.00  0.00     0.162 C 
HETATM    2  N1  UNL     1      -0.495   8.239   8.888  1.00  0.00    -0.287 N 
ATOM      3  H1  UNL     1      -0.795   8.084   7.926  1.00  0.00     0.172 HD
HETATM    4  C3  UNL     1      -0.100   7.105   9.638  1.00  0.00     0.340 C 
HETATM    5  O1  UNL     1       0.748   7.287  10.552  1.00  0.00    -0.245 OA
HETATM    6  N2  UNL     1      -0.658   5.845   9.339  1.00  0.00    -0.258 N 
ATOM      7  H2  UNL     1      -1.342   5.745   8.589  1.00  0.00     0.191 HD
ENDROOT
BRANCH   1   8
HETATM    8  S1  UNL     1      -1.028  10.752   8.263  1.00  0.00    -0.097 SA
HETATM    9  C1  UNL     1      -0.098  12.273   8.630  1.00  0.00     0.099 C 
ENDBRANCH   1   8
BRANCH   1  10
HETATM   10  N4  UNL     1      -0.102   9.702  10.633  1.00  0.00    -0.286 N 
ATOM     11  H4  UNL     1       0.890   9.811  10.848  1.00  0.00     0.188 HD
BRANCH  10  12
HETATM   12  N5  UNL     1      -1.034   9.817  11.632  1.00  0.00    -0.343 N 
ATOM     13  H52 UNL     1      -1.680  10.606  11.614  1.00  0.00     0.176 HD
ATOM     14  H51 UNL     1      -1.075   9.124  12.379  1.00  0.00     0.176 HD
ENDBRANCH  10  12
ENDBRANCH   1  10
BRANCH   6  15
HETATM   15  N3  UNL     1      -0.258   4.742  10.085  1.00  0.00    -0.341 N 
ATOM     16  H32 UNL     1       0.697   4.393   9.999  1.00  0.00     0.177 HD
ATOM     17  H31 UNL     1      -0.933   4.299  10.708  1.00  0.00     0.177 HD
ENDBRANCH   6  15
TORSDOF 4
ENDMDL
