MODEL 1
REMARK VINA RESULT: -6.018249529      0.000      0.000
REMARK  3 active torsions:
REMARK  status: ('A' for Active; 'I' for Inactive)
REMARK    1  A    between atoms: O1_2  and  N1_3 
REMARK    2  A    between atoms: C2_5  and  C4_7 
REMARK       I    between atoms: C4_7  and  N2_9 
REMARK    3  A    between atoms: N2_9  and  N3_11 
REMARK       I    between atoms: N3_11  and  C5_13 
ROOT
HETATM    1  C4  UNL     1      73.351  10.237  33.864  1.00  0.00     0.283 C 
HETATM    2  O2  UNL     1      72.300  10.810  33.554  1.00  0.00    -0.265 OA
HETATM    3  N2  UNL     1      74.505  10.981  34.242  1.00  0.00    -0.262 N 
ATOM      4  H2  UNL     1      75.370  10.505  34.498  1.00  0.00     0.190 HD
ENDROOT
BRANCH   3   5
HETATM    5  N3  UNL     1      74.425  12.366  34.255  1.00  0.00    -0.271 N 
HETATM    6  C5  UNL     1      75.337  13.118  33.485  1.00  0.00     0.200 C 
HETATM    7  N4  UNL     1      75.261  13.088  32.208  1.00  0.00    -0.372 N 
HETATM    8  N5  UNL     1      76.320  13.893  34.170  1.00  0.00    -0.062 NA
ATOM      9  H42 UNL     1      74.558  12.535  31.718  1.00  0.00     0.158 HD
ATOM     10  H41 UNL     1      75.920  13.632  31.651  1.00  0.00     0.158 HD
ATOM     11  H3  UNL     1      73.714  12.836  34.816  1.00  0.00     0.189 HD
ENDBRANCH   3   5
BRANCH   1  12
HETATM   12  C2  UNL     1      73.407   8.786  33.843  1.00  0.00     0.097 C 
HETATM   13  N1  UNL     1      74.293   8.215  33.106  1.00  0.00    -0.266 N 
ATOM     14  H1  UNL     1      74.943   8.767  32.547  1.00  0.00     0.194 HD
HETATM   15  C3  UNL     1      72.450   8.006  34.664  1.00  0.00     0.076 C 
BRANCH  13  16
HETATM   16  O1  UNL     1      74.340   6.857  33.091  1.00  0.00    -0.285 OA
HETATM   17  C1  UNL     1      75.438   6.049  32.807  1.00  0.00     0.237 C 
ENDBRANCH  13  16
ENDBRANCH   1  12
TORSDOF 3
ENDMDL
MODEL 2
REMARK VINA RESULT: -5.938415769      2.288      2.584
REMARK  3 active torsions:
REMARK  status: ('A' for Active; 'I' for Inactive)
REMARK    1  A    between atoms: O1_2  and  N1_3 
REMARK    2  A    between atoms: C2_5  and  C4_7 
REMARK       I    between atoms: C4_7  and  N2_9 
REMARK    3  A    between atoms: N2_9  and  N3_11 
REMARK       I    between atoms: N3_11  and  C5_13 
ROOT
HETATM    1  C4  UNL     1      73.569   9.793  33.293  1.00  0.00     0.283 C 
HETATM    2  O2  UNL     1      72.484  10.076  33.814  1.00  0.00    -0.265 OA
HETATM    3  N2  UNL     1      74.017  10.472  32.124  1.00  0.00    -0.262 N 
ATOM      4  H2  UNL     1      74.913  10.237  31.696  1.00  0.00     0.190 HD
ENDROOT
BRANCH   3   5
HETATM    5  N3  UNL     1      73.207  11.459  31.580  1.00  0.00    -0.271 N 
HETATM    6  C5  UNL     1      73.325  12.785  32.047  1.00  0.00     0.200 C 
HETATM    7  N4  UNL     1      74.384  13.456  31.785  1.00  0.00    -0.372 N 
HETATM    8  N5  UNL     1      72.246  13.333  32.804  1.00  0.00    -0.062 NA
ATOM      9  H42 UNL     1      75.155  13.064  31.244  1.00  0.00     0.158 HD
ATOM     10  H41 UNL     1      74.469  14.415  32.123  1.00  0.00     0.158 HD
ATOM     11  H3  UNL     1      72.534  11.228  30.849  1.00  0.00     0.189 HD
ENDBRANCH   3   5
BRANCH   1  12
HETATM   12  C2  UNL     1      74.398   8.756  33.882  1.00  0.00     0.097 C 
HETATM   13  N1  UNL     1      75.265   9.091  34.770  1.00  0.00    -0.266 N 
ATOM     14  H1  UNL     1      75.372  10.065  35.057  1.00  0.00     0.194 HD
HETATM   15  C3  UNL     1      74.223   7.349  33.449  1.00  0.00     0.076 C 
BRANCH  13  16
HETATM   16  O1  UNL     1      76.037   8.116  35.318  1.00  0.00    -0.285 OA
HETATM   17  C1  UNL     1      76.164   7.790  36.665  1.00  0.00     0.237 C 
ENDBRANCH  13  16
ENDBRANCH   1  12
TORSDOF 3
ENDMDL
MODEL 3
REMARK VINA RESULT: -5.918687734      2.552      3.197
REMARK  3 active torsions:
REMARK  status: ('A' for Active; 'I' for Inactive)
REMARK    1  A    between atoms: O1_2  and  N1_3 
REMARK    2  A    between atoms: C2_5  and  C4_7 
REMARK       I    between atoms: C4_7  and  N2_9 
REMARK    3  A    between atoms: N2_9  and  N3_11 
REMARK       I    between atoms: N3_11  and  C5_13 
ROOT
HETATM    1  C4  UNL     1      75.749  10.544  31.845  1.00  0.00     0.283 C 
HETATM    2  O2  UNL     1      76.669  11.306  32.165  1.00  0.00    -0.265 OA
HETATM    3  N2  UNL     1      74.405  11.009  31.779  1.00  0.00    -0.262 N 
ATOM      4  H2  UNL     1      73.648  10.379  31.514  1.00  0.00     0.190 HD
ENDROOT
BRANCH   3   5
HETATM    5  N3  UNL     1      74.149  12.339  32.083  1.00  0.00    -0.271 N 
HETATM    6  C5  UNL     1      73.804  12.692  33.405  1.00  0.00     0.200 C 
HETATM    7  N4  UNL     1      74.685  12.611  34.330  1.00  0.00    -0.372 N 
HETATM    8  N5  UNL     1      72.471  13.131  33.661  1.00  0.00    -0.062 NA
ATOM      9  H42 UNL     1      75.638  12.298  34.148  1.00  0.00     0.158 HD
ATOM     10  H41 UNL     1      74.436  12.867  35.286  1.00  0.00     0.158 HD
ATOM     11  H3  UNL     1      74.209  13.054  31.358  1.00  0.00     0.189 HD
ENDBRANCH   3   5
BRANCH   1  12
HETATM   12  C2  UNL     1      76.045   9.157  31.532  1.00  0.00     0.097 C 
HETATM   13  N1  UNL     1      75.369   8.235  32.120  1.00  0.00    -0.266 N 
ATOM     14  H1  UNL     1      74.640   8.470  32.794  1.00  0.00     0.194 HD
HETATM   15  C3  UNL     1      77.110   8.842  30.549  1.00  0.00     0.076 C 
BRANCH  13  16
HETATM   16  O1  UNL     1      75.651   6.939  31.822  1.00  0.00    -0.285 OA
HETATM   17  C1  UNL     1      75.619   5.845  32.681  1.00  0.00     0.237 C 
ENDBRANCH  13  16
ENDBRANCH   1  12
TORSDOF 3
ENDMDL
MODEL 4
REMARK VINA RESULT: -5.896149015      2.206      2.777
REMARK  3 active torsions:
REMARK  status: ('A' for Active; 'I' for Inactive)
REMARK    1  A    between atoms: O1_2  and  N1_3 
REMARK    2  A    between atoms: C2_5  and  C4_7 
REMARK       I    between atoms: C4_7  and  N2_9 
REMARK    3  A    between atoms: N2_9  and  N3_11 
REMARK       I    between atoms: N3_11  and  C5_13 
ROOT
HETATM    1  C4  UNL     1      73.128   9.958  33.388  1.00  0.00     0.283 C 
HETATM    2  O2  UNL     1      72.021  10.447  33.640  1.00  0.00    -0.265 OA
HETATM    3  N2  UNL     1      73.879  10.393  32.259  1.00  0.00    -0.262 N 
ATOM      4  H2  UNL     1      74.793   9.989  32.053  1.00  0.00     0.190 HD
ENDROOT
BRANCH   3   5
HETATM    5  N3  UNL     1      73.340  11.380  31.445  1.00  0.00    -0.271 N 
HETATM    6  C5  UNL     1      73.411  12.728  31.854  1.00  0.00     0.200 C 
HETATM    7  N4  UNL     1      74.546  13.320  31.884  1.00  0.00    -0.372 N 
HETATM    8  N5  UNL     1      72.200  13.387  32.223  1.00  0.00    -0.062 NA
ATOM      9  H42 UNL     1      75.411  12.850  31.620  1.00  0.00     0.158 HD
ATOM     10  H41 UNL     1      74.597  14.296  32.179  1.00  0.00     0.158 HD
ATOM     11  H3  UNL     1      72.896  11.132  30.561  1.00  0.00     0.189 HD
ENDBRANCH   3   5
BRANCH   1  12
HETATM   12  C2  UNL     1      73.670   8.928  34.256  1.00  0.00     0.097 C 
HETATM   13  N1  UNL     1      74.030   9.252  35.447  1.00  0.00    -0.266 N 
ATOM     14  H1  UNL     1      73.938  10.212  35.778  1.00  0.00     0.194 HD
HETATM   15  C3  UNL     1      73.794   7.538  33.750  1.00  0.00     0.076 C 
BRANCH  13  16
HETATM   16  O1  UNL     1      74.536   8.282  36.254  1.00  0.00    -0.285 OA
HETATM   17  C1  UNL     1      74.054   7.873  37.494  1.00  0.00     0.237 C 
ENDBRANCH  13  16
ENDBRANCH   1  12
TORSDOF 3
ENDMDL
MODEL 5
REMARK VINA RESULT: -5.880985245      1.458      1.498
REMARK  3 active torsions:
REMARK  status: ('A' for Active; 'I' for Inactive)
REMARK    1  A    between atoms: O1_2  and  N1_3 
REMARK    2  A    between atoms: C2_5  and  C4_7 
REMARK       I    between atoms: C4_7  and  N2_9 
REMARK    3  A    between atoms: N2_9  and  N3_11 
REMARK       I    between atoms: N3_11  and  C5_13 
ROOT
HETATM    1  C4  UNL     1      74.294  10.253  32.924  1.00  0.00     0.283 C 
HETATM    2  O2  UNL     1      73.370  10.839  32.348  1.00  0.00    -0.265 OA
HETATM    3  N2  UNL     1      75.056  10.907  33.933  1.00  0.00    -0.262 N 
ATOM      4  H2  UNL     1      75.818  10.422  34.408  1.00  0.00     0.190 HD
ENDROOT
BRANCH   3   5
HETATM    5  N3  UNL     1      74.740  12.220  34.256  1.00  0.00    -0.271 N 
HETATM    6  C5  UNL     1      75.408  13.274  33.598  1.00  0.00     0.200 C 
HETATM    7  N4  UNL     1      75.183  13.486  32.355  1.00  0.00    -0.372 N 
HETATM    8  N5  UNL     1      76.318  14.072  34.352  1.00  0.00    -0.062 NA
ATOM      9  H42 UNL     1      74.532  12.915  31.816  1.00  0.00     0.158 HD
ATOM     10  H41 UNL     1      75.666  14.248  31.879  1.00  0.00     0.158 HD
ATOM     11  H3  UNL     1      74.032  12.420  34.962  1.00  0.00     0.189 HD
ENDBRANCH   3   5
BRANCH   1  12
HETATM   12  C2  UNL     1      74.604   8.880  32.568  1.00  0.00     0.097 C 
HETATM   13  N1  UNL     1      75.370   8.664  31.558  1.00  0.00    -0.266 N 
ATOM     14  H1  UNL     1      75.754   9.439  31.017  1.00  0.00     0.194 HD
HETATM   15  C3  UNL     1      74.033   7.771  33.370  1.00  0.00     0.076 C 
BRANCH  13  16
HETATM   16  O1  UNL     1      75.656   7.376  31.230  1.00  0.00    -0.285 OA
HETATM   17  C1  UNL     1      76.906   6.763  31.210  1.00  0.00     0.237 C 
ENDBRANCH  13  16
ENDBRANCH   1  12
TORSDOF 3
ENDMDL
