MODEL 1
REMARK VINA RESULT: -7.358354760      0.000      0.000
REMARK  15 active torsions:
REMARK  status: ('A' for Active; 'I' for Inactive)
REMARK    1  A    between atoms: C3_9  and  N4_10 
REMARK    2  A    between atoms: N4_10  and  C4_12 
REMARK    3  A    between atoms: C5_17  and  C6_18 
REMARK    4  A    between atoms: C6_18  and  N7_19 
REMARK    5  A    between atoms: N7_19  and  C7_20 
REMARK    6  A    between atoms: C7_20  and  O2_21 
REMARK    7  A    between atoms: C7_20  and  C8_23 
REMARK       I    between atoms: C8_23  and  N8_25 
REMARK    8  A    between atoms: N8_25  and  S1_27 
REMARK    9  A    between atoms: S1_27  and  N9_28 
REMARK   10  A    between atoms: C9_33  and  O6_34 
REMARK   11  A    between atoms: C10_36  and  O7_37 
REMARK   12  A    between atoms: C11_39  and  C12_40 
REMARK   13  A    between atoms: C12_40  and  O8_41 
REMARK   14  A    between atoms: C12_40  and  N10_43 
REMARK   15  A    between atoms: N10_43  and  C13_45 
ROOT
HETATM    1  C4  UNL     1       1.771  20.249  15.938  1.00  0.00     0.229 C 
HETATM    2  N5  UNL     1       1.438  21.619  15.831  1.00  0.00    -0.314 N 
ATOM      3  H5  UNL     1       1.915  22.256  16.470  1.00  0.00     0.182 HD
HETATM    4  N6  UNL     1       0.649  22.114  15.065  1.00  0.00    -0.325 N 
ATOM      5  H6  UNL     1       0.502  23.123  15.093  1.00  0.00     0.180 HD
HETATM    6  C5  UNL     1      -0.091  21.334  14.113  1.00  0.00     0.182 C 
HETATM    7  C9  UNL     1       0.509  20.028  13.764  1.00  0.00     0.180 C 
HETATM    8  C10 UNL     1       1.579  19.496  14.651  1.00  0.00     0.193 C 
ENDROOT
BRANCH   1   9
HETATM    9  N4  UNL     1       3.173  20.167  16.394  1.00  0.00    -0.351 N 
ATOM     10  H4  UNL     1       3.885  20.790  16.013  1.00  0.00     0.163 HD
BRANCH   9  11
HETATM   11  C3  UNL     1       3.506  19.187  17.386  1.00  0.00     0.124 A 
HETATM   12  N3  UNL     1       3.966  17.978  16.902  1.00  0.00    -0.294 N 
HETATM   13  C2  UNL     1       4.486  17.105  17.759  1.00  0.00     0.327 A 
ATOM     14  H3  UNL     1       3.908  17.759  15.907  1.00  0.00     0.172 HD
HETATM   15  N2  UNL     1       4.560  17.397  19.070  1.00  0.00    -0.296 N 
HETATM   16  O1  UNL     1       4.915  15.985  17.329  1.00  0.00    -0.247 OA
HETATM   17  C1  UNL     1       4.128  18.537  19.576  1.00  0.00     0.138 A 
ATOM     18  H2  UNL     1       4.967  16.707  19.702  1.00  0.00     0.171 HD
HETATM   19  N1  UNL     1       4.201  18.839  20.970  1.00  0.00    -0.081 NA
HETATM   20  C11 UNL     1       3.560  19.511  18.713  1.00  0.00     0.100 A 
BRANCH  20  21
HETATM   21  C12 UNL     1       3.089  20.720  19.310  1.00  0.00     0.153 C 
BRANCH  21  22
HETATM   22  O8  UNL     1       3.876  21.752  19.144  1.00  0.00    -0.345 OA
ATOM     23  H8  UNL     1       4.130  21.915  18.243  1.00  0.00     0.219 HD
ENDBRANCH  21  22
BRANCH  21  24
HETATM   24  N10 UNL     1       1.961  21.026  20.051  1.00  0.00    -0.365 N 
ATOM     25  H10 UNL     1       2.076  21.519  20.936  1.00  0.00     0.162 HD
BRANCH  24  26
HETATM   26  C13 UNL     1       0.607  20.670  19.618  1.00  0.00     0.093 C 
HETATM   27  C14 UNL     1       0.320  19.276  20.021  1.00  0.00     0.036 C 
HETATM   28  C15 UNL     1      -1.113  18.936  19.685  1.00  0.00     0.076 C 
HETATM   29  S2  UNL     1      -1.921  20.578  19.862  1.00  0.00    -0.167 SA
HETATM   30  C16 UNL     1      -0.424  21.535  20.348  1.00  0.00     0.099 C 
ENDBRANCH  24  26
ENDBRANCH  21  24
ENDBRANCH  20  21
ENDBRANCH   9  11
ENDBRANCH   1   9
BRANCH   8  31
HETATM   31  O7  UNL     1       1.354  18.161  14.996  1.00  0.00    -0.389 OA
ATOM     32  H7  UNL     1       1.034  17.727  14.214  1.00  0.00     0.210 HD
ENDBRANCH   8  31
BRANCH   7  33
HETATM   33  O6  UNL     1       0.993  20.110  12.432  1.00  0.00    -0.390 OA
ATOM     34  H6  UNL     1       0.878  19.260  12.025  1.00  0.00     0.210 HD
ENDBRANCH   7  33
BRANCH   6  35
HETATM   35  C6  UNL     1      -1.519  21.236  14.679  1.00  0.00     0.187 C 
BRANCH  35  36
HETATM   36  N7  UNL     1      -1.872  20.114  15.349  1.00  0.00    -0.391 NA
BRANCH  36  37
HETATM   37  C7  UNL     1      -2.232  18.975  16.028  1.00  0.00     0.284 C 
BRANCH  37  38
HETATM   38  O2  UNL     1      -1.552  17.863  16.054  1.00  0.00    -0.331 OA
ATOM     39  H2  UNL     1      -1.923  16.990  16.006  1.00  0.00     0.220 HD
ENDBRANCH  37  38
BRANCH  37  40
HETATM   40  C8  UNL     1      -3.460  18.845  16.836  1.00  0.00     0.321 C 
HETATM   41  O3  UNL     1      -3.785  17.777  17.357  1.00  0.00    -0.261 OA
HETATM   42  N8  UNL     1      -4.283  19.990  17.009  1.00  0.00    -0.229 N 
ATOM     43  H8  UNL     1      -4.010  20.870  16.571  1.00  0.00     0.183 HD
BRANCH  42  44
HETATM   44  S1  UNL     1      -5.717  19.929  17.932  1.00  0.00     0.319 S 
HETATM   45  O4  UNL     1      -6.597  21.112  17.621  1.00  0.00    -0.183 OA
HETATM   46  O5  UNL     1      -5.427  19.892  19.390  1.00  0.00    -0.183 OA
BRANCH  44  47
HETATM   47  N9  UNL     1      -6.611  18.514  17.470  1.00  0.00    -0.311 N 
ATOM     48  H92 UNL     1      -6.494  18.011  16.591  1.00  0.00     0.170 HD
ATOM     49  H91 UNL     1      -7.261  18.282  18.221  1.00  0.00     0.170 HD
ENDBRANCH  44  47
ENDBRANCH  42  44
ENDBRANCH  37  40
ENDBRANCH  36  37
ENDBRANCH  35  36
ENDBRANCH   6  35
TORSDOF 15
ENDMDL
MODEL 2
REMARK VINA RESULT: -7.127797136      2.805      4.528
REMARK  15 active torsions:
REMARK  status: ('A' for Active; 'I' for Inactive)
REMARK    1  A    between atoms: C3_9  and  N4_10 
REMARK    2  A    between atoms: N4_10  and  C4_12 
REMARK    3  A    between atoms: C5_17  and  C6_18 
REMARK    4  A    between atoms: C6_18  and  N7_19 
REMARK    5  A    between atoms: N7_19  and  C7_20 
REMARK    6  A    between atoms: C7_20  and  O2_21 
REMARK    7  A    between atoms: C7_20  and  C8_23 
REMARK       I    between atoms: C8_23  and  N8_25 
REMARK    8  A    between atoms: N8_25  and  S1_27 
REMARK    9  A    between atoms: S1_27  and  N9_28 
REMARK   10  A    between atoms: C9_33  and  O6_34 
REMARK   11  A    between atoms: C10_36  and  O7_37 
REMARK   12  A    between atoms: C11_39  and  C12_40 
REMARK   13  A    between atoms: C12_40  and  O8_41 
REMARK   14  A    between atoms: C12_40  and  N10_43 
REMARK   15  A    between atoms: N10_43  and  C13_45 
ROOT
HETATM    1  C4  UNL     1       0.190  20.579  16.449  1.00  0.00     0.229 C 
HETATM    2  N5  UNL     1       0.868  21.453  15.568  1.00  0.00    -0.314 N 
ATOM      3  H5  UNL     1       1.325  22.262  15.989  1.00  0.00     0.182 HD
HETATM    4  N6  UNL     1       0.963  21.342  14.371  1.00  0.00    -0.325 N 
ATOM      5  H6  UNL     1       1.485  22.048  13.851  1.00  0.00     0.180 HD
HETATM    6  C5  UNL     1       0.368  20.252  13.649  1.00  0.00     0.182 C 
HETATM    7  C9  UNL     1       0.093  19.040  14.451  1.00  0.00     0.180 C 
HETATM    8  C10 UNL     1       0.114  19.169  15.933  1.00  0.00     0.193 C 
ENDROOT
BRANCH   1   9
HETATM    9  N4  UNL     1       0.888  20.629  17.749  1.00  0.00    -0.351 N 
ATOM     10  H4  UNL     1       1.820  20.230  17.859  1.00  0.00     0.163 HD
BRANCH   9  11
HETATM   11  C3  UNL     1       0.220  21.253  18.853  1.00  0.00     0.124 A 
HETATM   12  N3  UNL     1      -0.004  22.611  18.726  1.00  0.00    -0.294 N 
HETATM   13  C2  UNL     1      -0.796  23.212  19.609  1.00  0.00     0.327 A 
ATOM     14  H3  UNL     1       0.430  23.142  17.971  1.00  0.00     0.172 HD
HETATM   15  N2  UNL     1      -1.365  22.507  20.605  1.00  0.00    -0.296 N 
HETATM   16  O1  UNL     1      -1.012  24.463  19.507  1.00  0.00    -0.247 OA
HETATM   17  C1  UNL     1      -1.174  21.212  20.766  1.00  0.00     0.138 A 
ATOM     18  H2  UNL     1      -1.969  22.997  21.265  1.00  0.00     0.171 HD
HETATM   19  N1  UNL     1      -1.773  20.471  21.830  1.00  0.00    -0.081 NA
HETATM   20  C11 UNL     1      -0.337  20.512  19.857  1.00  0.00     0.100 A 
BRANCH  20  21
HETATM   21  C12 UNL     1      -0.146  19.115  20.085  1.00  0.00     0.153 C 
BRANCH  21  22
HETATM   22  O8  UNL     1      -0.956  18.338  19.413  1.00  0.00    -0.345 OA
ATOM     23  H8  UNL     1      -0.913  17.420  19.653  1.00  0.00     0.219 HD
ENDBRANCH  21  22
BRANCH  21  24
HETATM   24  N10 UNL     1       0.725  18.404  20.894  1.00  0.00    -0.365 N 
ATOM     25  H10 UNL     1       1.069  17.502  20.566  1.00  0.00     0.162 HD
BRANCH  24  26
HETATM   26  C13 UNL     1       1.171  18.894  22.200  1.00  0.00     0.093 C 
HETATM   27  C14 UNL     1       1.207  17.765  23.155  1.00  0.00     0.036 C 
HETATM   28  C15 UNL     1       1.778  18.234  24.473  1.00  0.00     0.076 C 
HETATM   29  S2  UNL     1       2.925  19.557  23.916  1.00  0.00    -0.167 SA
HETATM   30  C16 UNL     1       2.610  19.407  22.106  1.00  0.00     0.099 C 
ENDBRANCH  24  26
ENDBRANCH  21  24
ENDBRANCH  20  21
ENDBRANCH   9  11
ENDBRANCH   1   9
BRANCH   8  31
HETATM   31  O7  UNL     1      -1.011  18.586  16.523  1.00  0.00    -0.389 OA
ATOM     32  H7  UNL     1      -1.701  18.600  15.870  1.00  0.00     0.210 HD
ENDBRANCH   8  31
BRANCH   7  33
HETATM   33  O6  UNL     1       1.008  18.032  14.048  1.00  0.00    -0.390 OA
ATOM     34  H6  UNL     1       0.628  17.189  14.264  1.00  0.00     0.210 HD
ENDBRANCH   7  33
BRANCH   6  35
HETATM   35  C6  UNL     1      -0.874  20.842  12.959  1.00  0.00     0.187 C 
BRANCH  35  36
HETATM   36  N7  UNL     1      -1.633  21.729  13.644  1.00  0.00    -0.391 NA
BRANCH  36  37
HETATM   37  C7  UNL     1      -2.403  22.630  14.340  1.00  0.00     0.284 C 
BRANCH  37  38
HETATM   38  O2  UNL     1      -2.484  23.907  14.091  1.00  0.00    -0.331 OA
ATOM     39  H2  UNL     1      -1.857  24.411  13.587  1.00  0.00     0.220 HD
ENDBRANCH  37  38
BRANCH  37  40
HETATM   40  C8  UNL     1      -3.259  22.275  15.489  1.00  0.00     0.321 C 
HETATM   41  O3  UNL     1      -4.296  22.891  15.741  1.00  0.00    -0.261 OA
HETATM   42  N8  UNL     1      -2.865  21.192  16.320  1.00  0.00    -0.229 N 
ATOM     43  H8  UNL     1      -2.003  20.690  16.107  1.00  0.00     0.183 HD
BRANCH  42  44
HETATM   44  S1  UNL     1      -3.800  20.712  17.664  1.00  0.00     0.319 S 
HETATM   45  O4  UNL     1      -3.786  21.780  18.726  1.00  0.00    -0.183 OA
HETATM   46  O5  UNL     1      -3.312  19.430  18.239  1.00  0.00    -0.183 OA
BRANCH  44  47
HETATM   47  N9  UNL     1      -5.451  20.542  17.157  1.00  0.00    -0.311 N 
ATOM     48  H92 UNL     1      -6.248  21.004  17.596  1.00  0.00     0.170 HD
ATOM     49  H91 UNL     1      -5.482  19.910  16.357  1.00  0.00     0.170 HD
ENDBRANCH  44  47
ENDBRANCH  42  44
ENDBRANCH  37  40
ENDBRANCH  36  37
ENDBRANCH  35  36
ENDBRANCH   6  35
TORSDOF 15
ENDMDL
MODEL 3
REMARK VINA RESULT: -7.126134522      2.613      3.648
REMARK  15 active torsions:
REMARK  status: ('A' for Active; 'I' for Inactive)
REMARK    1  A    between atoms: C3_9  and  N4_10 
REMARK    2  A    between atoms: N4_10  and  C4_12 
REMARK    3  A    between atoms: C5_17  and  C6_18 
REMARK    4  A    between atoms: C6_18  and  N7_19 
REMARK    5  A    between atoms: N7_19  and  C7_20 
REMARK    6  A    between atoms: C7_20  and  O2_21 
REMARK    7  A    between atoms: C7_20  and  C8_23 
REMARK       I    between atoms: C8_23  and  N8_25 
REMARK    8  A    between atoms: N8_25  and  S1_27 
REMARK    9  A    between atoms: S1_27  and  N9_28 
REMARK   10  A    between atoms: C9_33  and  O6_34 
REMARK   11  A    between atoms: C10_36  and  O7_37 
REMARK   12  A    between atoms: C11_39  and  C12_40 
REMARK   13  A    between atoms: C12_40  and  O8_41 
REMARK   14  A    between atoms: C12_40  and  N10_43 
REMARK   15  A    between atoms: N10_43  and  C13_45 
ROOT
HETATM    1  C4  UNL     1       1.083  20.331  15.415  1.00  0.00     0.229 C 
HETATM    2  N5  UNL     1       0.737  21.684  15.195  1.00  0.00    -0.314 N 
ATOM      3  H5  UNL     1       1.385  22.385  15.553  1.00  0.00     0.182 HD
HETATM    4  N6  UNL     1      -0.245  22.096  14.629  1.00  0.00    -0.325 N 
ATOM      5  H6  UNL     1      -0.374  23.104  14.539  1.00  0.00     0.180 HD
HETATM    6  C5  UNL     1      -1.240  21.219  14.077  1.00  0.00     0.182 C 
HETATM    7  C9  UNL     1      -0.776  19.847  13.778  1.00  0.00     0.180 C 
HETATM    8  C10 UNL     1       0.511  19.403  14.380  1.00  0.00     0.193 C 
ENDROOT
BRANCH   1   9
HETATM    9  N4  UNL     1       2.558  20.248  15.440  1.00  0.00    -0.351 N 
ATOM     10  H4  UNL     1       3.112  20.530  14.632  1.00  0.00     0.163 HD
BRANCH   9  11
HETATM   11  C3  UNL     1       3.188  19.760  16.632  1.00  0.00     0.124 A 
HETATM   12  N3  UNL     1       3.243  18.386  16.759  1.00  0.00    -0.294 N 
HETATM   13  C2  UNL     1       3.991  17.865  17.728  1.00  0.00     0.327 A 
ATOM     14  H3  UNL     1       2.721  17.782  16.124  1.00  0.00     0.172 HD
HETATM   15  N2  UNL     1       4.677  18.666  18.565  1.00  0.00    -0.296 N 
HETATM   16  O1  UNL     1       4.053  16.600  17.860  1.00  0.00    -0.247 OA
HETATM   17  C1  UNL     1       4.649  19.982  18.481  1.00  0.00     0.138 A 
ATOM     18  H2  UNL     1       5.243  18.235  19.296  1.00  0.00     0.171 HD
HETATM   19  N1  UNL     1       5.371  20.827  19.378  1.00  0.00    -0.081 NA
HETATM   20  C11 UNL     1       3.867  20.599  17.470  1.00  0.00     0.100 A 
BRANCH  20  21
HETATM   21  C12 UNL     1       3.852  22.028  17.433  1.00  0.00     0.153 C 
BRANCH  21  22
HETATM   22  O8  UNL     1       4.677  22.558  16.567  1.00  0.00    -0.345 OA
ATOM     23  H8  UNL     1       5.229  23.247  16.918  1.00  0.00     0.219 HD
ENDBRANCH  21  22
BRANCH  21  24
HETATM   24  N10 UNL     1       3.145  22.980  18.147  1.00  0.00    -0.365 N 
ATOM     25  H10 UNL     1       3.057  22.867  19.157  1.00  0.00     0.162 HD
BRANCH  24  26
HETATM   26  C13 UNL     1       2.517  24.141  17.513  1.00  0.00     0.093 C 
HETATM   27  C14 UNL     1       1.066  24.128  17.803  1.00  0.00     0.036 C 
HETATM   28  C15 UNL     1       0.428  25.382  17.255  1.00  0.00     0.076 C 
HETATM   29  S2  UNL     1       1.813  26.581  17.397  1.00  0.00    -0.167 SA
HETATM   30  C16 UNL     1       3.054  25.434  18.132  1.00  0.00     0.099 C 
ENDBRANCH  24  26
ENDBRANCH  21  24
ENDBRANCH  20  21
ENDBRANCH   9  11
ENDBRANCH   1   9
BRANCH   8  31
HETATM   31  O7  UNL     1       0.397  18.147  14.983  1.00  0.00    -0.389 OA
ATOM     32  H7  UNL     1       0.245  18.301  15.908  1.00  0.00     0.210 HD
ENDBRANCH   8  31
BRANCH   7  33
HETATM   33  O6  UNL     1      -0.715  19.703  12.367  1.00  0.00    -0.390 OA
ATOM     34  H6  UNL     1      -1.416  19.119  12.102  1.00  0.00     0.210 HD
ENDBRANCH   7  33
BRANCH   6  35
HETATM   35  C6  UNL     1      -2.430  21.279  15.050  1.00  0.00     0.187 C 
BRANCH  35  36
HETATM   36  N7  UNL     1      -2.560  20.298  15.973  1.00  0.00    -0.391 NA
BRANCH  36  37
HETATM   37  C7  UNL     1      -2.694  19.302  16.910  1.00  0.00     0.284 C 
BRANCH  37  38
HETATM   38  O2  UNL     1      -3.656  18.423  16.948  1.00  0.00    -0.331 OA
ATOM     39  H2  UNL     1      -4.171  18.204  17.716  1.00  0.00     0.220 HD
ENDBRANCH  37  38
BRANCH  37  40
HETATM   40  C8  UNL     1      -1.753  19.082  18.026  1.00  0.00     0.321 C 
HETATM   41  O3  UNL     1      -1.847  18.107  18.772  1.00  0.00    -0.261 OA
HETATM   42  N8  UNL     1      -0.716  20.031  18.236  1.00  0.00    -0.229 N 
ATOM     43  H8  UNL     1      -0.648  20.838  17.616  1.00  0.00     0.183 HD
BRANCH  42  44
HETATM   44  S1  UNL     1       0.417  19.851  19.499  1.00  0.00     0.319 S 
HETATM   45  O4  UNL     1       1.229  21.109  19.664  1.00  0.00    -0.183 OA
HETATM   46  O5  UNL     1       1.325  18.698  19.258  1.00  0.00    -0.183 OA
BRANCH  44  47
HETATM   47  N9  UNL     1      -0.447  19.622  20.987  1.00  0.00    -0.311 N 
ATOM     48  H92 UNL     1      -1.245  18.999  21.110  1.00  0.00     0.170 HD
ATOM     49  H91 UNL     1      -0.021  20.211  21.703  1.00  0.00     0.170 HD
ENDBRANCH  44  47
ENDBRANCH  42  44
ENDBRANCH  37  40
ENDBRANCH  36  37
ENDBRANCH  35  36
ENDBRANCH   6  35
TORSDOF 15
ENDMDL
MODEL 4
REMARK VINA RESULT: -7.097011349      2.349      3.263
REMARK  15 active torsions:
REMARK  status: ('A' for Active; 'I' for Inactive)
REMARK    1  A    between atoms: C3_9  and  N4_10 
REMARK    2  A    between atoms: N4_10  and  C4_12 
REMARK    3  A    between atoms: C5_17  and  C6_18 
REMARK    4  A    between atoms: C6_18  and  N7_19 
REMARK    5  A    between atoms: N7_19  and  C7_20 
REMARK    6  A    between atoms: C7_20  and  O2_21 
REMARK    7  A    between atoms: C7_20  and  C8_23 
REMARK       I    between atoms: C8_23  and  N8_25 
REMARK    8  A    between atoms: N8_25  and  S1_27 
REMARK    9  A    between atoms: S1_27  and  N9_28 
REMARK   10  A    between atoms: C9_33  and  O6_34 
REMARK   11  A    between atoms: C10_36  and  O7_37 
REMARK   12  A    between atoms: C11_39  and  C12_40 
REMARK   13  A    between atoms: C12_40  and  O8_41 
REMARK   14  A    between atoms: C12_40  and  N10_43 
REMARK   15  A    between atoms: N10_43  and  C13_45 
ROOT
HETATM    1  C4  UNL     1       1.301  19.805  15.537  1.00  0.00     0.229 C 
HETATM    2  N5  UNL     1       0.883  21.143  15.721  1.00  0.00    -0.314 N 
ATOM      3  H5  UNL     1       1.386  21.686  16.422  1.00  0.00     0.182 HD
HETATM    4  N6  UNL     1      -0.006  21.709  15.135  1.00  0.00    -0.325 N 
ATOM      5  H6  UNL     1      -0.205  22.682  15.366  1.00  0.00     0.180 HD
HETATM    6  C5  UNL     1      -0.795  21.063  14.123  1.00  0.00     0.182 C 
HETATM    7  C9  UNL     1      -0.161  19.890  13.482  1.00  0.00     0.180 C 
HETATM    8  C10 UNL     1       1.022  19.287  14.153  1.00  0.00     0.193 C 
ENDROOT
BRANCH   1   9
HETATM    9  N4  UNL     1       2.745  19.744  15.841  1.00  0.00    -0.351 N 
ATOM     10  H4  UNL     1       3.424  20.240  15.263  1.00  0.00     0.163 HD
BRANCH   9  11
HETATM   11  C3  UNL     1       3.167  18.971  16.972  1.00  0.00     0.124 A 
HETATM   12  N3  UNL     1       3.805  17.780  16.678  1.00  0.00    -0.294 N 
HETATM   13  C2  UNL     1       4.403  17.118  17.663  1.00  0.00     0.327 A 
ATOM     14  H3  UNL     1       3.816  17.418  15.725  1.00  0.00     0.172 HD
HETATM   15  N2  UNL     1       4.384  17.600  18.920  1.00  0.00    -0.296 N 
HETATM   16  O1  UNL     1       4.995  16.019  17.410  1.00  0.00    -0.247 OA
HETATM   17  C1  UNL     1       3.783  18.729  19.245  1.00  0.00     0.138 A 
ATOM     18  H2  UNL     1       4.855  17.069  19.653  1.00  0.00     0.171 HD
HETATM   19  N1  UNL     1       3.759  19.232  20.582  1.00  0.00    -0.081 NA
HETATM   20  C11 UNL     1       3.124  19.482  18.238  1.00  0.00     0.100 A 
BRANCH  20  21
HETATM   21  C12 UNL     1       2.471  20.687  18.643  1.00  0.00     0.153 C 
BRANCH  21  22
HETATM   22  O8  UNL     1       1.201  20.550  18.927  1.00  0.00    -0.345 OA
ATOM     23  H8  UNL     1       0.895  21.094  19.642  1.00  0.00     0.219 HD
ENDBRANCH  21  22
BRANCH  21  24
HETATM   24  N10 UNL     1       2.910  21.993  18.784  1.00  0.00    -0.365 N 
ATOM     25  H10 UNL     1       2.323  22.653  19.294  1.00  0.00     0.162 HD
BRANCH  24  26
HETATM   26  C13 UNL     1       4.181  22.465  18.231  1.00  0.00     0.093 C 
HETATM   27  C14 UNL     1       3.996  23.827  17.684  1.00  0.00     0.036 C 
HETATM   28  C15 UNL     1       5.326  24.371  17.218  1.00  0.00     0.076 C 
HETATM   29  S2  UNL     1       6.481  23.538  18.380  1.00  0.00    -0.167 SA
HETATM   30  C16 UNL     1       5.222  22.602  19.346  1.00  0.00     0.099 C 
ENDBRANCH  24  26
ENDBRANCH  21  24
ENDBRANCH  20  21
ENDBRANCH   9  11
ENDBRANCH   1   9
BRANCH   8  31
HETATM   31  O7  UNL     1       0.909  17.898  14.259  1.00  0.00    -0.389 OA
ATOM     32  H7  UNL     1       0.036  17.719  14.588  1.00  0.00     0.210 HD
ENDBRANCH   8  31
BRANCH   7  33
HETATM   33  O6  UNL     1       0.180  20.250  12.151  1.00  0.00    -0.390 OA
ATOM     34  H6  UNL     1      -0.304  19.683  11.562  1.00  0.00     0.210 HD
ENDBRANCH   7  33
BRANCH   6  35
HETATM   35  C6  UNL     1      -2.149  20.758  14.787  1.00  0.00     0.187 C 
BRANCH  35  36
HETATM   36  N7  UNL     1      -2.208  19.772  15.711  1.00  0.00    -0.391 NA
BRANCH  36  37
HETATM   37  C7  UNL     1      -2.267  18.770  16.649  1.00  0.00     0.284 C 
BRANCH  37  38
HETATM   38  O2  UNL     1      -2.369  17.496  16.390  1.00  0.00    -0.331 OA
ATOM     39  H2  UNL     1      -3.163  16.979  16.468  1.00  0.00     0.220 HD
ENDBRANCH  37  38
BRANCH  37  40
HETATM   40  C8  UNL     1      -2.227  18.995  18.107  1.00  0.00     0.321 C 
HETATM   41  O3  UNL     1      -1.872  18.114  18.891  1.00  0.00    -0.261 OA
HETATM   42  N8  UNL     1      -2.612  20.268  18.608  1.00  0.00    -0.229 N 
ATOM     43  H8  UNL     1      -2.909  20.991  17.953  1.00  0.00     0.183 HD
BRANCH  42  44
HETATM   44  S1  UNL     1      -2.589  20.615  20.278  1.00  0.00     0.319 S 
HETATM   45  O4  UNL     1      -3.670  19.847  20.993  1.00  0.00    -0.183 OA
HETATM   46  O5  UNL     1      -2.756  22.070  20.536  1.00  0.00    -0.183 OA
BRANCH  44  47
HETATM   47  N9  UNL     1      -1.079  20.066  20.936  1.00  0.00    -0.311 N 
ATOM     48  H92 UNL     1      -0.199  20.024  20.422  1.00  0.00     0.170 HD
ATOM     49  H91 UNL     1      -1.226  19.800  21.909  1.00  0.00     0.170 HD
ENDBRANCH  44  47
ENDBRANCH  42  44
ENDBRANCH  37  40
ENDBRANCH  36  37
ENDBRANCH  35  36
ENDBRANCH   6  35
TORSDOF 15
ENDMDL
MODEL 5
REMARK VINA RESULT: -7.070118824      3.082      6.725
REMARK  15 active torsions:
REMARK  status: ('A' for Active; 'I' for Inactive)
REMARK    1  A    between atoms: C3_9  and  N4_10 
REMARK    2  A    between atoms: N4_10  and  C4_12 
REMARK    3  A    between atoms: C5_17  and  C6_18 
REMARK    4  A    between atoms: C6_18  and  N7_19 
REMARK    5  A    between atoms: N7_19  and  C7_20 
REMARK    6  A    between atoms: C7_20  and  O2_21 
REMARK    7  A    between atoms: C7_20  and  C8_23 
REMARK       I    between atoms: C8_23  and  N8_25 
REMARK    8  A    between atoms: N8_25  and  S1_27 
REMARK    9  A    between atoms: S1_27  and  N9_28 
REMARK   10  A    between atoms: C9_33  and  O6_34 
REMARK   11  A    between atoms: C10_36  and  O7_37 
REMARK   12  A    between atoms: C11_39  and  C12_40 
REMARK   13  A    between atoms: C12_40  and  O8_41 
REMARK   14  A    between atoms: C12_40  and  N10_43 
REMARK   15  A    between atoms: N10_43  and  C13_45 
ROOT
HETATM    1  C4  UNL     1       2.419  20.745  16.152  1.00  0.00     0.229 C 
HETATM    2  N5  UNL     1       2.586  19.469  15.567  1.00  0.00    -0.314 N 
ATOM      3  H5  UNL     1       1.984  19.248  14.774  1.00  0.00     0.182 HD
HETATM    4  N6  UNL     1       3.366  18.615  15.908  1.00  0.00    -0.325 N 
ATOM      5  H6  UNL     1       3.383  17.733  15.395  1.00  0.00     0.180 HD
HETATM    6  C5  UNL     1       4.272  18.793  17.008  1.00  0.00     0.182 C 
HETATM    7  C9  UNL     1       4.566  20.199  17.362  1.00  0.00     0.180 C 
HETATM    8  C10 UNL     1       3.667  21.254  16.819  1.00  0.00     0.193 C 
ENDROOT
BRANCH   1   9
HETATM    9  N4  UNL     1       1.976  21.668  15.088  1.00  0.00    -0.351 N 
ATOM     10  H4  UNL     1       2.467  22.546  14.918  1.00  0.00     0.163 HD
BRANCH   9  11
HETATM   11  C3  UNL     1       0.838  21.296  14.299  1.00  0.00     0.124 A 
HETATM   12  N3  UNL     1       1.096  20.440  13.245  1.00  0.00    -0.294 N 
HETATM   13  C2  UNL     1       0.069  19.892  12.603  1.00  0.00     0.327 A 
ATOM     14  H3  UNL     1       2.055  20.233  12.965  1.00  0.00     0.172 HD
HETATM   15  N2  UNL     1      -1.195  20.170  12.975  1.00  0.00    -0.296 N 
HETATM   16  O1  UNL     1       0.288  19.101  11.629  1.00  0.00    -0.247 OA
HETATM   17  C1  UNL     1      -1.485  20.985  13.972  1.00  0.00     0.138 A 
ATOM     18  H2  UNL     1      -1.961  19.732  12.464  1.00  0.00     0.171 HD
HETATM   19  N1  UNL     1      -2.828  21.284  14.357  1.00  0.00    -0.081 NA
HETATM   20  C11 UNL     1      -0.432  21.604  14.695  1.00  0.00     0.100 A 
BRANCH  20  21
HETATM   21  C12 UNL     1      -0.797  22.493  15.752  1.00  0.00     0.153 C 
BRANCH  21  22
HETATM   22  O8  UNL     1      -0.720  23.763  15.447  1.00  0.00    -0.345 OA
ATOM     23  H8  UNL     1      -1.492  24.271  15.668  1.00  0.00     0.219 HD
ENDBRANCH  21  22
BRANCH  21  24
HETATM   24  N10 UNL     1      -1.208  22.284  17.058  1.00  0.00    -0.365 N 
ATOM     25  H10 UNL     1      -1.674  23.045  17.551  1.00  0.00     0.162 HD
BRANCH  24  26
HETATM   26  C13 UNL     1      -1.002  21.015  17.759  1.00  0.00     0.093 C 
HETATM   27  C14 UNL     1       0.123  21.163  18.709  1.00  0.00     0.036 C 
HETATM   28  C15 UNL     1       0.269  19.898  19.522  1.00  0.00     0.076 C 
HETATM   29  S2  UNL     1      -1.471  19.309  19.585  1.00  0.00    -0.167 SA
HETATM   30  C16 UNL     1      -2.228  20.680  18.614  1.00  0.00     0.099 C 
ENDBRANCH  24  26
ENDBRANCH  21  24
ENDBRANCH  20  21
ENDBRANCH   9  11
ENDBRANCH   1   9
BRANCH   8  31
HETATM   31  O7  UNL     1       3.257  22.149  17.810  1.00  0.00    -0.389 OA
ATOM     32  H7  UNL     1       3.362  21.703  18.643  1.00  0.00     0.210 HD
ENDBRANCH   8  31
BRANCH   7  33
HETATM   33  O6  UNL     1       5.906  20.475  16.982  1.00  0.00    -0.390 OA
ATOM     34  H6  UNL     1       6.480  20.042  17.602  1.00  0.00     0.210 HD
ENDBRANCH   7  33
BRANCH   6  35
HETATM   35  C6  UNL     1       3.685  17.966  18.165  1.00  0.00     0.187 C 
BRANCH  35  36
HETATM   36  N7  UNL     1       4.081  18.249  19.428  1.00  0.00    -0.391 NA
BRANCH  36  37
HETATM   37  C7  UNL     1       4.484  18.537  20.709  1.00  0.00     0.284 C 
BRANCH  37  38
HETATM   38  O2  UNL     1       5.666  18.295  21.202  1.00  0.00    -0.331 OA
ATOM     39  H2  UNL     1       6.297  18.953  21.471  1.00  0.00     0.220 HD
ENDBRANCH  37  38
BRANCH  37  40
HETATM   40  C8  UNL     1       3.623  19.169  21.727  1.00  0.00     0.321 C 
HETATM   41  O3  UNL     1       3.669  20.378  21.958  1.00  0.00    -0.261 OA
HETATM   42  N8  UNL     1       2.720  18.348  22.456  1.00  0.00    -0.229 N 
ATOM     43  H8  UNL     1       2.691  17.347  22.263  1.00  0.00     0.183 HD
BRANCH  42  44
HETATM   44  S1  UNL     1       1.685  18.997  23.647  1.00  0.00     0.319 S 
HETATM   45  O4  UNL     1       1.304  17.940  24.650  1.00  0.00    -0.183 OA
HETATM   46  O5  UNL     1       0.456  19.579  23.044  1.00  0.00    -0.183 OA
BRANCH  44  47
HETATM   47  N9  UNL     1       2.550  20.221  24.524  1.00  0.00    -0.311 N 
ATOM     48  H92 UNL     1       3.431  20.640  24.226  1.00  0.00     0.170 HD
ATOM     49  H91 UNL     1       2.029  20.441  25.373  1.00  0.00     0.170 HD
ENDBRANCH  44  47
ENDBRANCH  42  44
ENDBRANCH  37  40
ENDBRANCH  36  37
ENDBRANCH  35  36
ENDBRANCH   6  35
TORSDOF 15
ENDMDL
