MODEL 1
REMARK VINA RESULT: -7.679107982      0.000      0.000
REMARK  4 active torsions:
REMARK  status: ('A' for Active; 'I' for Inactive)
REMARK    1  A    between atoms: N1_1  and  C1_5 
REMARK    2  A    between atoms: C1_5  and  C2_6 
REMARK       I    between atoms: C2_6  and  N2_8 
REMARK    3  A    between atoms: N2_8  and  N3_10 
REMARK    4  A    between atoms: N3_10  and  C3_12 
ROOT
HETATM    1  C3  UNL     1       9.202  19.578  12.529  1.00  0.00     0.191 C 
HETATM    2  N4  UNL     1       8.470  20.243  13.437  1.00  0.00    -0.321 N 
ATOM      3  H4  UNL     1       8.478  19.840  14.374  1.00  0.00     0.169 HD
HETATM    4  C4  UNL     1       7.717  21.374  13.305  1.00  0.00     0.144 A 
HETATM    5  N5  UNL     1       7.256  22.130  14.315  1.00  0.00    -0.292 N 
ATOM      6  H5  UNL     1       7.413  21.949  15.307  1.00  0.00     0.172 HD
HETATM    7  C5  UNL     1       6.555  23.161  13.816  1.00  0.00     0.326 A 
HETATM    8  O2  UNL     1       5.972  24.081  14.472  1.00  0.00    -0.247 OA
HETATM    9  N6  UNL     1       6.583  23.041  12.464  1.00  0.00    -0.301 N 
ATOM     10  H6  UNL     1       6.136  23.682  11.808  1.00  0.00     0.171 HD
HETATM   11  C6  UNL     1       7.290  21.952  12.123  1.00  0.00     0.149 A 
HETATM   12  C7  UNL     1       7.528  21.517  10.828  1.00  0.00     0.279 C 
HETATM   13  O3  UNL     1       6.697  21.922   9.981  1.00  0.00    -0.265 OA
HETATM   14  N7  UNL     1       8.537  20.730  10.436  1.00  0.00    -0.285 N 
ATOM     15  H7  UNL     1       8.761  20.756   9.441  1.00  0.00     0.172 HD
HETATM   16  C8  UNL     1       9.299  19.903  11.194  1.00  0.00     0.293 C 
HETATM   17  O4  UNL     1      10.245  19.341  10.589  1.00  0.00    -0.264 OA
ENDROOT
BRANCH   1  18
HETATM   18  N3  UNL     1       9.860  18.555  12.960  1.00  0.00    -0.278 N 
ATOM     19  H3  UNL     1      10.240  17.871  12.305  1.00  0.00     0.189 HD
BRANCH  18  20
HETATM   20  N2  UNL     1      10.045  18.398  14.336  1.00  0.00    -0.267 N 
HETATM   21  C2  UNL     1       9.641  17.226  15.017  1.00  0.00     0.261 C 
HETATM   22  O1  UNL     1       9.099  16.282  14.389  1.00  0.00    -0.270 OA
ATOM     23  H2  UNL     1      10.483  19.150  14.866  1.00  0.00     0.190 HD
BRANCH  21  24
HETATM   24  C1  UNL     1       9.847  17.086  16.465  1.00  0.00     0.333 C 
BRANCH  24  25
HETATM   25  N1  UNL     1      11.127  17.642  16.830  1.00  0.00    -0.071 N 
ATOM     26  H13 UNL     1      11.903  17.062  16.511  1.00  0.00     0.274 HD
ATOM     27  H12 UNL     1      11.344  18.485  16.300  1.00  0.00     0.274 HD
ATOM     28  H11 UNL     1      11.157  17.802  17.837  1.00  0.00     0.274 HD
ENDBRANCH  24  25
ENDBRANCH  21  24
ENDBRANCH  18  20
ENDBRANCH   1  18
TORSDOF 4
ENDMDL
MODEL 2
REMARK VINA RESULT: -7.256037111      3.197      5.720
REMARK  4 active torsions:
REMARK  status: ('A' for Active; 'I' for Inactive)
REMARK    1  A    between atoms: N1_1  and  C1_5 
REMARK    2  A    between atoms: C1_5  and  C2_6 
REMARK       I    between atoms: C2_6  and  N2_8 
REMARK    3  A    between atoms: N2_8  and  N3_10 
REMARK    4  A    between atoms: N3_10  and  C3_12 
ROOT
HETATM    1  C3  UNL     1       8.968  17.690  14.922  1.00  0.00     0.191 C 
HETATM    2  N4  UNL     1       8.012  18.479  15.439  1.00  0.00    -0.321 N 
ATOM      3  H4  UNL     1       8.235  19.475  15.446  1.00  0.00     0.169 HD
HETATM    4  C4  UNL     1       6.791  18.160  15.956  1.00  0.00     0.144 A 
HETATM    5  N5  UNL     1       5.787  19.024  16.183  1.00  0.00    -0.292 N 
ATOM      6  H5  UNL     1       5.818  20.026  15.996  1.00  0.00     0.172 HD
HETATM    7  C5  UNL     1       4.736  18.361  16.696  1.00  0.00     0.326 A 
HETATM    8  O2  UNL     1       3.612  18.851  17.034  1.00  0.00    -0.247 OA
HETATM    9  N6  UNL     1       5.098  17.057  16.787  1.00  0.00    -0.301 N 
ATOM     10  H6  UNL     1       4.505  16.306  17.141  1.00  0.00     0.171 HD
HETATM   11  C6  UNL     1       6.355  16.905  16.340  1.00  0.00     0.149 A 
HETATM   12  C7  UNL     1       7.053  15.708  16.286  1.00  0.00     0.279 C 
HETATM   13  O3  UNL     1       6.639  14.827  17.075  1.00  0.00    -0.265 OA
HETATM   14  N7  UNL     1       8.092  15.439  15.486  1.00  0.00    -0.285 N 
ATOM     15  H7  UNL     1       8.292  14.451  15.332  1.00  0.00     0.172 HD
HETATM   16  C8  UNL     1       8.913  16.315  14.855  1.00  0.00     0.293 C 
HETATM   17  O4  UNL     1       9.761  15.798  14.086  1.00  0.00    -0.264 OA
ENDROOT
BRANCH   1  18
HETATM   18  N3  UNL     1      10.013  18.285  14.454  1.00  0.00    -0.278 N 
ATOM     19  H3  UNL     1      10.756  18.595  15.082  1.00  0.00     0.189 HD
BRANCH  18  20
HETATM   20  N2  UNL     1      10.113  18.499  13.077  1.00  0.00    -0.267 N 
HETATM   21  C2  UNL     1       9.400  19.531  12.425  1.00  0.00     0.261 C 
HETATM   22  O1  UNL     1       8.646  20.293  13.081  1.00  0.00    -0.270 OA
ATOM     23  H2  UNL     1      10.720  17.893  12.525  1.00  0.00     0.190 HD
BRANCH  21  24
HETATM   24  C1  UNL     1       9.524  19.734  10.975  1.00  0.00     0.333 C 
BRANCH  24  25
HETATM   25  N1  UNL     1       8.565  20.719  10.538  1.00  0.00    -0.071 N 
ATOM     26  H13 UNL     1       8.261  21.324  11.301  1.00  0.00     0.274 HD
ATOM     27  H12 UNL     1       8.990  21.431   9.945  1.00  0.00     0.274 HD
ATOM     28  H11 UNL     1       7.780  20.256  10.080  1.00  0.00     0.274 HD
ENDBRANCH  24  25
ENDBRANCH  21  24
ENDBRANCH  18  20
ENDBRANCH   1  18
TORSDOF 4
ENDMDL
MODEL 3
REMARK VINA RESULT: -7.098699162      2.133      3.922
REMARK  4 active torsions:
REMARK  status: ('A' for Active; 'I' for Inactive)
REMARK    1  A    between atoms: N1_1  and  C1_5 
REMARK    2  A    between atoms: C1_5  and  C2_6 
REMARK       I    between atoms: C2_6  and  N2_8 
REMARK    3  A    between atoms: N2_8  and  N3_10 
REMARK    4  A    between atoms: N3_10  and  C3_12 
ROOT
HETATM    1  C3  UNL     1       9.529  19.071  13.070  1.00  0.00     0.191 C 
HETATM    2  N4  UNL     1      10.213  19.101  11.915  1.00  0.00    -0.321 N 
ATOM      3  H4  UNL     1      11.139  18.675  11.953  1.00  0.00     0.169 HD
HETATM    4  C4  UNL     1       9.864  19.609  10.698  1.00  0.00     0.144 A 
HETATM    5  N5  UNL     1      10.478  19.343   9.533  1.00  0.00    -0.292 N 
ATOM      6  H5  UNL     1      11.283  18.727   9.418  1.00  0.00     0.172 HD
HETATM    7  C5  UNL     1       9.868  20.016   8.543  1.00  0.00     0.326 A 
HETATM    8  O2  UNL     1      10.174  20.008   7.309  1.00  0.00    -0.247 OA
HETATM    9  N6  UNL     1       8.851  20.714   9.108  1.00  0.00    -0.301 N 
ATOM     10  H6  UNL     1       8.204  21.322   8.605  1.00  0.00     0.171 HD
HETATM   11  C6  UNL     1       8.826  20.484  10.431  1.00  0.00     0.149 A 
HETATM   12  C7  UNL     1       7.921  21.031  11.328  1.00  0.00     0.279 C 
HETATM   13  O3  UNL     1       7.387  22.098  10.945  1.00  0.00    -0.265 OA
HETATM   14  N7  UNL     1       7.593  20.522  12.522  1.00  0.00    -0.285 N 
ATOM     15  H7  UNL     1       6.711  20.846  12.917  1.00  0.00     0.172 HD
HETATM   16  C8  UNL     1       8.286  19.629  13.273  1.00  0.00     0.293 C 
HETATM   17  O4  UNL     1       7.708  19.246  14.319  1.00  0.00    -0.264 OA
ENDROOT
BRANCH   1  18
HETATM   18  N3  UNL     1      10.099  18.469  14.059  1.00  0.00    -0.278 N 
ATOM     19  H3  UNL     1      10.882  18.903  14.548  1.00  0.00     0.189 HD
BRANCH  18  20
HETATM   20  N2  UNL     1       9.628  17.213  14.451  1.00  0.00    -0.267 N 
HETATM   21  C2  UNL     1       9.672  16.782  15.797  1.00  0.00     0.261 C 
HETATM   22  O1  UNL     1      10.144  17.532  16.687  1.00  0.00    -0.270 OA
ATOM     23  H2  UNL     1       9.240  16.588  13.744  1.00  0.00     0.190 HD
BRANCH  21  24
HETATM   24  C1  UNL     1       9.170  15.456  16.181  1.00  0.00     0.333 C 
BRANCH  24  25
HETATM   25  N1  UNL     1       8.313  14.940  15.142  1.00  0.00    -0.071 N 
ATOM     26  H13 UNL     1       7.797  15.680  14.667  1.00  0.00     0.274 HD
ATOM     27  H12 UNL     1       8.844  14.594  14.343  1.00  0.00     0.274 HD
ATOM     28  H11 UNL     1       7.694  14.228  15.528  1.00  0.00     0.274 HD
ENDBRANCH  24  25
ENDBRANCH  21  24
ENDBRANCH  18  20
ENDBRANCH   1  18
TORSDOF 4
ENDMDL
MODEL 4
REMARK VINA RESULT: -7.036856675      2.389      6.087
REMARK  4 active torsions:
REMARK  status: ('A' for Active; 'I' for Inactive)
REMARK    1  A    between atoms: N1_1  and  C1_5 
REMARK    2  A    between atoms: C1_5  and  C2_6 
REMARK       I    between atoms: C2_6  and  N2_8 
REMARK    3  A    between atoms: N2_8  and  N3_10 
REMARK    4  A    between atoms: N3_10  and  C3_12 
ROOT
HETATM    1  C3  UNL     1       8.390  19.384  13.671  1.00  0.00     0.191 C 
HETATM    2  N4  UNL     1       9.272  18.586  14.294  1.00  0.00    -0.321 N 
ATOM      3  H4  UNL     1      10.234  18.668  13.964  1.00  0.00     0.169 HD
HETATM    4  C4  UNL     1       9.086  17.681  15.298  1.00  0.00     0.144 A 
HETATM    5  N5  UNL     1      10.055  17.140  16.055  1.00  0.00    -0.292 N 
ATOM      6  H5  UNL     1      11.051  17.341  15.969  1.00  0.00     0.172 HD
HETATM    7  C5  UNL     1       9.507  16.293  16.942  1.00  0.00     0.326 A 
HETATM    8  O2  UNL     1      10.116  15.602  17.819  1.00  0.00    -0.247 OA
HETATM    9  N6  UNL     1       8.167  16.310  16.730  1.00  0.00    -0.301 N 
ATOM     10  H6  UNL     1       7.482  15.766  17.254  1.00  0.00     0.171 HD
HETATM   11  C6  UNL     1       7.880  17.154  15.726  1.00  0.00     0.149 A 
HETATM   12  C7  UNL     1       6.611  17.424  15.236  1.00  0.00     0.279 C 
HETATM   13  O3  UNL     1       5.764  16.528  15.461  1.00  0.00    -0.265 OA
HETATM   14  N7  UNL     1       6.244  18.524  14.568  1.00  0.00    -0.285 N 
ATOM     15  H7  UNL     1       5.243  18.722  14.552  1.00  0.00     0.172 HD
HETATM   16  C8  UNL     1       7.033  19.408  13.909  1.00  0.00     0.293 C 
HETATM   17  O4  UNL     1       6.441  20.411  13.440  1.00  0.00    -0.264 OA
ENDROOT
BRANCH   1  18
HETATM   18  N3  UNL     1       8.871  20.186  12.782  1.00  0.00    -0.278 N 
ATOM     19  H3  UNL     1       8.638  21.180  12.801  1.00  0.00     0.189 HD
BRANCH  18  20
HETATM   20  N2  UNL     1       9.713  19.675  11.791  1.00  0.00    -0.267 N 
HETATM   21  C2  UNL     1       9.437  19.839  10.414  1.00  0.00     0.261 C 
HETATM   22  O1  UNL     1       8.409  20.459  10.043  1.00  0.00    -0.270 OA
ATOM     23  H2  UNL     1      10.554  19.169  12.069  1.00  0.00     0.190 HD
BRANCH  21  24
HETATM   24  C1  UNL     1      10.340  19.291   9.393  1.00  0.00     0.333 C 
BRANCH  24  25
HETATM   25  N1  UNL     1      10.175  20.017   8.158  1.00  0.00    -0.071 N 
ATOM     26  H13 UNL     1       9.459  19.603   7.561  1.00  0.00     0.274 HD
ATOM     27  H12 UNL     1       9.739  20.927   8.302  1.00  0.00     0.274 HD
ATOM     28  H11 UNL     1      11.074  20.093   7.681  1.00  0.00     0.274 HD
ENDBRANCH  24  25
ENDBRANCH  21  24
ENDBRANCH  18  20
ENDBRANCH   1  18
TORSDOF 4
ENDMDL
MODEL 5
REMARK VINA RESULT: -6.953488345      1.613      3.663
REMARK  4 active torsions:
REMARK  status: ('A' for Active; 'I' for Inactive)
REMARK    1  A    between atoms: N1_1  and  C1_5 
REMARK    2  A    between atoms: C1_5  and  C2_6 
REMARK       I    between atoms: C2_6  and  N2_8 
REMARK    3  A    between atoms: N2_8  and  N3_10 
REMARK    4  A    between atoms: N3_10  and  C3_12 
ROOT
HETATM    1  C3  UNL     1       7.824  20.037  13.848  1.00  0.00     0.191 C 
HETATM    2  N4  UNL     1       8.861  19.712  13.059  1.00  0.00    -0.321 N 
ATOM      3  H4  UNL     1       9.624  19.228  13.531  1.00  0.00     0.169 HD
HETATM    4  C4  UNL     1       9.054  19.926  11.726  1.00  0.00     0.144 A 
HETATM    5  N5  UNL     1       9.978  19.320  10.961  1.00  0.00    -0.292 N 
ATOM      6  H5  UNL     1      10.649  18.625  11.288  1.00  0.00     0.172 HD
HETATM    7  C5  UNL     1       9.880  19.773   9.700  1.00  0.00     0.326 A 
HETATM    8  O2  UNL     1      10.590  19.426   8.704  1.00  0.00    -0.247 OA
HETATM    9  N6  UNL     1       8.871  20.681   9.683  1.00  0.00    -0.301 N 
ATOM     10  H6  UNL     1       8.559  21.197   8.861  1.00  0.00     0.171 HD
HETATM   11  C6  UNL     1       8.346  20.794  10.914  1.00  0.00     0.149 A 
HETATM   12  C7  UNL     1       7.298  21.630  11.270  1.00  0.00     0.279 C 
HETATM   13  O3  UNL     1       7.129  22.609  10.507  1.00  0.00    -0.265 OA
HETATM   14  N7  UNL     1       6.490  21.470  12.325  1.00  0.00    -0.285 N 
ATOM     15  H7  UNL     1       5.597  21.962  12.281  1.00  0.00     0.172 HD
HETATM   16  C8  UNL     1       6.707  20.737  13.446  1.00  0.00     0.293 C 
HETATM   17  O4  UNL     1       5.743  20.684  14.248  1.00  0.00    -0.264 OA
ENDROOT
BRANCH   1  18
HETATM   18  N3  UNL     1       7.896  19.655  15.079  1.00  0.00    -0.278 N 
ATOM     19  H3  UNL     1       7.249  20.026  15.775  1.00  0.00     0.189 HD
BRANCH  18  20
HETATM   20  N2  UNL     1       8.874  18.725  15.444  1.00  0.00    -0.267 N 
HETATM   21  C2  UNL     1       8.541  17.453  15.963  1.00  0.00     0.261 C 
HETATM   22  O1  UNL     1       7.338  17.123  16.110  1.00  0.00    -0.270 OA
ATOM     23  H2  UNL     1       9.857  18.972  15.333  1.00  0.00     0.190 HD
BRANCH  21  24
HETATM   24  C1  UNL     1       9.590  16.495  16.340  1.00  0.00     0.333 C 
BRANCH  24  25
HETATM   25  N1  UNL     1      10.768  17.207  16.767  1.00  0.00    -0.071 N 
ATOM     26  H13 UNL     1      10.719  18.201  16.545  1.00  0.00     0.274 HD
ATOM     27  H12 UNL     1      10.822  17.286  17.783  1.00  0.00     0.274 HD
ATOM     28  H11 UNL     1      11.599  16.766  16.372  1.00  0.00     0.274 HD
ENDBRANCH  24  25
ENDBRANCH  21  24
ENDBRANCH  18  20
ENDBRANCH   1  18
TORSDOF 4
ENDMDL
