MODEL 1
REMARK VINA RESULT: -6.418321715      0.000      0.000
REMARK  4 active torsions:
REMARK  status: ('A' for Active; 'I' for Inactive)
REMARK    1  A    between atoms: N1_1  and  N2_4 
REMARK       I    between atoms: N2_4  and  C1_6 
REMARK    2  A    between atoms: C1_6  and  C2_8 
REMARK    3  A    between atoms: C3_9  and  S1_10 
REMARK    4  A    between atoms: S1_10  and  N3_11 
ROOT
HETATM    1  C2  UNL     1       6.853  16.479  15.094  1.00  0.00     0.141 A 
HETATM    2  C3  UNL     1       8.081  17.148  15.103  1.00  0.00     0.174 A 
HETATM    3  N4  UNL     1       8.148  18.429  14.644  1.00  0.00    -0.296 N 
ATOM      4  H4  UNL     1       9.043  18.918  14.651  1.00  0.00     0.171 HD
HETATM    5  C4  UNL     1       7.074  19.048  14.190  1.00  0.00     0.328 A 
HETATM    6  O4  UNL     1       7.204  20.247  13.772  1.00  0.00    -0.247 OA
HETATM    7  N5  UNL     1       5.877  18.469  14.154  1.00  0.00    -0.275 N 
ATOM      8  H5  UNL     1       5.063  18.971  13.797  1.00  0.00     0.173 HD
HETATM    9  C5  UNL     1       5.767  17.185  14.606  1.00  0.00     0.268 A 
HETATM   10  O5  UNL     1       4.604  16.715  14.539  1.00  0.00    -0.267 OA
ENDROOT
BRANCH   1  11
HETATM   11  C1  UNL     1       6.695  15.124  15.607  1.00  0.00     0.278 C 
HETATM   12  N2  UNL     1       7.083  13.959  14.919  1.00  0.00    -0.272 N 
ATOM     13  H2  UNL     1       7.511  14.025  13.995  1.00  0.00     0.189 HD
HETATM   14  O1  UNL     1       6.178  14.890  16.757  1.00  0.00    -0.266 OA
BRANCH  12  15
HETATM   15  N1  UNL     1       6.873  12.699  15.517  1.00  0.00    -0.342 N 
ATOM     16  H12 UNL     1       6.463  12.652  16.450  1.00  0.00     0.176 HD
ATOM     17  H11 UNL     1       7.135  11.854  15.010  1.00  0.00     0.176 HD
ENDBRANCH  12  15
ENDBRANCH   1  11
BRANCH   2  18
HETATM   18  S1  UNL     1       9.542  16.384  15.678  1.00  0.00     0.273 S 
HETATM   19  O2  UNL     1       9.836  15.066  15.033  1.00  0.00    -0.199 OA
HETATM   20  O3  UNL     1       9.294  15.990  17.153  1.00  0.00    -0.199 OA
BRANCH  18  21
HETATM   21  N3  UNL     1      10.907  17.361  15.700  1.00  0.00    -0.323 N 
ATOM     22  H32 UNL     1      10.938  18.242  15.188  1.00  0.00     0.169 HD
ATOM     23  H31 UNL     1      11.689  17.010  16.255  1.00  0.00     0.169 HD
ENDBRANCH  18  21
ENDBRANCH   2  18
TORSDOF 4
ENDMDL
MODEL 2
REMARK VINA RESULT: -6.351238259      1.426      3.757
REMARK  4 active torsions:
REMARK  status: ('A' for Active; 'I' for Inactive)
REMARK    1  A    between atoms: N1_1  and  N2_4 
REMARK       I    between atoms: N2_4  and  C1_6 
REMARK    2  A    between atoms: C1_6  and  C2_8 
REMARK    3  A    between atoms: C3_9  and  S1_10 
REMARK    4  A    between atoms: S1_10  and  N3_11 
ROOT
HETATM    1  C2  UNL     1       7.551  17.326  14.824  1.00  0.00     0.141 A 
HETATM    2  C3  UNL     1       6.854  16.137  15.058  1.00  0.00     0.174 A 
HETATM    3  N4  UNL     1       5.492  16.140  15.018  1.00  0.00    -0.296 N 
ATOM      4  H4  UNL     1       4.984  15.273  15.187  1.00  0.00     0.171 HD
HETATM    5  C4  UNL     1       4.821  17.247  14.762  1.00  0.00     0.328 A 
HETATM    6  O4  UNL     1       3.546  17.184  14.740  1.00  0.00    -0.247 OA
HETATM    7  N5  UNL     1       5.421  18.411  14.531  1.00  0.00    -0.275 N 
ATOM      8  H5  UNL     1       4.877  19.252  14.336  1.00  0.00     0.173 HD
HETATM    9  C5  UNL     1       6.787  18.450  14.562  1.00  0.00     0.268 A 
HETATM   10  O5  UNL     1       7.273  19.584  14.331  1.00  0.00    -0.267 OA
ENDROOT
BRANCH   1  11
HETATM   11  C1  UNL     1       9.007  17.392  14.811  1.00  0.00     0.278 C 
HETATM   12  N2  UNL     1       9.813  17.493  15.960  1.00  0.00    -0.272 N 
ATOM     13  H2  UNL     1       9.387  17.522  16.886  1.00  0.00     0.189 HD
HETATM   14  O1  UNL     1       9.678  17.360  13.717  1.00  0.00    -0.266 OA
BRANCH  12  15
HETATM   15  N1  UNL     1      11.215  17.555  15.819  1.00  0.00    -0.342 N 
ATOM     16  H12 UNL     1      11.807  17.349  16.623  1.00  0.00     0.176 HD
ATOM     17  H11 UNL     1      11.617  17.805  14.915  1.00  0.00     0.176 HD
ENDBRANCH  12  15
ENDBRANCH   1  11
BRANCH   2  18
HETATM   18  S1  UNL     1       7.681  14.640  15.414  1.00  0.00     0.273 S 
HETATM   19  O2  UNL     1       8.693  14.748  16.511  1.00  0.00    -0.199 OA
HETATM   20  O3  UNL     1       8.552  14.302  14.183  1.00  0.00    -0.199 OA
BRANCH  18  21
HETATM   21  N3  UNL     1       6.690  13.304  15.641  1.00  0.00    -0.323 N 
ATOM     22  H32 UNL     1       6.478  12.952  16.575  1.00  0.00     0.169 HD
ATOM     23  H31 UNL     1       6.324  12.880  14.788  1.00  0.00     0.169 HD
ENDBRANCH  18  21
ENDBRANCH   2  18
TORSDOF 4
ENDMDL
MODEL 3
REMARK VINA RESULT: -6.159285586      1.507      1.608
REMARK  4 active torsions:
REMARK  status: ('A' for Active; 'I' for Inactive)
REMARK    1  A    between atoms: N1_1  and  N2_4 
REMARK       I    between atoms: N2_4  and  C1_6 
REMARK    2  A    between atoms: C1_6  and  C2_8 
REMARK    3  A    between atoms: C3_9  and  S1_10 
REMARK    4  A    between atoms: S1_10  and  N3_11 
ROOT
HETATM    1  C2  UNL     1       6.613  16.945  14.918  1.00  0.00     0.141 A 
HETATM    2  C3  UNL     1       7.940  17.387  14.912  1.00  0.00     0.174 A 
HETATM    3  N4  UNL     1       8.240  18.597  14.362  1.00  0.00    -0.296 N 
ATOM      4  H4  UNL     1       9.207  18.920  14.358  1.00  0.00     0.171 HD
HETATM    5  C4  UNL     1       7.299  19.358  13.835  1.00  0.00     0.328 A 
HETATM    6  O4  UNL     1       7.645  20.480  13.335  1.00  0.00    -0.247 OA
HETATM    7  N5  UNL     1       6.019  18.997  13.808  1.00  0.00    -0.275 N 
ATOM      8  H5  UNL     1       5.312  19.605  13.394  1.00  0.00     0.173 HD
HETATM    9  C5  UNL     1       5.677  17.791  14.350  1.00  0.00     0.268 A 
HETATM   10  O5  UNL     1       4.450  17.528  14.286  1.00  0.00    -0.267 OA
ENDROOT
BRANCH   1  11
HETATM   11  C1  UNL     1       6.211  15.682  15.524  1.00  0.00     0.278 C 
HETATM   12  N2  UNL     1       5.310  15.562  16.598  1.00  0.00    -0.272 N 
ATOM     13  H2  UNL     1       4.884  16.393  17.008  1.00  0.00     0.189 HD
HETATM   14  O1  UNL     1       6.661  14.555  15.107  1.00  0.00    -0.266 OA
BRANCH  12  15
HETATM   15  N1  UNL     1       5.001  14.282  17.104  1.00  0.00    -0.342 N 
ATOM     16  H12 UNL     1       4.177  13.793  16.755  1.00  0.00     0.176 HD
ATOM     17  H11 UNL     1       5.606  13.863  17.810  1.00  0.00     0.176 HD
ENDBRANCH  12  15
ENDBRANCH   1  11
BRANCH   2  18
HETATM   18  S1  UNL     1       9.235  16.424  15.582  1.00  0.00     0.273 S 
HETATM   19  O2  UNL     1       8.982  15.949  16.978  1.00  0.00    -0.199 OA
HETATM   20  O3  UNL     1      10.450  17.363  15.759  1.00  0.00    -0.199 OA
BRANCH  18  21
HETATM   21  N3  UNL     1       9.778  15.168  14.609  1.00  0.00    -0.323 N 
ATOM     22  H32 UNL     1       9.314  14.938  13.730  1.00  0.00     0.169 HD
ATOM     23  H31 UNL     1      10.593  14.664  14.958  1.00  0.00     0.169 HD
ENDBRANCH  18  21
ENDBRANCH   2  18
TORSDOF 4
ENDMDL
MODEL 4
REMARK VINA RESULT: -5.994879928      1.938      3.713
REMARK  4 active torsions:
REMARK  status: ('A' for Active; 'I' for Inactive)
REMARK    1  A    between atoms: N1_1  and  N2_4 
REMARK       I    between atoms: N2_4  and  C1_6 
REMARK    2  A    between atoms: C1_6  and  C2_8 
REMARK    3  A    between atoms: C3_9  and  S1_10 
REMARK    4  A    between atoms: S1_10  and  N3_11 
ROOT
HETATM    1  C2  UNL     1       7.192  17.432  14.995  1.00  0.00     0.141 A 
HETATM    2  C3  UNL     1       7.034  16.141  15.509  1.00  0.00     0.174 A 
HETATM    3  N4  UNL     1       5.826  15.766  16.015  1.00  0.00    -0.296 N 
ATOM      4  H4  UNL     1       5.710  14.825  16.389  1.00  0.00     0.171 HD
HETATM    5  C4  UNL     1       4.804  16.600  16.029  1.00  0.00     0.328 A 
HETATM    6  O4  UNL     1       3.699  16.188  16.518  1.00  0.00    -0.247 OA
HETATM    7  N5  UNL     1       4.887  17.841  15.556  1.00  0.00    -0.275 N 
ATOM      8  H5  UNL     1       4.080  18.465  15.579  1.00  0.00     0.173 HD
HETATM    9  C5  UNL     1       6.081  18.256  15.039  1.00  0.00     0.268 A 
HETATM   10  O5  UNL     1       6.073  19.437  14.613  1.00  0.00    -0.267 OA
ENDROOT
BRANCH   1  11
HETATM   11  C1  UNL     1       8.441  17.892  14.400  1.00  0.00     0.278 C 
HETATM   12  N2  UNL     1       8.537  18.590  13.182  1.00  0.00    -0.272 N 
ATOM     13  H2  UNL     1       7.697  18.813  12.649  1.00  0.00     0.189 HD
HETATM   14  O1  UNL     1       9.576  17.688  14.963  1.00  0.00    -0.266 OA
BRANCH  12  15
HETATM   15  N1  UNL     1       9.806  18.978  12.705  1.00  0.00    -0.342 N 
ATOM     16  H12 UNL     1      10.595  19.005  13.350  1.00  0.00     0.176 HD
ATOM     17  H11 UNL     1       9.917  19.227  11.722  1.00  0.00     0.176 HD
ENDBRANCH  12  15
ENDBRANCH   1  11
BRANCH   2  18
HETATM   18  S1  UNL     1       8.350  14.992  15.533  1.00  0.00     0.273 S 
HETATM   19  O2  UNL     1       8.841  14.599  14.175  1.00  0.00    -0.199 OA
HETATM   20  O3  UNL     1       7.779  13.665  16.083  1.00  0.00    -0.199 OA
BRANCH  18  21
HETATM   21  N3  UNL     1       9.630  15.382  16.546  1.00  0.00    -0.323 N 
ATOM     22  H32 UNL     1      10.236  16.179  16.353  1.00  0.00     0.169 HD
ATOM     23  H31 UNL     1       9.752  14.770  17.354  1.00  0.00     0.169 HD
ENDBRANCH  18  21
ENDBRANCH   2  18
TORSDOF 4
ENDMDL
MODEL 5
REMARK VINA RESULT: -5.983755225      2.375      3.871
REMARK  4 active torsions:
REMARK  status: ('A' for Active; 'I' for Inactive)
REMARK    1  A    between atoms: N1_1  and  N2_4 
REMARK       I    between atoms: N2_4  and  C1_6 
REMARK    2  A    between atoms: C1_6  and  C2_8 
REMARK    3  A    between atoms: C3_9  and  S1_10 
REMARK    4  A    between atoms: S1_10  and  N3_11 
ROOT
HETATM    1  C2  UNL     1       6.478  15.627  15.311  1.00  0.00     0.141 A 
HETATM    2  C3  UNL     1       6.549  17.007  15.096  1.00  0.00     0.174 A 
HETATM    3  N4  UNL     1       7.708  17.553  14.634  1.00  0.00    -0.296 N 
ATOM      4  H4  UNL     1       7.761  18.559  14.476  1.00  0.00     0.171 HD
HETATM    5  C4  UNL     1       8.765  16.802  14.388  1.00  0.00     0.328 A 
HETATM    6  O4  UNL     1       9.822  17.374  13.958  1.00  0.00    -0.247 OA
HETATM    7  N5  UNL     1       8.764  15.484  14.570  1.00  0.00    -0.275 N 
ATOM      8  H5  UNL     1       9.595  14.927  14.372  1.00  0.00     0.173 HD
HETATM    9  C5  UNL     1       7.620  14.897  15.032  1.00  0.00     0.268 A 
HETATM   10  O5  UNL     1       7.703  13.652  15.174  1.00  0.00    -0.267 OA
ENDROOT
BRANCH   1  11
HETATM   11  C1  UNL     1       5.260  14.966  15.764  1.00  0.00     0.278 C 
HETATM   12  N2  UNL     1       5.050  14.485  17.069  1.00  0.00    -0.272 N 
ATOM     13  H2  UNL     1       5.776  14.589  17.779  1.00  0.00     0.189 HD
HETATM   14  O1  UNL     1       4.261  14.773  14.982  1.00  0.00    -0.266 OA
BRANCH  12  15
HETATM   15  N1  UNL     1       3.829  13.856  17.388  1.00  0.00    -0.342 N 
ATOM     16  H12 UNL     1       3.514  13.064  16.828  1.00  0.00     0.176 HD
ATOM     17  H11 UNL     1       3.277  14.202  18.174  1.00  0.00     0.176 HD
ENDBRANCH  12  15
ENDBRANCH   1  11
BRANCH   2  18
HETATM   18  S1  UNL     1       5.192  18.060  15.414  1.00  0.00     0.273 S 
HETATM   19  O2  UNL     1       4.083  17.945  14.415  1.00  0.00    -0.199 OA
HETATM   20  O3  UNL     1       5.687  19.509  15.203  1.00  0.00    -0.199 OA
BRANCH  18  21
HETATM   21  N3  UNL     1       4.595  18.014  16.982  1.00  0.00    -0.323 N 
ATOM     22  H32 UNL     1       5.008  17.406  17.690  1.00  0.00     0.169 HD
ATOM     23  H31 UNL     1       3.804  18.630  17.169  1.00  0.00     0.169 HD
ENDBRANCH  18  21
ENDBRANCH   2  18
TORSDOF 4
ENDMDL
