MODEL 1
REMARK VINA RESULT: -6.390204467      0.000      0.000
REMARK  3 active torsions:
REMARK  status: ('A' for Active; 'I' for Inactive)
REMARK    1  A    between atoms: C2_3  and  N2_4 
REMARK    2  A    between atoms: N2_4  and  C3_6 
REMARK    3  A    between atoms: C5_13  and  N5_14 
ROOT
HETATM    1  N1  UNL     1      30.261  48.057  64.444  1.00  0.00    -0.196 NA
HETATM    2  C1  UNL     1      29.395  48.727  64.050  1.00  0.00     0.079 C 
HETATM    3  C2  UNL     1      28.309  49.574  63.533  1.00  0.00     0.262 C 
ENDROOT
BRANCH   3   4
HETATM    4  N2  UNL     1      28.131  49.255  62.154  1.00  0.00    -0.213 N 
ATOM      5  H2  UNL     1      27.870  48.297  61.919  1.00  0.00     0.178 HD
BRANCH   4   6
HETATM    6  C3  UNL     1      28.278  50.095  61.184  1.00  0.00     0.695 A 
HETATM    7  N3  UNL     1      28.726  49.667  59.990  1.00  0.00    -0.165 N 
HETATM    8  C4  UNL     1      28.898  50.498  58.948  1.00  0.00     0.208 A 
ATOM      9  H3  UNL     1      28.943  48.677  59.871  1.00  0.00     0.186 HD
HETATM   10 CL1  UNL     1      29.488  49.902  57.391  1.00  0.00    -0.044 Cl
HETATM   11  N4  UNL     1      28.606  51.794  59.127  1.00  0.00    -0.165 N 
HETATM   12  C5  UNL     1      28.154  52.222  60.335  1.00  0.00     0.692 A 
ATOM     13  H4  UNL     1      28.724  52.456  58.359  1.00  0.00     0.186 HD
HETATM   14  N6  UNL     1      27.986  51.393  61.368  1.00  0.00    -0.022 N 
ATOM     15  H6  UNL     1      27.646  51.734  62.267  1.00  0.00     0.203 HD
BRANCH  12  16
HETATM   16  N5  UNL     1      27.897  53.479  60.425  1.00  0.00    -0.234 N 
ATOM     17  H52 UNL     1      28.018  54.111  59.634  1.00  0.00     0.174 HD
ATOM     18  H51 UNL     1      27.566  53.801  61.334  1.00  0.00     0.174 HD
ENDBRANCH  12  16
ENDBRANCH   4   6
ENDBRANCH   3   4
TORSDOF 3
ENDMDL
MODEL 2
REMARK VINA RESULT: -6.361005993      2.545      4.777
REMARK  3 active torsions:
REMARK  status: ('A' for Active; 'I' for Inactive)
REMARK    1  A    between atoms: C2_3  and  N2_4 
REMARK    2  A    between atoms: N2_4  and  C3_6 
REMARK    3  A    between atoms: C5_13  and  N5_14 
ROOT
HETATM    1  N1  UNL     1      30.497  53.679  58.112  1.00  0.00    -0.196 NA
HETATM    2  C1  UNL     1      29.924  53.950  59.088  1.00  0.00     0.079 C 
HETATM    3  C2  UNL     1      29.181  54.289  60.312  1.00  0.00     0.262 C 
ENDROOT
BRANCH   3   4
HETATM    4  N2  UNL     1      28.018  53.464  60.354  1.00  0.00    -0.213 N 
ATOM      5  H2  UNL     1      27.109  53.925  60.354  1.00  0.00     0.178 HD
BRANCH   4   6
HETATM    6  C3  UNL     1      28.039  52.173  60.394  1.00  0.00     0.695 A 
HETATM    7  N3  UNL     1      27.997  51.538  61.579  1.00  0.00    -0.165 N 
HETATM    8  C4  UNL     1      28.016  50.198  61.676  1.00  0.00     0.208 A 
ATOM      9  H3  UNL     1      27.948  52.094  62.433  1.00  0.00     0.186 HD
HETATM   10 CL1  UNL     1      27.958  49.395  63.251  1.00  0.00    -0.044 Cl
HETATM   11  N4  UNL     1      28.081  49.489  60.540  1.00  0.00    -0.165 N 
HETATM   12  C5  UNL     1      28.124  50.135  59.345  1.00  0.00     0.692 A 
ATOM     13  H4  UNL     1      28.098  48.469  60.573  1.00  0.00     0.186 HD
HETATM   14  N6  UNL     1      28.104  51.467  59.253  1.00  0.00    -0.022 N 
ATOM     15  H6  UNL     1      28.138  51.932  58.346  1.00  0.00     0.203 HD
BRANCH  12  16
HETATM   16  N5  UNL     1      28.185  49.383  58.303  1.00  0.00    -0.234 N 
ATOM     17  H52 UNL     1      27.428  48.747  58.054  1.00  0.00     0.174 HD
ATOM     18  H51 UNL     1      29.034  49.465  57.745  1.00  0.00     0.174 HD
ENDBRANCH  12  16
ENDBRANCH   4   6
ENDBRANCH   3   4
TORSDOF 3
ENDMDL
MODEL 3
REMARK VINA RESULT: -6.355654877      1.683      2.402
REMARK  3 active torsions:
REMARK  status: ('A' for Active; 'I' for Inactive)
REMARK    1  A    between atoms: C2_3  and  N2_4 
REMARK    2  A    between atoms: N2_4  and  C3_6 
REMARK    3  A    between atoms: C5_13  and  N5_14 
ROOT
HETATM    1  N1  UNL     1      30.173  47.805  64.379  1.00  0.00    -0.196 NA
HETATM    2  C1  UNL     1      29.396  48.625  64.100  1.00  0.00     0.079 C 
HETATM    3  C2  UNL     1      28.419  49.659  63.726  1.00  0.00     0.262 C 
ENDROOT
BRANCH   3   4
HETATM    4  N2  UNL     1      27.879  49.304  62.454  1.00  0.00    -0.213 N 
ATOM      5  H2  UNL     1      27.347  48.437  62.390  1.00  0.00     0.178 HD
BRANCH   4   6
HETATM    6  C3  UNL     1      28.020  50.006  61.379  1.00  0.00     0.695 A 
HETATM    7  N3  UNL     1      28.177  51.339  61.465  1.00  0.00    -0.165 N 
HETATM    8  C4  UNL     1      28.326  52.116  60.379  1.00  0.00     0.208 A 
ATOM      9  H3  UNL     1      28.183  51.775  62.387  1.00  0.00     0.186 HD
HETATM   10 CL1  UNL     1      28.532  53.866  60.528  1.00  0.00    -0.044 Cl
HETATM   11  N4  UNL     1      28.316  51.520  59.178  1.00  0.00    -0.165 N 
HETATM   12  C5  UNL     1      28.157  50.173  59.095  1.00  0.00     0.692 A 
ATOM     13  H4  UNL     1      28.426  52.076  58.329  1.00  0.00     0.186 HD
HETATM   14  N6  UNL     1      28.008  49.405  60.177  1.00  0.00    -0.022 N 
ATOM     15  H6  UNL     1      27.889  48.396  60.094  1.00  0.00     0.203 HD
BRANCH  12  16
HETATM   16  N5  UNL     1      28.158  49.679  57.908  1.00  0.00    -0.234 N 
ATOM     17  H52 UNL     1      28.959  49.777  57.285  1.00  0.00     0.174 HD
ATOM     18  H51 UNL     1      27.310  49.186  57.631  1.00  0.00     0.174 HD
ENDBRANCH  12  16
ENDBRANCH   4   6
ENDBRANCH   3   4
TORSDOF 3
ENDMDL
MODEL 4
REMARK VINA RESULT: -6.301938780      1.967      2.567
REMARK  3 active torsions:
REMARK  status: ('A' for Active; 'I' for Inactive)
REMARK    1  A    between atoms: C2_3  and  N2_4 
REMARK    2  A    between atoms: N2_4  and  C3_6 
REMARK    3  A    between atoms: C5_13  and  N5_14 
ROOT
HETATM    1  N1  UNL     1      29.330  48.871  64.179  1.00  0.00    -0.196 NA
HETATM    2  C1  UNL     1      28.547  49.271  63.417  1.00  0.00     0.079 C 
HETATM    3  C2  UNL     1      27.573  49.783  62.440  1.00  0.00     0.262 C 
ENDROOT
BRANCH   3   4
HETATM    4  N2  UNL     1      28.102  49.546  61.137  1.00  0.00    -0.213 N 
ATOM      5  H2  UNL     1      28.419  48.601  60.918  1.00  0.00     0.178 HD
BRANCH   4   6
HETATM    6  C3  UNL     1      28.207  50.445  60.216  1.00  0.00     0.695 A 
HETATM    7  N3  UNL     1      28.548  51.704  60.545  1.00  0.00    -0.165 N 
HETATM    8  C4  UNL     1      28.671  52.678  59.627  1.00  0.00     0.208 A 
ATOM      9  H3  UNL     1      28.719  51.927  61.526  1.00  0.00     0.186 HD
HETATM   10 CL1  UNL     1      29.121  54.323  60.094  1.00  0.00    -0.044 Cl
HETATM   11  N4  UNL     1      28.442  52.361  58.344  1.00  0.00    -0.165 N 
HETATM   12  C5  UNL     1      28.098  51.088  58.016  1.00  0.00     0.692 A 
ATOM     13  H4  UNL     1      28.525  53.073  57.618  1.00  0.00     0.186 HD
HETATM   14  N6  UNL     1      27.976  50.123  58.932  1.00  0.00    -0.022 N 
ATOM     15  H6  UNL     1      27.717  49.174  58.666  1.00  0.00     0.203 HD
BRANCH  12  16
HETATM   16  N5  UNL     1      27.895  50.865  56.766  1.00  0.00    -0.234 N 
ATOM     17  H52 UNL     1      27.150  51.333  56.251  1.00  0.00     0.174 HD
ATOM     18  H51 UNL     1      28.525  50.195  56.325  1.00  0.00     0.174 HD
ENDBRANCH  12  16
ENDBRANCH   4   6
ENDBRANCH   3   4
TORSDOF 3
ENDMDL
MODEL 5
REMARK VINA RESULT: -6.191120892      1.492      4.268
REMARK  3 active torsions:
REMARK  status: ('A' for Active; 'I' for Inactive)
REMARK    1  A    between atoms: C2_3  and  N2_4 
REMARK    2  A    between atoms: N2_4  and  C3_6 
REMARK    3  A    between atoms: C5_13  and  N5_14 
ROOT
HETATM    1  N1  UNL     1      30.417  53.760  58.403  1.00  0.00    -0.196 NA
HETATM    2  C1  UNL     1      29.785  54.006  59.348  1.00  0.00     0.079 C 
HETATM    3  C2  UNL     1      28.969  54.312  60.534  1.00  0.00     0.262 C 
ENDROOT
BRANCH   3   4
HETATM    4  N2  UNL     1      27.869  53.404  60.546  1.00  0.00    -0.213 N 
ATOM      5  H2  UNL     1      26.928  53.797  60.543  1.00  0.00     0.178 HD
BRANCH   4   6
HETATM    6  C3  UNL     1      27.984  52.117  60.562  1.00  0.00     0.695 A 
HETATM    7  N3  UNL     1      28.036  51.436  59.403  1.00  0.00    -0.165 N 
HETATM    8  C4  UNL     1      28.155  50.097  59.362  1.00  0.00     0.208 A 
ATOM      9  H3  UNL     1      27.985  51.953  58.525  1.00  0.00     0.186 HD
HETATM   10 CL1  UNL     1      28.222  49.233  57.821  1.00  0.00    -0.044 Cl
HETATM   11  N4  UNL     1      28.220  49.439  60.528  1.00  0.00    -0.165 N 
HETATM   12  C5  UNL     1      28.167  50.132  61.696  1.00  0.00     0.692 A 
ATOM     13  H4  UNL     1      28.310  48.423  60.538  1.00  0.00     0.186 HD
HETATM   14  N6  UNL     1      28.049  51.461  61.732  1.00  0.00    -0.022 N 
ATOM     15  H6  UNL     1      28.010  51.962  62.620  1.00  0.00     0.203 HD
BRANCH  12  16
HETATM   16  N5  UNL     1      28.236  49.427  62.770  1.00  0.00    -0.234 N 
ATOM     17  H52 UNL     1      27.400  49.109  63.259  1.00  0.00     0.174 HD
ATOM     18  H51 UNL     1      29.176  49.207  63.098  1.00  0.00     0.174 HD
ENDBRANCH  12  16
ENDBRANCH   4   6
ENDBRANCH   3   4
TORSDOF 3
ENDMDL
