MODEL 1
REMARK VINA RESULT: -6.290913443      0.000      0.000
REMARK  5 active torsions:
REMARK  status: ('A' for Active; 'I' for Inactive)
REMARK    1  A    between atoms: C2_2  and  N1_3 
REMARK    2  A    between atoms: N1_3  and  C3_5 
REMARK    3  A    between atoms: C4_8  and  C5_9 
REMARK    4  A    between atoms: C5_9  and  N3_10 
REMARK    5  A    between atoms: C6_17  and  N5_18 
ROOT
HETATM    1  C3  UNL     1      28.066  52.074  59.905  1.00  0.00     0.694 A 
HETATM    2  N2  UNL     1      28.104  51.865  61.233  1.00  0.00    -0.175 N 
ATOM      3  H2  UNL     1      28.138  52.663  61.868  1.00  0.00     0.185 HD
HETATM    4  C4  UNL     1      28.097  50.609  61.738  1.00  0.00     0.174 A 
HETATM    5  N4  UNL     1      28.052  49.576  60.860  1.00  0.00    -0.175 N 
ATOM      6  H4  UNL     1      28.046  48.624  61.225  1.00  0.00     0.185 HD
HETATM    7  C6  UNL     1      28.014  49.755  59.529  1.00  0.00     0.691 A 
HETATM    8  N6  UNL     1      28.021  51.031  59.056  1.00  0.00    -0.023 N 
ATOM      9  H6  UNL     1      27.993  51.198  58.051  1.00  0.00     0.203 HD
ENDROOT
BRANCH   4  10
HETATM   10  C5  UNL     1      28.138  50.410  63.196  1.00  0.00     0.433 C 
HETATM   11  F1  UNL     1      28.642  51.488  63.853  1.00  0.00    -0.211 F 
BRANCH  10  12
HETATM   12  N3  UNL     1      28.845  49.177  63.504  1.00  0.00    -0.041 N 
ATOM     13  H33 UNL     1      29.345  48.809  62.695  1.00  0.00     0.278 HD
ATOM     14  H32 UNL     1      29.648  49.337  64.113  1.00  0.00     0.278 HD
ATOM     15  H31 UNL     1      28.195  48.496  63.896  1.00  0.00     0.278 HD
ENDBRANCH  10  12
ENDBRANCH   4  10
BRANCH   1  16
HETATM   16  N1  UNL     1      28.073  53.294  59.444  1.00  0.00    -0.226 N 
ATOM     17  H1  UNL     1      27.196  53.711  59.130  1.00  0.00     0.177 HD
BRANCH  16  18
HETATM   18  C2  UNL     1      29.288  54.068  59.364  1.00  0.00     0.133 C 
HETATM   19  C1  UNL     1      30.152  53.483  58.278  1.00  0.00     0.027 C 
ENDBRANCH  16  18
ENDBRANCH   1  16
BRANCH   7  20
HETATM   20  N5  UNL     1      27.970  48.805  58.668  1.00  0.00    -0.234 N 
ATOM     21  H52 UNL     1      28.646  48.047  58.768  1.00  0.00     0.174 HD
ATOM     22  H51 UNL     1      27.309  48.757  57.893  1.00  0.00     0.174 HD
ENDBRANCH   7  20
TORSDOF 5
ENDMDL
MODEL 2
REMARK VINA RESULT: -6.286955805      2.382      4.936
REMARK  5 active torsions:
REMARK  status: ('A' for Active; 'I' for Inactive)
REMARK    1  A    between atoms: C2_2  and  N1_3 
REMARK    2  A    between atoms: N1_3  and  C3_5 
REMARK    3  A    between atoms: C4_8  and  C5_9 
REMARK    4  A    between atoms: C5_9  and  N3_10 
REMARK    5  A    between atoms: C6_17  and  N5_18 
ROOT
HETATM    1  C3  UNL     1      28.091  50.172  61.353  1.00  0.00     0.694 A 
HETATM    2  N2  UNL     1      28.236  49.692  60.105  1.00  0.00    -0.175 N 
ATOM      3  H2  UNL     1      28.298  48.685  59.957  1.00  0.00     0.185 HD
HETATM    4  C4  UNL     1      28.302  50.530  59.043  1.00  0.00     0.174 A 
HETATM    5  N4  UNL     1      28.218  51.862  59.284  1.00  0.00    -0.175 N 
ATOM      6  H4  UNL     1      28.267  52.505  58.495  1.00  0.00     0.185 HD
HETATM    7  C6  UNL     1      28.074  52.369  60.520  1.00  0.00     0.691 A 
HETATM    8  N6  UNL     1      28.010  51.498  61.563  1.00  0.00    -0.023 N 
ATOM      9  H6  UNL     1      27.900  51.854  62.513  1.00  0.00     0.203 HD
ENDROOT
BRANCH   4  10
HETATM   10  C5  UNL     1      28.461  49.976  57.688  1.00  0.00     0.433 C 
HETATM   11  F1  UNL     1      29.762  49.746  57.371  1.00  0.00    -0.211 F 
BRANCH  10  12
HETATM   12  N3  UNL     1      27.786  50.831  56.725  1.00  0.00    -0.041 N 
ATOM     13  H33 UNL     1      27.771  51.807  57.023  1.00  0.00     0.278 HD
ATOM     14  H32 UNL     1      28.327  50.947  55.868  1.00  0.00     0.278 HD
ATOM     15  H31 UNL     1      26.849  50.472  56.543  1.00  0.00     0.278 HD
ENDBRANCH  10  12
ENDBRANCH   4  10
BRANCH   1  16
HETATM   16  N1  UNL     1      28.029  49.344  62.359  1.00  0.00    -0.226 N 
ATOM     17  H1  UNL     1      27.582  48.437  62.229  1.00  0.00     0.177 HD
BRANCH  16  18
HETATM   18  C2  UNL     1      28.578  49.679  63.652  1.00  0.00     0.133 C 
HETATM   19  C1  UNL     1      29.447  48.536  64.106  1.00  0.00     0.027 C 
ENDBRANCH  16  18
ENDBRANCH   1  16
BRANCH   7  20
HETATM   20  N5  UNL     1      27.990  53.621  60.787  1.00  0.00    -0.234 N 
ATOM     21  H52 UNL     1      28.808  54.071  61.198  1.00  0.00     0.174 HD
ATOM     22  H51 UNL     1      27.163  54.194  60.617  1.00  0.00     0.174 HD
ENDBRANCH   7  20
TORSDOF 5
ENDMDL
MODEL 3
REMARK VINA RESULT: -6.238499561      1.480      4.114
REMARK  5 active torsions:
REMARK  status: ('A' for Active; 'I' for Inactive)
REMARK    1  A    between atoms: C2_2  and  N1_3 
REMARK    2  A    between atoms: N1_3  and  C3_5 
REMARK    3  A    between atoms: C4_8  and  C5_9 
REMARK    4  A    between atoms: C5_9  and  N3_10 
REMARK    5  A    between atoms: C6_17  and  N5_18 
ROOT
HETATM    1  C3  UNL     1      27.881  50.110  61.180  1.00  0.00     0.694 A 
HETATM    2  N2  UNL     1      28.246  51.402  61.105  1.00  0.00    -0.175 N 
ATOM      3  H2  UNL     1      28.297  51.962  61.957  1.00  0.00     0.185 HD
HETATM    4  C4  UNL     1      28.547  51.970  59.913  1.00  0.00     0.174 A 
HETATM    5  N4  UNL     1      28.465  51.192  58.805  1.00  0.00    -0.175 N 
ATOM      6  H4  UNL     1      28.687  51.605  57.900  1.00  0.00     0.185 HD
HETATM    7  C6  UNL     1      28.103  49.899  58.851  1.00  0.00     0.691 A 
HETATM    8  N6  UNL     1      27.809  49.361  60.065  1.00  0.00    -0.023 N 
ATOM      9  H6  UNL     1      27.531  48.382  60.131  1.00  0.00     0.203 HD
ENDROOT
BRANCH   4  10
HETATM   10  C5  UNL     1      28.943  53.387  59.860  1.00  0.00     0.433 C 
HETATM   11  F1  UNL     1      28.486  54.094  60.927  1.00  0.00    -0.211 F 
BRANCH  10  12
HETATM   12  N3  UNL     1      28.545  53.962  58.586  1.00  0.00    -0.041 N 
ATOM     13  H33 UNL     1      27.549  53.841  58.404  1.00  0.00     0.278 HD
ATOM     14  H32 UNL     1      28.569  54.982  58.601  1.00  0.00     0.278 HD
ATOM     15  H31 UNL     1      29.121  53.576  57.838  1.00  0.00     0.278 HD
ENDBRANCH  10  12
ENDBRANCH   4  10
BRANCH   1  16
HETATM   16  N1  UNL     1      27.598  49.587  62.341  1.00  0.00    -0.226 N 
ATOM     17  H1  UNL     1      26.825  48.925  62.411  1.00  0.00     0.177 HD
BRANCH  16  18
HETATM   18  C2  UNL     1      28.349  49.920  63.527  1.00  0.00     0.133 C 
HETATM   19  C1  UNL     1      29.156  48.714  63.930  1.00  0.00     0.027 C 
ENDBRANCH  16  18
ENDBRANCH   1  16
BRANCH   7  20
HETATM   20  N5  UNL     1      28.015  49.132  57.826  1.00  0.00    -0.234 N 
ATOM     21  H52 UNL     1      27.084  48.816  57.552  1.00  0.00     0.174 HD
ATOM     22  H51 UNL     1      28.810  48.816  57.270  1.00  0.00     0.174 HD
ENDBRANCH   7  20
TORSDOF 5
ENDMDL
MODEL 4
REMARK VINA RESULT: -6.069757013      2.086      4.351
REMARK  5 active torsions:
REMARK  status: ('A' for Active; 'I' for Inactive)
REMARK    1  A    between atoms: C2_2  and  N1_3 
REMARK    2  A    between atoms: N1_3  and  C3_5 
REMARK    3  A    between atoms: C4_8  and  C5_9 
REMARK    4  A    between atoms: C5_9  and  N3_10 
REMARK    5  A    between atoms: C6_17  and  N5_18 
ROOT
HETATM    1  C3  UNL     1      28.079  50.812  61.084  1.00  0.00     0.694 A 
HETATM    2  N2  UNL     1      28.591  51.964  60.617  1.00  0.00    -0.175 N 
ATOM      3  H2  UNL     1      28.756  52.740  61.259  1.00  0.00     0.185 HD
HETATM    4  C4  UNL     1      28.890  52.108  59.303  1.00  0.00     0.174 A 
HETATM    5  N4  UNL     1      28.654  51.054  58.484  1.00  0.00    -0.175 N 
ATOM      6  H4  UNL     1      28.874  51.147  57.492  1.00  0.00     0.185 HD
HETATM    7  C6  UNL     1      28.142  49.892  58.923  1.00  0.00     0.691 A 
HETATM    8  N6  UNL     1      27.855  49.782  60.249  1.00  0.00    -0.023 N 
ATOM      9  H6  UNL     1      27.466  48.912  60.611  1.00  0.00     0.203 HD
ENDROOT
BRANCH   4  10
HETATM   10  C5  UNL     1      29.450  53.381  58.819  1.00  0.00     0.433 C 
HETATM   11  F1  UNL     1      28.487  54.274  58.474  1.00  0.00    -0.211 F 
BRANCH  10  12
HETATM   12  N3  UNL     1      30.398  53.124  57.746  1.00  0.00    -0.041 N 
ATOM     13  H33 UNL     1      30.928  52.266  57.900  1.00  0.00     0.278 HD
ATOM     14  H32 UNL     1      29.932  52.856  56.879  1.00  0.00     0.278 HD
ATOM     15  H31 UNL     1      31.005  53.934  57.622  1.00  0.00     0.278 HD
ENDBRANCH  10  12
ENDBRANCH   4  10
BRANCH   1  16
HETATM   16  N1  UNL     1      27.800  50.699  62.353  1.00  0.00    -0.226 N 
ATOM     17  H1  UNL     1      27.745  51.541  62.927  1.00  0.00     0.177 HD
BRANCH  16  18
HETATM   18  C2  UNL     1      27.567  49.413  62.967  1.00  0.00     0.133 C 
HETATM   19  C1  UNL     1      28.807  49.022  63.727  1.00  0.00     0.027 C 
ENDBRANCH  16  18
ENDBRANCH   1  16
BRANCH   7  20
HETATM   20  N5  UNL     1      27.906  48.874  58.180  1.00  0.00    -0.234 N 
ATOM     21  H52 UNL     1      28.437  48.790  57.312  1.00  0.00     0.174 HD
ATOM     22  H51 UNL     1      27.225  48.145  58.395  1.00  0.00     0.174 HD
ENDBRANCH   7  20
TORSDOF 5
ENDMDL
MODEL 5
REMARK VINA RESULT: -6.012245374      1.057      1.057
REMARK  5 active torsions:
REMARK  status: ('A' for Active; 'I' for Inactive)
REMARK    1  A    between atoms: C2_2  and  N1_3 
REMARK    2  A    between atoms: N1_3  and  C3_5 
REMARK    3  A    between atoms: C4_8  and  C5_9 
REMARK    4  A    between atoms: C5_9  and  N3_10 
REMARK    5  A    between atoms: C6_17  and  N5_18 
ROOT
HETATM    1  C3  UNL     1      28.068  52.024  59.852  1.00  0.00     0.694 A 
HETATM    2  N2  UNL     1      28.080  51.733  61.165  1.00  0.00    -0.175 N 
ATOM      3  H2  UNL     1      28.093  52.490  61.849  1.00  0.00     0.185 HD
HETATM    4  C4  UNL     1      28.076  50.447  61.590  1.00  0.00     0.174 A 
HETATM    5  N4  UNL     1      28.060  49.471  60.649  1.00  0.00    -0.175 N 
ATOM      6  H4  UNL     1      28.056  48.498  60.953  1.00  0.00     0.185 HD
HETATM    7  C6  UNL     1      28.048  49.733  59.331  1.00  0.00     0.691 A 
HETATM    8  N6  UNL     1      28.052  51.036  58.939  1.00  0.00    -0.023 N 
ATOM      9  H6  UNL     1      28.043  51.266  57.946  1.00  0.00     0.203 HD
ENDROOT
BRANCH   4  10
HETATM   10  C5  UNL     1      28.089  50.158  63.034  1.00  0.00     0.433 C 
HETATM   11  F1  UNL     1      27.971  48.830  63.298  1.00  0.00    -0.211 F 
BRANCH  10  12
HETATM   12  N3  UNL     1      27.081  50.961  63.705  1.00  0.00    -0.041 N 
ATOM     13  H33 UNL     1      27.255  51.961  63.601  1.00  0.00     0.278 HD
ATOM     14  H32 UNL     1      26.178  50.920  63.231  1.00  0.00     0.278 HD
ATOM     15  H31 UNL     1      27.014  50.683  64.684  1.00  0.00     0.278 HD
ENDBRANCH  10  12
ENDBRANCH   4  10
BRANCH   1  16
HETATM   16  N1  UNL     1      28.072  53.270  59.468  1.00  0.00    -0.226 N 
ATOM     17  H1  UNL     1      27.194  53.707  59.189  1.00  0.00     0.177 HD
BRANCH  16  18
HETATM   18  C2  UNL     1      29.288  54.048  59.428  1.00  0.00     0.133 C 
HETATM   19  C1  UNL     1      30.149  53.522  58.311  1.00  0.00     0.027 C 
ENDBRANCH  16  18
ENDBRANCH   1  16
BRANCH   7  20
HETATM   20  N5  UNL     1      28.032  48.838  58.412  1.00  0.00    -0.234 N 
ATOM     21  H52 UNL     1      27.539  49.060  57.546  1.00  0.00     0.174 HD
ATOM     22  H51 UNL     1      28.476  47.923  58.488  1.00  0.00     0.174 HD
ENDBRANCH   7  20
TORSDOF 5
ENDMDL
