MODEL 1
REMARK VINA RESULT: -8.375037031      0.000      0.000
REMARK  3 active torsions:
REMARK  status: ('A' for Active; 'I' for Inactive)
REMARK    1  A    between atoms: O1_2  and  C2_3 
REMARK    2  A    between atoms: C2_3  and  C3_4 
REMARK    3  A    between atoms: C14_17  and  S1_18 
ROOT
HETATM    1  C3  UNL     1      50.691  74.794 -25.843  1.00  0.00     0.067 C 
HETATM    2  C4  UNL     1      50.275  73.686 -26.437  1.00  0.00     0.015 C 
HETATM    3  C5  UNL     1      49.747  74.106 -27.749  1.00  0.00     0.051 C 
HETATM    4  C6  UNL     1      48.641  73.305 -28.335  1.00  0.00     0.034 C 
HETATM    5  C7  UNL     1      49.279  72.580 -29.544  1.00  0.00     0.010 C 
HETATM    6  C8  UNL     1      49.361  73.434 -30.751  1.00  0.00     0.031 C 
HETATM    7  C9  UNL     1      49.318  74.918 -30.543  1.00  0.00     0.277 C 
HETATM    8  N1  UNL     1      48.383  75.320 -29.567  1.00  0.00     0.129 N 
HETATM    9  C10 UNL     1      48.850  76.256 -28.552  1.00  0.00     0.396 C 
HETATM   10  O2  UNL     1      47.620  76.917 -28.168  1.00  0.00    -0.313 OA
HETATM   11  C11 UNL     1      46.579  76.041 -27.800  1.00  0.00     0.081 A 
HETATM   12  C12 UNL     1      45.577  76.594 -27.006  1.00  0.00     0.051 A 
HETATM   13  C13 UNL     1      44.533  75.787 -26.613  1.00  0.00    -0.002 A 
HETATM   14  C14 UNL     1      43.501  76.259 -25.830  1.00  0.00     0.071 A 
HETATM   15  C16 UNL     1      42.460  75.427 -25.454  1.00  0.00     0.043 A 
HETATM   16  C17 UNL     1      42.396  74.104 -25.830  1.00  0.00     0.013 A 
HETATM   17 BR1  UNL     1      40.938  72.977 -25.290  1.00  0.00    -0.051 Br
HETATM   18  C18 UNL     1      43.417  73.621 -26.608  1.00  0.00     0.031 A 
HETATM   19  C19 UNL     1      44.469  74.442 -26.995  1.00  0.00    -0.022 A 
HETATM   20  C20 UNL     1      45.489  73.953 -27.781  1.00  0.00     0.024 A 
HETATM   21  C21 UNL     1      46.550  74.713 -28.199  1.00  0.00     0.010 A 
HETATM   22  C22 UNL     1      47.640  74.227 -29.036  1.00  0.00     0.266 C 
HETATM   23  C23 UNL     1      49.282  75.496 -27.371  1.00  0.00     0.196 C 
HETATM   24  O5  UNL     1      50.452  75.900 -26.692  1.00  0.00    -0.343 OA
ENDROOT
BRANCH  14  25
HETATM   25  S1  UNL     1      43.529  77.921 -25.300  1.00  0.00     0.172 S 
HETATM   26  C15 UNL     1      43.233  79.073 -26.613  1.00  0.00     0.167 C 
HETATM   27  O3  UNL     1      44.893  78.210 -24.753  1.00  0.00    -0.223 OA
HETATM   28  O4  UNL     1      42.556  78.126 -24.164  1.00  0.00    -0.223 OA
ENDBRANCH  14  25
BRANCH   1  29
HETATM   29  C2  UNL     1      51.311  74.818 -24.470  1.00  0.00     0.231 C 
BRANCH  29  30
HETATM   30  O1  UNL     1      50.851  75.927 -23.759  1.00  0.00    -0.390 OA
HETATM   31  C1  UNL     1      50.864  75.576 -22.410  1.00  0.00     0.201 C 
ENDBRANCH  29  30
ENDBRANCH   1  29
TORSDOF 3
ENDMDL
MODEL 2
REMARK VINA RESULT: -7.850891877      4.886      7.703
REMARK  3 active torsions:
REMARK  status: ('A' for Active; 'I' for Inactive)
REMARK    1  A    between atoms: O1_2  and  C2_3 
REMARK    2  A    between atoms: C2_3  and  C3_4 
REMARK    3  A    between atoms: C14_17  and  S1_18 
ROOT
HETATM    1  C3  UNL     1      53.526  69.366 -32.108  1.00  0.00     0.067 C 
HETATM    2  C4  UNL     1      52.442  69.583 -32.836  1.00  0.00     0.015 C 
HETATM    3  C5  UNL     1      52.565  70.964 -33.340  1.00  0.00     0.051 C 
HETATM    4  C6  UNL     1      51.311  71.727 -33.573  1.00  0.00     0.034 C 
HETATM    5  C7  UNL     1      51.211  71.857 -35.112  1.00  0.00     0.010 C 
HETATM    6  C8  UNL     1      52.038  72.962 -35.651  1.00  0.00     0.031 C 
HETATM    7  C9  UNL     1      53.178  73.440 -34.804  1.00  0.00     0.277 C 
HETATM    8  N1  UNL     1      52.860  73.521 -33.432  1.00  0.00     0.129 N 
HETATM    9  C10 UNL     1      53.805  72.920 -32.499  1.00  0.00     0.396 C 
HETATM   10  O2  UNL     1      53.564  73.688 -31.295  1.00  0.00    -0.313 OA
HETATM   11  C11 UNL     1      52.214  73.736 -30.896  1.00  0.00     0.081 A 
HETATM   12  C12 UNL     1      51.991  74.042 -29.556  1.00  0.00     0.051 A 
HETATM   13  C13 UNL     1      50.692  74.103 -29.104  1.00  0.00    -0.002 A 
HETATM   14  C14 UNL     1      50.387  74.403 -27.794  1.00  0.00     0.071 A 
HETATM   15  C16 UNL     1      49.071  74.463 -27.369  1.00  0.00     0.043 A 
HETATM   16  C17 UNL     1      48.008  74.229 -28.212  1.00  0.00     0.013 A 
HETATM   17 BR1  UNL     1      46.195  74.320 -27.590  1.00  0.00    -0.051 Br
HETATM   18  C18 UNL     1      48.297  73.929 -29.519  1.00  0.00     0.031 A 
HETATM   19  C19 UNL     1      49.612  73.864 -29.963  1.00  0.00    -0.022 A 
HETATM   20  C20 UNL     1      49.896  73.567 -31.277  1.00  0.00     0.024 A 
HETATM   21  C21 UNL     1      51.170  73.493 -31.777  1.00  0.00     0.010 A 
HETATM   22  C22 UNL     1      51.502  73.188 -33.162  1.00  0.00     0.266 C 
HETATM   23  C23 UNL     1      53.364  71.551 -32.197  1.00  0.00     0.196 C 
HETATM   24  O5  UNL     1      54.332  70.528 -32.108  1.00  0.00    -0.343 OA
ENDROOT
BRANCH  14  25
HETATM   25  S1  UNL     1      51.686  74.691 -26.665  1.00  0.00     0.172 S 
HETATM   26  C15 UNL     1      51.196  74.483 -24.975  1.00  0.00     0.167 C 
HETATM   27  O3  UNL     1      52.136  76.110 -26.827  1.00  0.00    -0.223 OA
HETATM   28  O4  UNL     1      52.873  73.821 -27.000  1.00  0.00    -0.223 OA
ENDBRANCH  14  25
BRANCH   1  29
HETATM   29  C2  UNL     1      53.807  68.063 -31.404  1.00  0.00     0.231 C 
BRANCH  29  30
HETATM   30  O1  UNL     1      52.611  67.474 -30.996  1.00  0.00    -0.390 OA
HETATM   31  C1  UNL     1      52.913  66.168 -30.614  1.00  0.00     0.201 C 
ENDBRANCH  29  30
ENDBRANCH   1  29
TORSDOF 3
ENDMDL
MODEL 3
REMARK VINA RESULT: -7.499359851      5.385      7.694
REMARK  3 active torsions:
REMARK  status: ('A' for Active; 'I' for Inactive)
REMARK    1  A    between atoms: O1_2  and  C2_3 
REMARK    2  A    between atoms: C2_3  and  C3_4 
REMARK    3  A    between atoms: C14_17  and  S1_18 
ROOT
HETATM    1  C3  UNL     1      55.681  72.555 -31.349  1.00  0.00     0.067 C 
HETATM    2  C4  UNL     1      55.072  71.514 -30.804  1.00  0.00     0.015 C 
HETATM    3  C5  UNL     1      54.152  70.999 -31.836  1.00  0.00     0.051 C 
HETATM    4  C6  UNL     1      52.899  70.344 -31.378  1.00  0.00     0.034 C 
HETATM    5  C7  UNL     1      53.092  68.847 -31.718  1.00  0.00     0.010 C 
HETATM    6  C8  UNL     1      52.792  68.534 -33.135  1.00  0.00     0.031 C 
HETATM    7  C9  UNL     1      52.849  69.668 -34.113  1.00  0.00     0.277 C 
HETATM    8  N1  UNL     1      52.293  70.865 -33.615  1.00  0.00     0.129 N 
HETATM    9  C10 UNL     1      53.084  72.078 -33.777  1.00  0.00     0.396 C 
HETATM   10  O2  UNL     1      52.062  73.103 -33.787  1.00  0.00    -0.313 OA
HETATM   11  C11 UNL     1      51.181  73.056 -32.687  1.00  0.00     0.081 A 
HETATM   12  C12 UNL     1      50.505  74.240 -32.404  1.00  0.00     0.051 A 
HETATM   13  C13 UNL     1      49.631  74.258 -31.340  1.00  0.00    -0.002 A 
HETATM   14  C14 UNL     1      48.922  75.389 -30.997  1.00  0.00     0.071 A 
HETATM   15  C16 UNL     1      48.045  75.376 -29.925  1.00  0.00     0.043 A 
HETATM   16  C17 UNL     1      47.835  74.257 -29.152  1.00  0.00     0.013 A 
HETATM   17 BR1  UNL     1      46.612  74.274 -27.673  1.00  0.00    -0.051 Br
HETATM   18  C18 UNL     1      48.535  73.125 -29.483  1.00  0.00     0.031 A 
HETATM   19  C19 UNL     1      49.419  73.119 -30.555  1.00  0.00    -0.022 A 
HETATM   20  C20 UNL     1      50.116  71.978 -30.884  1.00  0.00     0.024 A 
HETATM   21  C21 UNL     1      50.997  71.907 -31.931  1.00  0.00     0.010 A 
HETATM   22  C22 UNL     1      51.743  70.714 -32.310  1.00  0.00     0.266 C 
HETATM   23  C23 UNL     1      53.865  72.301 -32.551  1.00  0.00     0.196 C 
HETATM   24  O5  UNL     1      55.200  72.744 -32.666  1.00  0.00    -0.343 OA
ENDROOT
BRANCH  14  25
HETATM   25  S1  UNL     1      49.155  76.850 -31.921  1.00  0.00     0.172 S 
HETATM   26  C15 UNL     1      50.834  77.419 -31.908  1.00  0.00     0.167 C 
HETATM   27  O3  UNL     1      48.315  77.927 -31.306  1.00  0.00    -0.223 OA
HETATM   28  O4  UNL     1      48.653  76.664 -33.332  1.00  0.00    -0.223 OA
ENDBRANCH  14  25
BRANCH   1  29
HETATM   29  C2  UNL     1      56.717  73.381 -30.631  1.00  0.00     0.231 C 
BRANCH  29  30
HETATM   30  O1  UNL     1      57.876  72.629 -30.439  1.00  0.00    -0.390 OA
HETATM   31  C1  UNL     1      58.591  72.675 -31.634  1.00  0.00     0.201 C 
ENDBRANCH  29  30
ENDBRANCH   1  29
TORSDOF 3
ENDMDL
MODEL 4
REMARK VINA RESULT: -7.270424488      8.353     10.307
REMARK  3 active torsions:
REMARK  status: ('A' for Active; 'I' for Inactive)
REMARK    1  A    between atoms: O1_2  and  C2_3 
REMARK    2  A    between atoms: C2_3  and  C3_4 
REMARK    3  A    between atoms: C14_17  and  S1_18 
ROOT
HETATM    1  C3  UNL     1      52.702  68.703 -33.022  1.00  0.00     0.067 C 
HETATM    2  C4  UNL     1      51.568  69.289 -32.674  1.00  0.00     0.015 C 
HETATM    3  C5  UNL     1      51.579  70.611 -33.329  1.00  0.00     0.051 C 
HETATM    4  C6  UNL     1      50.870  71.725 -32.646  1.00  0.00     0.034 C 
HETATM    5  C7  UNL     1      49.636  72.008 -33.536  1.00  0.00     0.010 C 
HETATM    6  C8  UNL     1      49.952  72.864 -34.703  1.00  0.00     0.031 C 
HETATM    7  C9  UNL     1      51.382  72.914 -35.148  1.00  0.00     0.277 C 
HETATM    8  N1  UNL     1      52.300  72.968 -34.078  1.00  0.00     0.129 N 
HETATM    9  C10 UNL     1      53.423  72.040 -34.123  1.00  0.00     0.396 C 
HETATM   10  O2  UNL     1      54.420  72.739 -33.341  1.00  0.00    -0.313 OA
HETATM   11  C11 UNL     1      53.979  73.147 -32.066  1.00  0.00     0.081 A 
HETATM   12  C12 UNL     1      54.980  73.391 -31.130  1.00  0.00     0.051 A 
HETATM   13  C13 UNL     1      54.612  73.791 -29.865  1.00  0.00    -0.002 A 
HETATM   14  C14 UNL     1      55.542  74.055 -28.882  1.00  0.00     0.071 A 
HETATM   15  C16 UNL     1      55.143  74.462 -27.621  1.00  0.00     0.043 A 
HETATM   16  C17 UNL     1      53.819  74.622 -27.277  1.00  0.00     0.013 A 
HETATM   17 BR1  UNL     1      53.301  75.186 -25.517  1.00  0.00    -0.051 Br
HETATM   18  C18 UNL     1      52.883  74.361 -28.245  1.00  0.00     0.031 A 
HETATM   19  C19 UNL     1      53.265  73.952 -29.517  1.00  0.00    -0.022 A 
HETATM   20  C20 UNL     1      52.321  73.697 -30.486  1.00  0.00     0.024 A 
HETATM   21  C21 UNL     1      52.634  73.296 -31.758  1.00  0.00     0.010 A 
HETATM   22  C22 UNL     1      51.659  73.026 -32.807  1.00  0.00     0.266 C 
HETATM   23  C23 UNL     1      53.075  70.840 -33.350  1.00  0.00     0.196 C 
HETATM   24  O5  UNL     1      53.445  69.574 -33.854  1.00  0.00    -0.343 OA
ENDROOT
BRANCH  14  25
HETATM   25  S1  UNL     1      57.237  73.853 -29.243  1.00  0.00     0.172 S 
HETATM   26  C15 UNL     1      57.809  74.939 -30.522  1.00  0.00     0.167 C 
HETATM   27  O3  UNL     1      57.445  72.450 -29.724  1.00  0.00    -0.223 OA
HETATM   28  O4  UNL     1      58.062  74.005 -27.988  1.00  0.00    -0.223 OA
ENDBRANCH  14  25
BRANCH   1  29
HETATM   29  C2  UNL     1      53.097  67.321 -32.571  1.00  0.00     0.231 C 
BRANCH  29  30
HETATM   30  O1  UNL     1      52.095  66.778 -31.766  1.00  0.00    -0.390 OA
HETATM   31  C1  UNL     1      52.732  66.129 -30.710  1.00  0.00     0.201 C 
ENDBRANCH  29  30
ENDBRANCH   1  29
TORSDOF 3
ENDMDL
MODEL 5
REMARK VINA RESULT: -7.253371140      4.882      6.946
REMARK  3 active torsions:
REMARK  status: ('A' for Active; 'I' for Inactive)
REMARK    1  A    between atoms: O1_2  and  C2_3 
REMARK    2  A    between atoms: C2_3  and  C3_4 
REMARK    3  A    between atoms: C14_17  and  S1_18 
ROOT
HETATM    1  C3  UNL     1      55.323  72.780 -30.673  1.00  0.00     0.067 C 
HETATM    2  C4  UNL     1      54.675  71.649 -30.446  1.00  0.00     0.015 C 
HETATM    3  C5  UNL     1      53.859  71.402 -31.649  1.00  0.00     0.051 C 
HETATM    4  C6  UNL     1      52.575  70.675 -31.474  1.00  0.00     0.034 C 
HETATM    5  C7  UNL     1      52.811  69.296 -32.136  1.00  0.00     0.010 C 
HETATM    6  C8  UNL     1      52.646  69.327 -33.608  1.00  0.00     0.031 C 
HETATM    7  C9  UNL     1      52.783  70.658 -34.284  1.00  0.00     0.277 C 
HETATM    8  N1  UNL     1      52.174  71.713 -33.572  1.00  0.00     0.129 N 
HETATM    9  C10 UNL     1      52.966  72.920 -33.373  1.00  0.00     0.396 C 
HETATM   10  O2  UNL     1      51.940  73.931 -33.236  1.00  0.00    -0.313 OA
HETATM   11  C11 UNL     1      50.962  73.641 -32.264  1.00  0.00     0.081 A 
HETATM   12  C12 UNL     1      50.253  74.735 -31.775  1.00  0.00     0.051 A 
HETATM   13  C13 UNL     1      49.284  74.515 -30.821  1.00  0.00    -0.002 A 
HETATM   14  C14 UNL     1      48.536  75.544 -30.289  1.00  0.00     0.071 A 
HETATM   15  C16 UNL     1      47.565  75.292 -29.336  1.00  0.00     0.043 A 
HETATM   16  C17 UNL     1      47.293  74.026 -28.868  1.00  0.00     0.013 A 
HETATM   17 BR1  UNL     1      45.939  73.714 -27.545  1.00  0.00    -0.051 Br
HETATM   18  C18 UNL     1      48.031  72.993 -29.389  1.00  0.00     0.031 A 
HETATM   19  C19 UNL     1      49.010  73.227 -30.347  1.00  0.00    -0.022 A 
HETATM   20  C20 UNL     1      49.744  72.185 -30.869  1.00  0.00     0.024 A 
HETATM   21  C21 UNL     1      50.719  72.350 -31.818  1.00  0.00     0.010 A 
HETATM   22  C22 UNL     1      51.506  71.268 -32.396  1.00  0.00     0.266 C 
HETATM   23  C23 UNL     1      53.628  72.839 -32.063  1.00  0.00     0.196 C 
HETATM   24  O5  UNL     1      54.964  73.279 -31.948  1.00  0.00    -0.343 OA
ENDROOT
BRANCH  14  25
HETATM   25  S1  UNL     1      48.842  77.177 -30.820  1.00  0.00     0.172 S 
HETATM   26  C15 UNL     1      48.512  77.419 -32.545  1.00  0.00     0.167 C 
HETATM   27  O3  UNL     1      50.293  77.473 -30.599  1.00  0.00    -0.223 OA
HETATM   28  O4  UNL     1      48.067  78.158 -29.973  1.00  0.00    -0.223 OA
ENDBRANCH  14  25
BRANCH   1  29
HETATM   29  C2  UNL     1      56.281  73.402 -29.690  1.00  0.00     0.231 C 
BRANCH  29  30
HETATM   30  O1  UNL     1      57.440  72.630 -29.601  1.00  0.00    -0.390 OA
HETATM   31  C1  UNL     1      58.279  73.040 -30.635  1.00  0.00     0.201 C 
ENDBRANCH  29  30
ENDBRANCH   1  29
TORSDOF 3
ENDMDL
