MODEL 1
REMARK VINA RESULT: -3.516729715      0.000      0.000
REMARK  1 active torsions:
REMARK  status: ('A' for Active; 'I' for Inactive)
REMARK    1  A    between atoms: N1_2  and  C4_5 
ROOT
HETATM    1  C4  UNL     1      52.270  68.326 -29.729  1.00  0.00     0.240 C 
HETATM    2  C5  UNL     1      53.081  67.118 -29.483  1.00  0.00     0.267 C 
HETATM    3  N2  UNL     1      53.100  66.835 -30.923  1.00  0.00    -0.071 N 
ATOM      4  H21 UNL     1      53.158  65.879 -31.271  1.00  0.00     0.277 HD
ATOM      5  H22 UNL     1      53.912  67.067 -31.496  1.00  0.00     0.277 HD
HETATM    6  C6  UNL     1      51.883  67.588 -31.019  1.00  0.00     0.267 C 
ENDROOT
BRANCH   1   7
HETATM    7  N1  UNL     1      52.873  69.584 -29.911  1.00  0.00    -0.071 N 
HETATM    8  C1  UNL     1      54.188  69.746 -29.372  1.00  0.00     0.272 C 
HETATM    9  C2  UNL     1      52.034  70.630 -29.292  1.00  0.00     0.272 C 
HETATM   10  C3  UNL     1      52.937  70.010 -31.320  1.00  0.00     0.272 C 
ENDBRANCH   1   7
TORSDOF 1
ENDMDL
MODEL 2
REMARK VINA RESULT: -3.299506936      1.624      2.746
REMARK  1 active torsions:
REMARK  status: ('A' for Active; 'I' for Inactive)
REMARK    1  A    between atoms: N1_2  and  C4_5 
ROOT
HETATM    1  C4  UNL     1      53.774  69.895 -29.852  1.00  0.00     0.240 C 
HETATM    2  C5  UNL     1      53.955  68.691 -29.019  1.00  0.00     0.267 C 
HETATM    3  N2  UNL     1      53.557  69.450 -27.829  1.00  0.00    -0.071 N 
ATOM      4  H21 UNL     1      53.923  69.215 -26.906  1.00  0.00     0.277 HD
ATOM      5  H22 UNL     1      52.614  69.377 -27.446  1.00  0.00     0.277 HD
HETATM    6  C6  UNL     1      53.988  70.630 -28.521  1.00  0.00     0.267 C 
ENDROOT
BRANCH   1   7
HETATM    7  N1  UNL     1      52.552  70.158 -30.498  1.00  0.00    -0.071 N 
HETATM    8  C1  UNL     1      51.584  70.902 -29.754  1.00  0.00     0.272 C 
HETATM    9  C2  UNL     1      51.906  68.885 -30.874  1.00  0.00     0.272 C 
HETATM   10  C3  UNL     1      52.706  70.840 -31.795  1.00  0.00     0.272 C 
ENDBRANCH   1   7
TORSDOF 1
ENDMDL
MODEL 3
REMARK VINA RESULT: -3.251866888      1.644      2.890
REMARK  1 active torsions:
REMARK  status: ('A' for Active; 'I' for Inactive)
REMARK    1  A    between atoms: N1_2  and  C4_5 
ROOT
HETATM    1  C4  UNL     1      53.748  70.004 -29.853  1.00  0.00     0.240 C 
HETATM    2  C5  UNL     1      54.068  68.821 -29.032  1.00  0.00     0.267 C 
HETATM    3  N2  UNL     1      53.531  69.496 -27.845  1.00  0.00    -0.071 N 
ATOM      4  H21 UNL     1      53.896  69.297 -26.914  1.00  0.00     0.277 HD
ATOM      5  H22 UNL     1      52.595  69.286 -27.496  1.00  0.00     0.277 HD
HETATM    6  C6  UNL     1      53.815  70.737 -28.506  1.00  0.00     0.267 C 
ENDROOT
BRANCH   1   7
HETATM    7  N1  UNL     1      52.523  70.107 -30.537  1.00  0.00    -0.071 N 
HETATM    8  C1  UNL     1      51.873  68.878 -30.871  1.00  0.00     0.272 C 
HETATM    9  C2  UNL     1      52.723  70.834 -31.807  1.00  0.00     0.272 C 
HETATM   10  C3  UNL     1      51.526  70.938 -29.840  1.00  0.00     0.272 C 
ENDBRANCH   1   7
TORSDOF 1
ENDMDL
MODEL 4
REMARK VINA RESULT: -3.231841273      1.998      2.918
REMARK  1 active torsions:
REMARK  status: ('A' for Active; 'I' for Inactive)
REMARK    1  A    between atoms: N1_2  and  C4_5 
ROOT
HETATM    1  C4  UNL     1      53.467  69.872 -30.133  1.00  0.00     0.240 C 
HETATM    2  C5  UNL     1      52.974  68.817 -29.227  1.00  0.00     0.267 C 
HETATM    3  N2  UNL     1      53.409  69.605 -28.068  1.00  0.00    -0.071 N 
ATOM      4  H21 UNL     1      53.702  69.153 -27.203  1.00  0.00     0.277 HD
ATOM      5  H22 UNL     1      52.745  70.158 -27.525  1.00  0.00     0.277 HD
HETATM    6  C6  UNL     1      54.362  70.233 -28.938  1.00  0.00     0.267 C 
ENDROOT
BRANCH   1   7
HETATM    7  N1  UNL     1      52.620  70.900 -30.585  1.00  0.00    -0.071 N 
HETATM    8  C1  UNL     1      51.221  70.724 -30.349  1.00  0.00     0.272 C 
HETATM    9  C2  UNL     1      52.781  71.070 -32.043  1.00  0.00     0.272 C 
HETATM   10  C3  UNL     1      52.974  72.231 -30.061  1.00  0.00     0.272 C 
ENDBRANCH   1   7
TORSDOF 1
ENDMDL
MODEL 5
REMARK VINA RESULT: -3.138095741      1.374      2.346
REMARK  1 active torsions:
REMARK  status: ('A' for Active; 'I' for Inactive)
REMARK    1  A    between atoms: N1_2  and  C4_5 
ROOT
HETATM    1  C4  UNL     1      53.176  69.505 -30.652  1.00  0.00     0.240 C 
HETATM    2  C5  UNL     1      52.643  68.166 -30.966  1.00  0.00     0.267 C 
HETATM    3  N2  UNL     1      52.640  67.830 -29.538  1.00  0.00    -0.071 N 
ATOM      4  H21 UNL     1      52.772  66.869 -29.222  1.00  0.00     0.277 HD
ATOM      5  H22 UNL     1      51.780  67.866 -28.989  1.00  0.00     0.277 HD
HETATM    6  C6  UNL     1      53.669  68.814 -29.373  1.00  0.00     0.267 C 
ENDROOT
BRANCH   1   7
HETATM    7  N1  UNL     1      52.318  70.603 -30.454  1.00  0.00    -0.071 N 
HETATM    8  C1  UNL     1      51.044  70.542 -31.099  1.00  0.00     0.272 C 
HETATM    9  C2  UNL     1      52.973  71.837 -30.934  1.00  0.00     0.272 C 
HETATM   10  C3  UNL     1      52.062  70.903 -29.035  1.00  0.00     0.272 C 
ENDBRANCH   1   7
TORSDOF 1
ENDMDL
