MODEL 1
REMARK VINA RESULT: -7.297043297      0.000      0.000
REMARK  7 active torsions:
REMARK  status: ('A' for Active; 'I' for Inactive)
REMARK    1  A    between atoms: C2_2  and  C3_3 
REMARK    2  A    between atoms: C7_9  and  C8_10 
REMARK    3  A    between atoms: C9_13  and  C11_15 
REMARK    4  A    between atoms: C11_15  and  O1_16 
REMARK    5  A    between atoms: C11_15  and  N3_18 
REMARK    6  A    between atoms: N3_18  and  C12_19 
REMARK    7  A    between atoms: N3_18  and  C14_21 
ROOT
HETATM    1  C8  UNL     1      42.744  24.399  53.885  1.00  0.00     0.052 C 
HETATM    2  N2  UNL     1      42.095  24.327  54.988  1.00  0.00    -0.368 N 
ATOM      3  H2  UNL     1      41.883  23.401  55.360  1.00  0.00     0.161 HD
HETATM    4  C9  UNL     1      41.634  25.509  55.755  1.00  0.00     0.151 C 
HETATM    5  C10 UNL     1      42.812  26.029  56.534  1.00  0.00     0.056 C 
HETATM    6  C16 UNL     1      41.147  26.478  54.746  1.00  0.00     0.120 A 
HETATM    7  N4  UNL     1      40.136  27.328  54.646  1.00  0.00    -0.352 N 
ATOM      8  H4  UNL     1      39.425  27.462  55.365  1.00  0.00     0.166 HD
HETATM    9  C17 UNL     1      40.167  27.989  53.485  1.00  0.00     0.106 A 
HETATM   10  C18 UNL     1      41.270  27.524  52.807  1.00  0.00     0.110 A 
HETATM   11  N5  UNL     1      41.842  26.607  53.599  1.00  0.00    -0.337 N 
HETATM   12  C19 UNL     1      43.013  25.785  53.350  1.00  0.00     0.189 C 
ENDROOT
BRANCH   1  13
HETATM   13  C7  UNL     1      43.182  23.208  53.163  1.00  0.00     0.059 A 
HETATM   14  C6  UNL     1      42.877  22.834  51.873  1.00  0.00     0.063 A 
HETATM   15  C5  UNL     1      43.525  21.636  51.645  1.00  0.00     0.061 A 
HETATM   16  N1  UNL     1      43.771  20.641  50.754  1.00  0.00    -0.363 N 
HETATM   17  C20 UNL     1      44.221  21.277  52.785  1.00  0.00     0.067 A 
HETATM   18  C4  UNL     1      44.575  19.709  51.297  1.00  0.00     0.097 A 
ATOM     19  H1  UNL     1      43.398  20.606  49.804  1.00  0.00     0.165 HD
HETATM   20  C3  UNL     1      44.881  20.082  52.591  1.00  0.00    -0.014 A 
HETATM   21  N6  UNL     1      43.985  22.257  53.676  1.00  0.00    -0.352 N 
ATOM     22  H6  UNL     1      44.366  22.278  54.622  1.00  0.00     0.166 HD
BRANCH  20  23
HETATM   23  C2  UNL     1      45.745  19.324  53.534  1.00  0.00     0.038 C 
HETATM   24  C1  UNL     1      45.123  17.987  53.906  1.00  0.00     0.010 C 
ENDBRANCH  20  23
ENDBRANCH   1  13
BRANCH   4  25
HETATM   25  C11 UNL     1      40.614  25.047  56.707  1.00  0.00     0.150 C 
BRANCH  25  26
HETATM   26  O1  UNL     1      41.104  24.561  57.812  1.00  0.00    -0.347 OA
ATOM     27  H1  UNL     1      41.856  23.995  57.683  1.00  0.00     0.219 HD
ENDBRANCH  25  26
BRANCH  25  28
HETATM   28  N3  UNL     1      39.229  25.037  56.637  1.00  0.00    -0.364 N 
BRANCH  28  29
HETATM   29  C12 UNL     1      38.347  24.527  55.622  1.00  0.00     0.120 C 
HETATM   30  C13 UNL     1      36.974  24.141  56.131  1.00  0.00     0.026 C 
ENDBRANCH  28  29
BRANCH  28  31
HETATM   31  C14 UNL     1      38.503  25.638  57.786  1.00  0.00     0.120 C 
HETATM   32  C15 UNL     1      38.696  27.128  57.834  1.00  0.00     0.026 C 
ENDBRANCH  28  31
ENDBRANCH  25  28
ENDBRANCH   4  25
TORSDOF 7
ENDMDL
MODEL 2
REMARK VINA RESULT: -7.285472841      2.216      7.258
REMARK  7 active torsions:
REMARK  status: ('A' for Active; 'I' for Inactive)
REMARK    1  A    between atoms: C2_2  and  C3_3 
REMARK    2  A    between atoms: C7_9  and  C8_10 
REMARK    3  A    between atoms: C9_13  and  C11_15 
REMARK    4  A    between atoms: C11_15  and  O1_16 
REMARK    5  A    between atoms: C11_15  and  N3_18 
REMARK    6  A    between atoms: N3_18  and  C12_19 
REMARK    7  A    between atoms: N3_18  and  C14_21 
ROOT
HETATM    1  C8  UNL     1      42.840  24.435  54.152  1.00  0.00     0.052 C 
HETATM    2  N2  UNL     1      43.291  23.245  53.999  1.00  0.00    -0.368 N 
ATOM      3  H2  UNL     1      42.702  22.466  54.296  1.00  0.00     0.161 HD
HETATM    4  C9  UNL     1      44.618  22.933  53.417  1.00  0.00     0.151 C 
HETATM    5  C10 UNL     1      44.488  23.028  51.921  1.00  0.00     0.056 C 
HETATM    6  C16 UNL     1      45.548  23.943  53.972  1.00  0.00     0.120 A 
HETATM    7  N4  UNL     1      46.796  23.952  54.417  1.00  0.00    -0.352 N 
ATOM      8  H4  UNL     1      47.400  23.130  54.452  1.00  0.00     0.166 HD
HETATM    9  C17 UNL     1      47.164  25.174  54.814  1.00  0.00     0.106 A 
HETATM   10  C18 UNL     1      46.076  25.989  54.606  1.00  0.00     0.110 A 
HETATM   11  N5  UNL     1      45.111  25.211  54.096  1.00  0.00    -0.337 N 
HETATM   12  C19 UNL     1      43.751  25.562  53.730  1.00  0.00     0.189 C 
ENDROOT
BRANCH   1  13
HETATM   13  C7  UNL     1      41.524  24.697  54.727  1.00  0.00     0.059 A 
HETATM   14  C6  UNL     1      40.357  25.023  54.071  1.00  0.00     0.063 A 
HETATM   15  C5  UNL     1      39.387  25.172  55.042  1.00  0.00     0.061 A 
HETATM   16  N1  UNL     1      38.083  25.457  55.296  1.00  0.00    -0.363 N 
HETATM   17  C20 UNL     1      39.952  24.940  56.284  1.00  0.00     0.067 A 
HETATM   18  C4  UNL     1      37.837  25.407  56.619  1.00  0.00     0.097 A 
ATOM     19  H1  UNL     1      37.387  25.677  54.583  1.00  0.00     0.165 HD
HETATM   20  C3  UNL     1      39.006  25.081  57.278  1.00  0.00    -0.014 A 
HETATM   21  N6  UNL     1      41.245  24.656  56.044  1.00  0.00    -0.352 N 
ATOM     22  H6  UNL     1      41.929  24.436  56.768  1.00  0.00     0.166 HD
BRANCH  20  23
HETATM   23  C2  UNL     1      39.162  24.924  58.748  1.00  0.00     0.038 C 
HETATM   24  C1  UNL     1      37.820  24.703  59.430  1.00  0.00     0.010 C 
ENDBRANCH  20  23
ENDBRANCH   1  13
BRANCH   4  25
HETATM   25  C11 UNL     1      44.939  21.542  53.769  1.00  0.00     0.150 C 
BRANCH  25  26
HETATM   26  O1  UNL     1      45.475  21.406  54.949  1.00  0.00    -0.347 OA
ATOM     27  H1  UNL     1      45.673  20.507  55.181  1.00  0.00     0.219 HD
ENDBRANCH  25  26
BRANCH  25  28
HETATM   28  N3  UNL     1      44.773  20.355  53.071  1.00  0.00    -0.364 N 
BRANCH  28  29
HETATM   29  C12 UNL     1      43.811  19.988  52.067  1.00  0.00     0.120 C 
HETATM   30  C13 UNL     1      44.408  19.749  50.695  1.00  0.00     0.026 C 
ENDBRANCH  28  29
BRANCH  28  31
HETATM   31  C14 UNL     1      45.733  19.264  53.381  1.00  0.00     0.120 C 
HETATM   32  C15 UNL     1      45.026  18.054  53.923  1.00  0.00     0.026 C 
ENDBRANCH  28  31
ENDBRANCH  25  28
ENDBRANCH   4  25
TORSDOF 7
ENDMDL
MODEL 3
REMARK VINA RESULT: -7.228281913      0.606      1.413
REMARK  7 active torsions:
REMARK  status: ('A' for Active; 'I' for Inactive)
REMARK    1  A    between atoms: C2_2  and  C3_3 
REMARK    2  A    between atoms: C7_9  and  C8_10 
REMARK    3  A    between atoms: C9_13  and  C11_15 
REMARK    4  A    between atoms: C11_15  and  O1_16 
REMARK    5  A    between atoms: C11_15  and  N3_18 
REMARK    6  A    between atoms: N3_18  and  C12_19 
REMARK    7  A    between atoms: N3_18  and  C14_21 
ROOT
HETATM    1  C8  UNL     1      43.062  24.262  53.612  1.00  0.00     0.052 C 
HETATM    2  N2  UNL     1      42.339  24.306  54.670  1.00  0.00    -0.368 N 
ATOM      3  H2  UNL     1      42.025  23.424  55.074  1.00  0.00     0.161 HD
HETATM    4  C9  UNL     1      41.934  25.564  55.342  1.00  0.00     0.151 C 
HETATM    5  C10 UNL     1      43.101  26.028  56.172  1.00  0.00     0.056 C 
HETATM    6  C16 UNL     1      41.598  26.511  54.253  1.00  0.00     0.120 A 
HETATM    7  N4  UNL     1      40.673  27.435  54.042  1.00  0.00    -0.352 N 
ATOM      8  H4  UNL     1      39.931  27.668  54.702  1.00  0.00     0.166 HD
HETATM    9  C17 UNL     1      40.835  28.024  52.852  1.00  0.00     0.106 A 
HETATM   10  C18 UNL     1      41.935  27.431  52.277  1.00  0.00     0.110 A 
HETATM   11  N5  UNL     1      42.374  26.517  53.152  1.00  0.00    -0.337 N 
HETATM   12  C19 UNL     1      43.483  25.588  53.026  1.00  0.00     0.189 C 
ENDROOT
BRANCH   1  13
HETATM   13  C7  UNL     1      43.440  23.000  52.984  1.00  0.00     0.059 A 
HETATM   14  C6  UNL     1      43.138  22.555  51.715  1.00  0.00     0.063 A 
HETATM   15  C5  UNL     1      43.716  21.308  51.586  1.00  0.00     0.061 A 
HETATM   16  N1  UNL     1      43.919  20.241  50.770  1.00  0.00    -0.363 N 
HETATM   17  C20 UNL     1      44.367  20.989  52.764  1.00  0.00     0.067 A 
HETATM   18  C4  UNL     1      44.655  19.302  51.395  1.00  0.00     0.097 A 
ATOM     19  H1  UNL     1      43.564  20.162  49.817  1.00  0.00     0.165 HD
HETATM   20  C3  UNL     1      44.957  19.746  52.667  1.00  0.00    -0.014 A 
HETATM   21  N6  UNL     1      44.174  22.041  53.580  1.00  0.00    -0.352 N 
ATOM     22  H6  UNL     1      44.537  22.104  54.531  1.00  0.00     0.166 HD
BRANCH  20  23
HETATM   23  C2  UNL     1      45.754  19.006  53.681  1.00  0.00     0.038 C 
HETATM   24  C1  UNL     1      45.082  17.698  54.071  1.00  0.00     0.010 C 
ENDBRANCH  20  23
ENDBRANCH   1  13
BRANCH   4  25
HETATM   25  C11 UNL     1      40.819  25.243  56.244  1.00  0.00     0.150 C 
BRANCH  25  26
HETATM   26  O1  UNL     1      41.169  24.551  57.291  1.00  0.00    -0.347 OA
ATOM     27  H1  UNL     1      40.495  23.958  57.603  1.00  0.00     0.219 HD
ENDBRANCH  25  26
BRANCH  25  28
HETATM   28  N3  UNL     1      39.467  25.546  56.178  1.00  0.00    -0.364 N 
BRANCH  28  29
HETATM   29  C12 UNL     1      38.708  26.580  56.829  1.00  0.00     0.120 C 
HETATM   30  C13 UNL     1      39.554  27.633  57.514  1.00  0.00     0.026 C 
ENDBRANCH  28  29
BRANCH  28  31
HETATM   31  C14 UNL     1      38.638  24.687  55.294  1.00  0.00     0.120 C 
HETATM   32  C15 UNL     1      37.360  24.281  55.973  1.00  0.00     0.026 C 
ENDBRANCH  28  31
ENDBRANCH  25  28
ENDBRANCH   4  25
TORSDOF 7
ENDMDL
MODEL 4
REMARK VINA RESULT: -7.223913430      1.560      1.763
REMARK  7 active torsions:
REMARK  status: ('A' for Active; 'I' for Inactive)
REMARK    1  A    between atoms: C2_2  and  C3_3 
REMARK    2  A    between atoms: C7_9  and  C8_10 
REMARK    3  A    between atoms: C9_13  and  C11_15 
REMARK    4  A    between atoms: C11_15  and  O1_16 
REMARK    5  A    between atoms: C11_15  and  N3_18 
REMARK    6  A    between atoms: N3_18  and  C12_19 
REMARK    7  A    between atoms: N3_18  and  C14_21 
ROOT
HETATM    1  C8  UNL     1      42.896  24.445  54.001  1.00  0.00     0.052 C 
HETATM    2  N2  UNL     1      41.668  24.774  54.168  1.00  0.00    -0.368 N 
ATOM      3  H2  UNL     1      40.950  24.168  53.769  1.00  0.00     0.161 HD
HETATM    4  C9  UNL     1      41.230  25.982  54.907  1.00  0.00     0.151 C 
HETATM    5  C10 UNL     1      41.298  25.662  56.376  1.00  0.00     0.056 C 
HETATM    6  C16 UNL     1      42.170  27.057  54.515  1.00  0.00     0.120 A 
HETATM    7  N4  UNL     1      42.083  28.349  54.237  1.00  0.00    -0.352 N 
ATOM      8  H4  UNL     1      41.214  28.883  54.252  1.00  0.00     0.166 HD
HETATM    9  C17 UNL     1      43.280  28.864  53.937  1.00  0.00     0.106 A 
HETATM   10  C18 UNL     1      44.179  27.829  54.029  1.00  0.00     0.110 A 
HETATM   11  N5  UNL     1      43.474  26.744  54.381  1.00  0.00    -0.337 N 
HETATM   12  C19 UNL     1      43.930  25.380  54.578  1.00  0.00     0.189 C 
ENDROOT
BRANCH   1  13
HETATM   13  C7  UNL     1      43.283  23.243  53.268  1.00  0.00     0.059 A 
HETATM   14  C6  UNL     1      42.925  22.872  51.990  1.00  0.00     0.063 A 
HETATM   15  C5  UNL     1      43.540  21.661  51.744  1.00  0.00     0.061 A 
HETATM   16  N1  UNL     1      43.735  20.659  50.847  1.00  0.00    -0.363 N 
HETATM   17  C20 UNL     1      44.269  21.290  52.859  1.00  0.00     0.067 A 
HETATM   18  C4  UNL     1      44.538  19.712  51.364  1.00  0.00     0.097 A 
ATOM     19  H1  UNL     1      43.328  20.630  49.911  1.00  0.00     0.165 HD
HETATM   20  C3  UNL     1      44.897  20.081  52.645  1.00  0.00    -0.014 A 
HETATM   21  N6  UNL     1      44.084  22.277  53.755  1.00  0.00    -0.352 N 
ATOM     22  H6  UNL     1      44.499  22.292  54.687  1.00  0.00     0.166 HD
BRANCH  20  23
HETATM   23  C2  UNL     1      45.778  19.308  53.560  1.00  0.00     0.038 C 
HETATM   24  C1  UNL     1      45.099  18.034  54.041  1.00  0.00     0.010 C 
ENDBRANCH  20  23
ENDBRANCH   1  13
BRANCH   4  25
HETATM   25  C11 UNL     1      39.826  26.232  54.550  1.00  0.00     0.150 C 
BRANCH  25  26
HETATM   26  O1  UNL     1      39.675  27.007  53.513  1.00  0.00    -0.347 OA
ATOM     27  H1  UNL     1      38.942  26.768  52.958  1.00  0.00     0.219 HD
ENDBRANCH  25  26
BRANCH  25  28
HETATM   28  N3  UNL     1      38.640  25.792  55.118  1.00  0.00    -0.364 N 
BRANCH  28  29
HETATM   29  C12 UNL     1      38.182  24.461  55.414  1.00  0.00     0.120 C 
HETATM   30  C13 UNL     1      36.856  24.410  56.145  1.00  0.00     0.026 C 
ENDBRANCH  28  29
BRANCH  28  31
HETATM   31  C14 UNL     1      37.661  26.841  55.505  1.00  0.00     0.120 C 
HETATM   32  C15 UNL     1      38.227  27.752  56.558  1.00  0.00     0.026 C 
ENDBRANCH  28  31
ENDBRANCH  25  28
ENDBRANCH   4  25
TORSDOF 7
ENDMDL
MODEL 5
REMARK VINA RESULT: -7.222368879      2.126      7.272
REMARK  7 active torsions:
REMARK  status: ('A' for Active; 'I' for Inactive)
REMARK    1  A    between atoms: C2_2  and  C3_3 
REMARK    2  A    between atoms: C7_9  and  C8_10 
REMARK    3  A    between atoms: C9_13  and  C11_15 
REMARK    4  A    between atoms: C11_15  and  O1_16 
REMARK    5  A    between atoms: C11_15  and  N3_18 
REMARK    6  A    between atoms: N3_18  and  C12_19 
REMARK    7  A    between atoms: N3_18  and  C14_21 
ROOT
HETATM    1  C8  UNL     1      41.234  25.129  55.471  1.00  0.00     0.052 C 
HETATM    2  N2  UNL     1      41.783  24.373  54.594  1.00  0.00    -0.368 N 
ATOM      3  H2  UNL     1      41.251  23.575  54.246  1.00  0.00     0.161 HD
HETATM    4  C9  UNL     1      43.147  24.589  54.055  1.00  0.00     0.151 C 
HETATM    5  C10 UNL     1      43.053  25.663  53.005  1.00  0.00     0.056 C 
HETATM    6  C16 UNL     1      43.977  24.996  55.212  1.00  0.00     0.120 A 
HETATM    7  N4  UNL     1      45.207  24.752  55.640  1.00  0.00    -0.352 N 
ATOM      8  H4  UNL     1      45.874  24.147  55.159  1.00  0.00     0.166 HD
HETATM    9  C17 UNL     1      45.464  25.401  56.780  1.00  0.00     0.106 A 
HETATM   10  C18 UNL     1      44.321  26.098  57.092  1.00  0.00     0.110 A 
HETATM   11  N5  UNL     1      43.437  25.830  56.121  1.00  0.00    -0.337 N 
HETATM   12  C19 UNL     1      42.063  26.281  55.984  1.00  0.00     0.189 C 
ENDROOT
BRANCH   1  13
HETATM   13  C7  UNL     1      39.885  24.881  55.972  1.00  0.00     0.059 A 
HETATM   14  C6  UNL     1      38.737  24.644  55.248  1.00  0.00     0.063 A 
HETATM   15  C5  UNL     1      37.721  24.469  56.166  1.00  0.00     0.061 A 
HETATM   16  N1  UNL     1      36.398  24.218  56.345  1.00  0.00    -0.363 N 
HETATM   17  C20 UNL     1      38.238  24.598  57.442  1.00  0.00     0.067 A 
HETATM   18  C4  UNL     1      36.096  24.189  57.657  1.00  0.00     0.097 A 
ATOM     19  H1  UNL     1      35.726  24.071  55.591  1.00  0.00     0.165 HD
HETATM   20  C3  UNL     1      37.246  24.428  58.384  1.00  0.00    -0.014 A 
HETATM   21  N6  UNL     1      39.550  24.846  57.276  1.00  0.00    -0.352 N 
ATOM     22  H6  UNL     1      40.209  24.990  58.041  1.00  0.00     0.166 HD
BRANCH  20  23
HETATM   23  C2  UNL     1      37.343  24.479  59.867  1.00  0.00     0.038 C 
HETATM   24  C1  UNL     1      36.204  23.716  60.526  1.00  0.00     0.010 C 
ENDBRANCH  20  23
ENDBRANCH   1  13
BRANCH   4  25
HETATM   25  C11 UNL     1      43.568  23.339  53.405  1.00  0.00     0.150 C 
BRANCH  25  26
HETATM   26  O1  UNL     1      44.128  22.485  54.215  1.00  0.00    -0.347 OA
ATOM     27  H1  UNL     1      44.698  21.861  53.783  1.00  0.00     0.219 HD
ENDBRANCH  25  26
BRANCH  25  28
HETATM   28  N3  UNL     1      43.476  22.910  52.090  1.00  0.00    -0.364 N 
BRANCH  28  29
HETATM   29  C12 UNL     1      42.549  23.272  51.051  1.00  0.00     0.120 C 
HETATM   30  C13 UNL     1      43.166  24.072  49.922  1.00  0.00     0.026 C 
ENDBRANCH  28  29
BRANCH  28  31
HETATM   31  C14 UNL     1      44.489  21.919  51.643  1.00  0.00     0.120 C 
HETATM   32  C15 UNL     1      43.851  20.599  51.314  1.00  0.00     0.026 C 
ENDBRANCH  28  31
ENDBRANCH  25  28
ENDBRANCH   4  25
TORSDOF 7
ENDMDL
