MODEL 1
REMARK VINA RESULT: -6.779165783      0.000      0.000
REMARK  9 active torsions:
REMARK  status: ('A' for Active; 'I' for Inactive)
REMARK       I    between atoms: C2_4  and  N2_5 
REMARK       I    between atoms: C2_4  and  N7_35 
REMARK    1  A    between atoms: N2_5  and  C3_7 
REMARK    2  A    between atoms: C3_7  and  C4_8 
REMARK    3  A    between atoms: C4_8  and  C5_9 
REMARK    4  A    between atoms: C5_9  and  C6_10 
REMARK    5  A    between atoms: C6_10  and  C7_11 
REMARK    6  A    between atoms: C7_11  and  C8_12 
REMARK    7  A    between atoms: C8_12  and  C9_13 
REMARK    8  A    between atoms: C9_13  and  C10_14 
REMARK    9  A    between atoms: C10_14  and  C11_16 
ROOT
HETATM    1  C11 UNL     1      -0.784  17.789  21.006  1.00  0.00     0.346 C 
HETATM    2  N3  UNL     1      -1.416  18.686  20.050  1.00  0.00    -0.047 N 
ATOM      3  H31 UNL     1      -0.906  18.708  19.167  1.00  0.00     0.279 HD
ATOM      4  H32 UNL     1      -1.302  19.661  20.324  1.00  0.00     0.279 HD
HETATM    5  C12 UNL     1      -2.809  18.353  19.848  1.00  0.00     0.336 C 
HETATM    6  C13 UNL     1      -3.248  18.486  18.460  1.00  0.00     0.243 C 
HETATM    7  O2  UNL     1      -3.862  19.561  18.136  1.00  0.00    -0.272 OA
HETATM    8  N4  UNL     1      -3.051  17.520  17.442  1.00  0.00    -0.351 N 
ATOM      9  H4  UNL     1      -3.860  17.260  16.879  1.00  0.00     0.163 HD
HETATM   10  C14 UNL     1      -1.790  16.873  17.138  1.00  0.00     0.225 C 
HETATM   11  C15 UNL     1      -1.915  15.414  17.378  1.00  0.00     0.242 C 
HETATM   12  O3  UNL     1      -2.882  14.857  16.743  1.00  0.00    -0.271 OA
HETATM   13  N5  UNL     1      -1.078  14.644  18.219  1.00  0.00    -0.317 N 
HETATM   14  C16 UNL     1      -0.641  13.351  17.708  1.00  0.00     0.160 C 
HETATM   15  C17 UNL     1      -0.651  15.067  19.530  1.00  0.00     0.188 C 
HETATM   16  N6  UNL     1       0.399  16.038  19.542  1.00  0.00    -0.321 N 
ATOM     17  H6  UNL     1       1.174  15.917  18.890  1.00  0.00     0.169 HD
HETATM   18  C18 UNL     1       0.423  17.164  20.412  1.00  0.00     0.261 C 
HETATM   19  O4  UNL     1       1.540  17.659  20.696  1.00  0.00    -0.270 OA
ENDROOT
BRANCH   1  20
HETATM   20  C10 UNL     1      -0.403  18.507  22.252  1.00  0.00     0.166 C 
HETATM   21  O1  UNL     1      -0.034  17.863  23.204  1.00  0.00    -0.295 OA
BRANCH  20  22
HETATM   22  C9  UNL     1      -0.475  19.989  22.325  1.00  0.00     0.081 C 
BRANCH  22  23
HETATM   23  C8  UNL     1       0.786  20.577  22.933  1.00  0.00     0.007 C 
BRANCH  23  24
HETATM   24  C7  UNL     1       1.771  20.895  21.836  1.00  0.00     0.000 C 
BRANCH  24  25
HETATM   25  C6  UNL     1       3.205  20.705  22.272  1.00  0.00     0.000 C 
BRANCH  25  26
HETATM   26  C5  UNL     1       4.145  20.458  21.143  1.00  0.00     0.002 C 
BRANCH  26  27
HETATM   27  C4  UNL     1       4.963  21.699  20.883  1.00  0.00     0.020 C 
BRANCH  27  28
HETATM   28  C3  UNL     1       5.345  21.879  19.446  1.00  0.00     0.138 C 
BRANCH  28  29
HETATM   29  N2  UNL     1       4.094  21.896  18.670  1.00  0.00    -0.227 N 
HETATM   30  C2  UNL     1       3.951  21.247  17.429  1.00  0.00     0.670 C 
HETATM   31  N1  UNL     1       3.040  20.383  17.143  1.00  0.00    -0.231 N 
HETATM   32  N7  UNL     1       4.885  21.561  16.388  1.00  0.00    -0.227 N 
HETATM   33  C1  UNL     1       2.020  19.947  18.063  1.00  0.00     0.165 C 
ATOM     34  H1  UNL     1       3.041  19.982  16.205  1.00  0.00     0.177 HD
HETATM   35  C19 UNL     1       5.369  20.479  15.576  1.00  0.00     0.168 C 
HETATM   36  C20 UNL     1       5.306  22.953  16.193  1.00  0.00     0.168 C 
ATOM     37  H2  UNL     1       3.294  22.402  19.050  1.00  0.00     0.177 HD
ENDBRANCH  28  29
ENDBRANCH  27  28
ENDBRANCH  26  27
ENDBRANCH  25  26
ENDBRANCH  24  25
ENDBRANCH  23  24
ENDBRANCH  22  23
ENDBRANCH  20  22
ENDBRANCH   1  20
TORSDOF 9
ENDMDL
MODEL 2
REMARK VINA RESULT: -6.630478748      0.748      1.644
REMARK  9 active torsions:
REMARK  status: ('A' for Active; 'I' for Inactive)
REMARK       I    between atoms: C2_4  and  N2_5 
REMARK       I    between atoms: C2_4  and  N7_35 
REMARK    1  A    between atoms: N2_5  and  C3_7 
REMARK    2  A    between atoms: C3_7  and  C4_8 
REMARK    3  A    between atoms: C4_8  and  C5_9 
REMARK    4  A    between atoms: C5_9  and  C6_10 
REMARK    5  A    between atoms: C6_10  and  C7_11 
REMARK    6  A    between atoms: C7_11  and  C8_12 
REMARK    7  A    between atoms: C8_12  and  C9_13 
REMARK    8  A    between atoms: C9_13  and  C10_14 
REMARK    9  A    between atoms: C10_14  and  C11_16 
ROOT
HETATM    1  C11 UNL     1      -0.852  17.699  21.009  1.00  0.00     0.346 C 
HETATM    2  N3  UNL     1      -1.482  18.603  20.060  1.00  0.00    -0.047 N 
ATOM      3  H31 UNL     1      -0.960  18.648  19.185  1.00  0.00     0.279 HD
ATOM      4  H32 UNL     1      -1.386  19.575  20.351  1.00  0.00     0.279 HD
HETATM    5  C12 UNL     1      -2.868  18.255  19.831  1.00  0.00     0.336 C 
HETATM    6  C13 UNL     1      -3.288  18.406  18.439  1.00  0.00     0.243 C 
HETATM    7  O2  UNL     1      -3.913  19.478  18.124  1.00  0.00    -0.272 OA
HETATM    8  N4  UNL     1      -3.063  17.461  17.408  1.00  0.00    -0.351 N 
ATOM      9  H4  UNL     1      -3.860  17.199  16.828  1.00  0.00     0.163 HD
HETATM   10  C14 UNL     1      -1.788  16.837  17.111  1.00  0.00     0.225 C 
HETATM   11  C15 UNL     1      -1.897  15.372  17.324  1.00  0.00     0.242 C 
HETATM   12  O3  UNL     1      -2.846  14.813  16.666  1.00  0.00    -0.271 OA
HETATM   13  N5  UNL     1      -1.061  14.599  18.164  1.00  0.00    -0.317 N 
HETATM   14  C16 UNL     1      -0.599  13.321  17.638  1.00  0.00     0.160 C 
HETATM   15  C17 UNL     1      -0.660  15.005  19.489  1.00  0.00     0.188 C 
HETATM   16  N6  UNL     1       0.376  15.990  19.533  1.00  0.00    -0.321 N 
ATOM     17  H6  UNL     1       1.162  15.891  18.890  1.00  0.00     0.169 HD
HETATM   18  C18 UNL     1       0.372  17.100  20.423  1.00  0.00     0.261 C 
HETATM   19  O4  UNL     1       1.477  17.606  20.732  1.00  0.00    -0.270 OA
ENDROOT
BRANCH   1  20
HETATM   20  C10 UNL     1      -0.500  18.399  22.273  1.00  0.00     0.166 C 
HETATM   21  O1  UNL     1      -0.174  17.742  23.231  1.00  0.00    -0.295 OA
BRANCH  20  22
HETATM   22  C9  UNL     1      -0.548  19.882  22.356  1.00  0.00     0.081 C 
BRANCH  22  23
HETATM   23  C8  UNL     1       0.738  20.448  22.931  1.00  0.00     0.007 C 
BRANCH  23  24
HETATM   24  C7  UNL     1       1.635  20.900  21.806  1.00  0.00     0.000 C 
BRANCH  24  25
HETATM   25  C6  UNL     1       3.102  20.740  22.134  1.00  0.00     0.000 C 
BRANCH  25  26
HETATM   26  C5  UNL     1       3.934  20.336  20.965  1.00  0.00     0.002 C 
BRANCH  26  27
HETATM   27  C4  UNL     1       4.541  21.561  20.328  1.00  0.00     0.020 C 
BRANCH  27  28
HETATM   28  C3  UNL     1       3.868  21.974  19.055  1.00  0.00     0.138 C 
BRANCH  28  29
HETATM   29  N2  UNL     1       4.064  20.878  18.093  1.00  0.00    -0.227 N 
HETATM   30  C2  UNL     1       3.319  20.755  16.904  1.00  0.00     0.670 C 
HETATM   31  N1  UNL     1       3.817  20.655  15.722  1.00  0.00    -0.231 N 
HETATM   32  N7  UNL     1       1.888  20.739  17.000  1.00  0.00    -0.227 N 
HETATM   33  C1  UNL     1       5.230  20.653  15.435  1.00  0.00     0.165 C 
ATOM     34  H1  UNL     1       3.170  20.571  14.937  1.00  0.00     0.177 HD
HETATM   35  C19 UNL     1       1.145  21.469  16.011  1.00  0.00     0.168 C 
HETATM   36  C20 UNL     1       1.247  19.991  18.086  1.00  0.00     0.168 C 
ATOM     37  H2  UNL     1       4.774  20.173  18.297  1.00  0.00     0.177 HD
ENDBRANCH  28  29
ENDBRANCH  27  28
ENDBRANCH  26  27
ENDBRANCH  25  26
ENDBRANCH  24  25
ENDBRANCH  23  24
ENDBRANCH  22  23
ENDBRANCH  20  22
ENDBRANCH   1  20
TORSDOF 9
ENDMDL
MODEL 3
REMARK VINA RESULT: -6.563477617      0.887      1.711
REMARK  9 active torsions:
REMARK  status: ('A' for Active; 'I' for Inactive)
REMARK       I    between atoms: C2_4  and  N2_5 
REMARK       I    between atoms: C2_4  and  N7_35 
REMARK    1  A    between atoms: N2_5  and  C3_7 
REMARK    2  A    between atoms: C3_7  and  C4_8 
REMARK    3  A    between atoms: C4_8  and  C5_9 
REMARK    4  A    between atoms: C5_9  and  C6_10 
REMARK    5  A    between atoms: C6_10  and  C7_11 
REMARK    6  A    between atoms: C7_11  and  C8_12 
REMARK    7  A    between atoms: C8_12  and  C9_13 
REMARK    8  A    between atoms: C9_13  and  C10_14 
REMARK    9  A    between atoms: C10_14  and  C11_16 
ROOT
HETATM    1  C11 UNL     1      -0.770  17.748  21.003  1.00  0.00     0.346 C 
HETATM    2  N3  UNL     1      -1.413  18.655  20.065  1.00  0.00    -0.047 N 
ATOM      3  H31 UNL     1      -0.913  18.690  19.178  1.00  0.00     0.279 HD
ATOM      4  H32 UNL     1      -1.299  19.627  20.350  1.00  0.00     0.279 HD
HETATM    5  C12 UNL     1      -2.808  18.322  19.873  1.00  0.00     0.336 C 
HETATM    6  C13 UNL     1      -3.261  18.472  18.491  1.00  0.00     0.243 C 
HETATM    7  O2  UNL     1      -3.881  19.550  18.187  1.00  0.00    -0.272 OA
HETATM    8  N4  UNL     1      -3.073  17.520  17.459  1.00  0.00    -0.351 N 
ATOM      9  H4  UNL     1      -3.887  17.265  16.901  1.00  0.00     0.163 HD
HETATM   10  C14 UNL     1      -1.814  16.879  17.134  1.00  0.00     0.225 C 
HETATM   11  C15 UNL     1      -1.934  15.417  17.356  1.00  0.00     0.242 C 
HETATM   12  O3  UNL     1      -2.906  14.866  16.724  1.00  0.00    -0.271 OA
HETATM   13  N5  UNL     1      -1.087  14.638  18.179  1.00  0.00    -0.317 N 
HETATM   14  C16 UNL     1      -0.653  13.352  17.647  1.00  0.00     0.160 C 
HETATM   15  C17 UNL     1      -0.648  15.045  19.491  1.00  0.00     0.188 C 
HETATM   16  N6  UNL     1       0.401  16.017  19.505  1.00  0.00    -0.321 N 
ATOM     17  H6  UNL     1       1.169  15.906  18.843  1.00  0.00     0.169 HD
HETATM   18  C18 UNL     1       0.432  17.132  20.389  1.00  0.00     0.261 C 
HETATM   19  O4  UNL     1       1.550  17.625  20.668  1.00  0.00    -0.270 OA
ENDROOT
BRANCH   1  20
HETATM   20  C10 UNL     1      -0.378  18.449  22.255  1.00  0.00     0.166 C 
HETATM   21  O1  UNL     1      -0.058  17.792  23.214  1.00  0.00    -0.295 OA
BRANCH  20  22
HETATM   22  C9  UNL     1      -0.380  19.933  22.323  1.00  0.00     0.081 C 
BRANCH  22  23
HETATM   23  C8  UNL     1       0.980  20.473  22.729  1.00  0.00     0.007 C 
BRANCH  23  24
HETATM   24  C7  UNL     1       1.711  20.966  21.506  1.00  0.00     0.000 C 
BRANCH  24  25
HETATM   25  C6  UNL     1       3.177  20.600  21.520  1.00  0.00     0.000 C 
BRANCH  25  26
HETATM   26  C5  UNL     1       3.882  20.911  20.245  1.00  0.00     0.002 C 
BRANCH  26  27
HETATM   27  C4  UNL     1       2.945  20.693  19.082  1.00  0.00     0.020 C 
BRANCH  27  28
HETATM   28  C3  UNL     1       3.530  21.077  17.758  1.00  0.00     0.138 C 
BRANCH  28  29
HETATM   29  N2  UNL     1       4.882  21.596  18.021  1.00  0.00    -0.227 N 
HETATM   30  C2  UNL     1       5.606  22.363  17.089  1.00  0.00     0.670 C 
HETATM   31  N1  UNL     1       6.111  23.525  17.315  1.00  0.00    -0.231 N 
HETATM   32  N7  UNL     1       5.808  21.821  15.777  1.00  0.00    -0.227 N 
HETATM   33  C1  UNL     1       6.009  24.223  18.572  1.00  0.00     0.165 C 
ATOM     34  H1  UNL     1       6.617  23.981  16.555  1.00  0.00     0.177 HD
HETATM   35  C19 UNL     1       5.686  22.716  14.659  1.00  0.00     0.168 C 
HETATM   36  C20 UNL     1       6.125  20.397  15.626  1.00  0.00     0.168 C 
ATOM     37  H2  UNL     1       5.314  21.390  18.922  1.00  0.00     0.177 HD
ENDBRANCH  28  29
ENDBRANCH  27  28
ENDBRANCH  26  27
ENDBRANCH  25  26
ENDBRANCH  24  25
ENDBRANCH  23  24
ENDBRANCH  22  23
ENDBRANCH  20  22
ENDBRANCH   1  20
TORSDOF 9
ENDMDL
MODEL 4
REMARK VINA RESULT: -6.478712467      0.885      1.584
REMARK  9 active torsions:
REMARK  status: ('A' for Active; 'I' for Inactive)
REMARK       I    between atoms: C2_4  and  N2_5 
REMARK       I    between atoms: C2_4  and  N7_35 
REMARK    1  A    between atoms: N2_5  and  C3_7 
REMARK    2  A    between atoms: C3_7  and  C4_8 
REMARK    3  A    between atoms: C4_8  and  C5_9 
REMARK    4  A    between atoms: C5_9  and  C6_10 
REMARK    5  A    between atoms: C6_10  and  C7_11 
REMARK    6  A    between atoms: C7_11  and  C8_12 
REMARK    7  A    between atoms: C8_12  and  C9_13 
REMARK    8  A    between atoms: C9_13  and  C10_14 
REMARK    9  A    between atoms: C10_14  and  C11_16 
ROOT
HETATM    1  C11 UNL     1      -0.737  17.786  20.983  1.00  0.00     0.346 C 
HETATM    2  N3  UNL     1      -1.401  18.673  20.042  1.00  0.00    -0.047 N 
ATOM      3  H31 UNL     1      -0.909  18.705  19.150  1.00  0.00     0.279 HD
ATOM      4  H32 UNL     1      -1.299  19.650  20.315  1.00  0.00     0.279 HD
HETATM    5  C12 UNL     1      -2.792  18.317  19.865  1.00  0.00     0.336 C 
HETATM    6  C13 UNL     1      -3.260  18.445  18.486  1.00  0.00     0.243 C 
HETATM    7  O2  UNL     1      -3.898  19.510  18.176  1.00  0.00    -0.272 OA
HETATM    8  N4  UNL     1      -3.066  17.485  17.463  1.00  0.00    -0.351 N 
ATOM      9  H4  UNL     1      -3.881  17.211  16.915  1.00  0.00     0.163 HD
HETATM   10  C14 UNL     1      -1.800  16.859  17.134  1.00  0.00     0.225 C 
HETATM   11  C15 UNL     1      -1.897  15.397  17.373  1.00  0.00     0.242 C 
HETATM   12  O3  UNL     1      -2.866  14.826  16.756  1.00  0.00    -0.271 OA
HETATM   13  N5  UNL     1      -1.030  14.641  18.196  1.00  0.00    -0.317 N 
HETATM   14  C16 UNL     1      -0.582  13.355  17.675  1.00  0.00     0.160 C 
HETATM   15  C17 UNL     1      -0.586  15.068  19.500  1.00  0.00     0.188 C 
HETATM   16  N6  UNL     1       0.448  16.057  19.494  1.00  0.00    -0.321 N 
ATOM     17  H6  UNL     1       1.212  15.950  18.827  1.00  0.00     0.169 HD
HETATM   18  C18 UNL     1       0.470  17.181  20.366  1.00  0.00     0.261 C 
HETATM   19  O4  UNL     1       1.583  17.695  20.630  1.00  0.00    -0.270 OA
ENDROOT
BRANCH   1  20
HETATM   20  C10 UNL     1      -0.344  18.507  22.224  1.00  0.00     0.166 C 
HETATM   21  O1  UNL     1      -0.009  17.865  23.189  1.00  0.00    -0.295 OA
BRANCH  20  22
HETATM   22  C9  UNL     1      -0.363  19.992  22.275  1.00  0.00     0.081 C 
BRANCH  22  23
HETATM   23  C8  UNL     1       0.878  20.541  22.956  1.00  0.00     0.007 C 
BRANCH  23  24
HETATM   24  C7  UNL     1       1.881  20.959  21.910  1.00  0.00     0.000 C 
BRANCH  24  25
HETATM   25  C6  UNL     1       3.308  20.751  22.360  1.00  0.00     0.000 C 
BRANCH  25  26
HETATM   26  C5  UNL     1       4.233  20.373  21.255  1.00  0.00     0.002 C 
BRANCH  26  27
HETATM   27  C4  UNL     1       3.813  21.067  19.983  1.00  0.00     0.020 C 
BRANCH  27  28
HETATM   28  C3  UNL     1       4.933  21.774  19.284  1.00  0.00     0.138 C 
BRANCH  28  29
HETATM   29  N2  UNL     1       4.764  21.526  17.844  1.00  0.00    -0.227 N 
HETATM   30  C2  UNL     1       5.265  22.389  16.851  1.00  0.00     0.670 C 
HETATM   31  N1  UNL     1       6.041  22.040  15.885  1.00  0.00    -0.231 N 
HETATM   32  N7  UNL     1       4.890  23.772  16.903  1.00  0.00    -0.227 N 
HETATM   33  C1  UNL     1       6.520  20.696  15.676  1.00  0.00     0.165 C 
ATOM     34  H1  UNL     1       6.337  22.760  15.227  1.00  0.00     0.177 HD
HETATM   35  C19 UNL     1       5.902  24.749  16.611  1.00  0.00     0.168 C 
HETATM   36  C20 UNL     1       3.511  24.132  17.246  1.00  0.00     0.168 C 
ATOM     37  H2  UNL     1       4.259  20.689  17.551  1.00  0.00     0.177 HD
ENDBRANCH  28  29
ENDBRANCH  27  28
ENDBRANCH  26  27
ENDBRANCH  25  26
ENDBRANCH  24  25
ENDBRANCH  23  24
ENDBRANCH  22  23
ENDBRANCH  20  22
ENDBRANCH   1  20
TORSDOF 9
ENDMDL
MODEL 5
REMARK VINA RESULT: -6.462419475      2.994      5.435
REMARK  9 active torsions:
REMARK  status: ('A' for Active; 'I' for Inactive)
REMARK       I    between atoms: C2_4  and  N2_5 
REMARK       I    between atoms: C2_4  and  N7_35 
REMARK    1  A    between atoms: N2_5  and  C3_7 
REMARK    2  A    between atoms: C3_7  and  C4_8 
REMARK    3  A    between atoms: C4_8  and  C5_9 
REMARK    4  A    between atoms: C5_9  and  C6_10 
REMARK    5  A    between atoms: C6_10  and  C7_11 
REMARK    6  A    between atoms: C7_11  and  C8_12 
REMARK    7  A    between atoms: C8_12  and  C9_13 
REMARK    8  A    between atoms: C9_13  and  C10_14 
REMARK    9  A    between atoms: C10_14  and  C11_16 
ROOT
HETATM    1  C11 UNL     1       1.174  19.740  18.674  1.00  0.00     0.346 C 
HETATM    2  N3  UNL     1       0.858  19.976  20.073  1.00  0.00    -0.047 N 
ATOM      3  H31 UNL     1      -0.142  20.123  20.209  1.00  0.00     0.279 HD
ATOM      4  H32 UNL     1       1.195  20.888  20.382  1.00  0.00     0.279 HD
HETATM    5  C12 UNL     1       1.356  18.914  20.919  1.00  0.00     0.336 C 
HETATM    6  C13 UNL     1       0.446  18.553  22.005  1.00  0.00     0.243 C 
HETATM    7  O2  UNL     1       0.680  19.052  23.161  1.00  0.00    -0.272 OA
HETATM    8  N4  UNL     1      -0.674  17.694  21.884  1.00  0.00    -0.351 N 
ATOM      9  H4  UNL     1      -0.769  16.947  22.572  1.00  0.00     0.163 HD
HETATM   10  C14 UNL     1      -1.695  17.793  20.860  1.00  0.00     0.225 C 
HETATM   11  C15 UNL     1      -1.681  16.563  20.030  1.00  0.00     0.242 C 
HETATM   12  O3  UNL     1      -1.804  15.475  20.699  1.00  0.00    -0.271 OA
HETATM   13  N5  UNL     1      -1.545  16.523  18.623  1.00  0.00    -0.317 N 
HETATM   14  C16 UNL     1      -2.422  15.609  17.902  1.00  0.00     0.160 C 
HETATM   15  C17 UNL     1      -0.597  17.322  17.885  1.00  0.00     0.188 C 
HETATM   16  N6  UNL     1      -0.967  18.693  17.710  1.00  0.00    -0.321 N 
ATOM     17  H6  UNL     1      -1.936  18.904  17.473  1.00  0.00     0.169 HD
HETATM   18  C18 UNL     1      -0.058  19.779  17.848  1.00  0.00     0.261 C 
HETATM   19  O4  UNL     1      -0.316  20.839  17.230  1.00  0.00    -0.270 OA
ENDROOT
BRANCH   1  20
HETATM   20  C10 UNL     1       2.142  20.746  18.159  1.00  0.00     0.166 C 
HETATM   21  O1  UNL     1       2.032  21.894  18.513  1.00  0.00    -0.295 OA
BRANCH  20  22
HETATM   22  C9  UNL     1       3.226  20.345  17.226  1.00  0.00     0.081 C 
BRANCH  22  23
HETATM   23  C8  UNL     1       2.958  20.840  15.816  1.00  0.00     0.007 C 
BRANCH  23  24
HETATM   24  C7  UNL     1       4.265  21.001  15.082  1.00  0.00     0.000 C 
BRANCH  24  25
HETATM   25  C6  UNL     1       5.463  20.780  15.977  1.00  0.00     0.000 C 
BRANCH  25  26
HETATM   26  C5  UNL     1       6.545  19.979  15.338  1.00  0.00     0.002 C 
BRANCH  26  27
HETATM   27  C4  UNL     1       6.664  20.358  13.882  1.00  0.00     0.020 C 
BRANCH  27  28
HETATM   28  C3  UNL     1       8.031  20.829  13.492  1.00  0.00     0.138 C 
BRANCH  28  29
HETATM   29  N2  UNL     1       8.045  22.291  13.661  1.00  0.00    -0.227 N 
HETATM   30  C2  UNL     1       7.262  23.162  12.880  1.00  0.00     0.670 C 
HETATM   31  N1  UNL     1       6.438  24.037  13.342  1.00  0.00    -0.231 N 
HETATM   32  N7  UNL     1       7.379  23.084  11.453  1.00  0.00    -0.227 N 
HETATM   33  C1  UNL     1       6.191  24.256  14.745  1.00  0.00     0.165 C 
ATOM     34  H1  UNL     1       5.927  24.611  12.671  1.00  0.00     0.177 HD
HETATM   35  C19 UNL     1       6.175  23.188  10.678  1.00  0.00     0.168 C 
HETATM   36  C20 UNL     1       8.703  22.902  10.848  1.00  0.00     0.168 C 
ATOM     37  H2  UNL     1       8.650  22.691  14.379  1.00  0.00     0.177 HD
ENDBRANCH  28  29
ENDBRANCH  27  28
ENDBRANCH  26  27
ENDBRANCH  25  26
ENDBRANCH  24  25
ENDBRANCH  23  24
ENDBRANCH  22  23
ENDBRANCH  20  22
ENDBRANCH   1  20
TORSDOF 9
ENDMDL
