MODEL 1
REMARK VINA RESULT: -6.715738711      0.000      0.000
REMARK  10 active torsions:
REMARK  status: ('A' for Active; 'I' for Inactive)
REMARK    1  A    between atoms: C5_8  and  C6_9 
REMARK    2  A    between atoms: C9_15  and  N3_16 
REMARK       I    between atoms: N3_16  and  C10_18 
REMARK    3  A    between atoms: C10_18  and  C11_20 
REMARK    4  A    between atoms: C11_20  and  C12_21 
REMARK    5  A    between atoms: C12_21  and  N4_22 
REMARK    6  A    between atoms: N5_25  and  C15_26 
REMARK    7  A    between atoms: C15_26  and  C16_27 
REMARK    8  A    between atoms: C16_27  and  C17_28 
REMARK    9  A    between atoms: C17_28  and  C18_29 
REMARK   10  A    between atoms: C18_29  and  O3_30 
ROOT
HETATM    1  N3  UNL     1       1.653  19.846  19.351  1.00  0.00    -0.354 N 
ATOM      2  H3  UNL     1       2.024  20.141  20.254  1.00  0.00     0.162 HD
HETATM    3  C10 UNL     1       2.332  20.272  18.178  1.00  0.00     0.219 C 
HETATM    4  O2  UNL     1       1.873  19.908  17.070  1.00  0.00    -0.274 OA
ENDROOT
BRANCH   1   5
HETATM    5  C9  UNL     1       0.479  19.025  19.339  1.00  0.00     0.124 C 
HETATM    6  C6  UNL     1       0.796  17.548  19.365  1.00  0.00     0.275 C 
HETATM    7  N2  UNL     1       0.868  17.188  20.767  1.00  0.00    -0.062 N 
HETATM    8  C7  UNL     1       0.031  18.093  21.492  1.00  0.00     0.235 C 
ATOM      9  H22 UNL     1       0.635  16.210  20.937  1.00  0.00     0.278 HD
ATOM     10  H21 UNL     1       1.823  17.162  21.121  1.00  0.00     0.278 HD
HETATM   11  C8  UNL     1      -0.398  19.188  20.541  1.00  0.00     0.055 C 
BRANCH   6  12
HETATM   12  C5  UNL     1      -0.293  16.763  18.729  1.00  0.00     0.113 C 
HETATM   13  N1  UNL     1      -0.395  15.366  18.930  1.00  0.00    -0.315 N 
HETATM   14  C4  UNL     1      -1.441  14.590  18.323  1.00  0.00     0.225 C 
ATOM     15  H1  UNL     1       0.292  14.897  19.521  1.00  0.00     0.170 HD
HETATM   16  C3  UNL     1      -2.182  15.221  17.202  1.00  0.00     0.127 C 
HETATM   17  O1  UNL     1      -1.743  13.439  18.693  1.00  0.00    -0.273 OA
HETATM   18  C2  UNL     1      -2.262  16.708  17.311  1.00  0.00     0.087 C 
HETATM   19  C1  UNL     1      -3.551  17.052  18.027  1.00  0.00     0.032 C 
HETATM   20  N6  UNL     1      -1.171  17.336  17.980  1.00  0.00    -0.373 N 
ATOM     21  H6  UNL     1      -1.075  18.343  17.852  1.00  0.00     0.161 HD
ENDBRANCH   6  12
ENDBRANCH   1   5
BRANCH   3  22
HETATM   22  C11 UNL     1       3.540  21.117  18.209  1.00  0.00     0.130 C 
BRANCH  22  23
HETATM   23  C12 UNL     1       3.438  22.216  17.204  1.00  0.00     0.247 C 
BRANCH  23  24
HETATM   24  N4  UNL     1       4.386  22.147  16.141  1.00  0.00    -0.062 N 
HETATM   25  C13 UNL     1       3.675  21.962  14.889  1.00  0.00     0.265 C 
HETATM   26  C14 UNL     1       4.633  21.891  13.722  1.00  0.00     0.265 C 
HETATM   27  N5  UNL     1       5.969  22.201  14.196  1.00  0.00    -0.062 N 
HETATM   28  C19 UNL     1       5.909  23.522  14.786  1.00  0.00     0.265 C 
HETATM   29  C21 UNL     1       6.337  21.190  15.156  1.00  0.00     0.265 C 
HETATM   30  C20 UNL     1       5.131  23.407  16.076  1.00  0.00     0.265 C 
HETATM   31  C22 UNL     1       5.363  21.097  16.307  1.00  0.00     0.265 C 
BRANCH  27  32
HETATM   32  C15 UNL     1       6.873  22.133  13.077  1.00  0.00     0.237 C 
BRANCH  32  33
HETATM   33  C16 UNL     1       6.507  21.093  12.070  1.00  0.00     0.030 C 
BRANCH  33  34
HETATM   34  C17 UNL     1       7.737  20.351  11.608  1.00  0.00     0.028 C 
BRANCH  34  35
HETATM   35  C18 UNL     1       8.903  20.460  12.538  1.00  0.00     0.164 C 
BRANCH  35  36
HETATM   36  O3  UNL     1       9.108  19.183  13.083  1.00  0.00    -0.401 OA
ATOM     37  H3  UNL     1       9.263  19.302  14.012  1.00  0.00     0.209 HD
ENDBRANCH  35  36
ENDBRANCH  34  35
ENDBRANCH  33  34
ENDBRANCH  32  33
ENDBRANCH  27  32
ENDBRANCH  23  24
ENDBRANCH  22  23
ENDBRANCH   3  22
TORSDOF 10
ENDMDL
MODEL 2
REMARK VINA RESULT: -6.667294855      2.094      9.056
REMARK  10 active torsions:
REMARK  status: ('A' for Active; 'I' for Inactive)
REMARK    1  A    between atoms: C5_8  and  C6_9 
REMARK    2  A    between atoms: C9_15  and  N3_16 
REMARK       I    between atoms: N3_16  and  C10_18 
REMARK    3  A    between atoms: C10_18  and  C11_20 
REMARK    4  A    between atoms: C11_20  and  C12_21 
REMARK    5  A    between atoms: C12_21  and  N4_22 
REMARK    6  A    between atoms: N5_25  and  C15_26 
REMARK    7  A    between atoms: C15_26  and  C16_27 
REMARK    8  A    between atoms: C16_27  and  C17_28 
REMARK    9  A    between atoms: C17_28  and  C18_29 
REMARK   10  A    between atoms: C18_29  and  O3_30 
ROOT
HETATM    1  N3  UNL     1       2.701  20.982  19.659  1.00  0.00    -0.354 N 
ATOM      2  H3  UNL     1       1.902  21.615  19.617  1.00  0.00     0.162 HD
HETATM    3  C10 UNL     1       2.641  19.887  20.562  1.00  0.00     0.219 C 
HETATM    4  O2  UNL     1       3.625  19.113  20.610  1.00  0.00    -0.274 OA
ENDROOT
BRANCH   1   5
HETATM    5  C9  UNL     1       3.818  21.249  18.802  1.00  0.00     0.124 C 
HETATM    6  C6  UNL     1       3.518  22.302  17.760  1.00  0.00     0.275 C 
HETATM    7  N2  UNL     1       3.861  23.568  18.374  1.00  0.00    -0.062 N 
HETATM    8  C7  UNL     1       4.877  23.318  19.350  1.00  0.00     0.235 C 
ATOM      9  H22 UNL     1       4.131  24.278  17.693  1.00  0.00     0.278 HD
ATOM     10  H21 UNL     1       3.051  24.054  18.761  1.00  0.00     0.278 HD
HETATM   11  C8  UNL     1       5.010  21.820  19.504  1.00  0.00     0.055 C 
BRANCH   6  12
HETATM   12  C5  UNL     1       4.370  22.112  16.558  1.00  0.00     0.113 C 
HETATM   13  N1  UNL     1       4.984  23.217  15.921  1.00  0.00    -0.315 N 
HETATM   14  C4  UNL     1       5.811  23.052  14.757  1.00  0.00     0.225 C 
ATOM     15  H1  UNL     1       4.836  24.153  16.297  1.00  0.00     0.170 HD
HETATM   16  C3  UNL     1       5.706  21.760  14.034  1.00  0.00     0.127 C 
HETATM   17  O1  UNL     1       6.593  23.930  14.343  1.00  0.00    -0.273 OA
HETATM   18  C2  UNL     1       5.359  20.613  14.925  1.00  0.00     0.087 C 
HETATM   19  C1  UNL     1       6.652  19.969  15.379  1.00  0.00     0.032 C 
HETATM   20  N6  UNL     1       4.570  20.938  16.067  1.00  0.00    -0.373 N 
ATOM     21  H6  UNL     1       4.116  20.159  16.545  1.00  0.00     0.161 HD
ENDBRANCH   6  12
ENDBRANCH   1   5
BRANCH   3  22
HETATM   22  C11 UNL     1       1.482  19.628  21.437  1.00  0.00     0.130 C 
BRANCH  22  23
HETATM   23  C12 UNL     1       0.207  19.929  20.721  1.00  0.00     0.247 C 
BRANCH  23  24
HETATM   24  N4  UNL     1      -0.406  18.807  20.088  1.00  0.00    -0.062 N 
HETATM   25  C13 UNL     1      -0.391  19.012  18.652  1.00  0.00     0.265 C 
HETATM   26  C14 UNL     1      -1.022  17.845  17.927  1.00  0.00     0.265 C 
HETATM   27  N5  UNL     1      -1.298  16.794  18.888  1.00  0.00    -0.062 N 
HETATM   28  C19 UNL     1      -0.035  16.447  19.506  1.00  0.00     0.265 C 
HETATM   29  C21 UNL     1      -2.248  17.312  19.841  1.00  0.00     0.265 C 
HETATM   30  C20 UNL     1       0.364  17.599  20.399  1.00  0.00     0.265 C 
HETATM   31  C22 UNL     1      -1.757  18.561  20.533  1.00  0.00     0.265 C 
BRANCH  27  32
HETATM   32  C15 UNL     1      -1.897  15.687  18.187  1.00  0.00     0.237 C 
BRANCH  32  33
HETATM   33  C16 UNL     1      -1.490  14.350  18.713  1.00  0.00     0.030 C 
BRANCH  33  34
HETATM   34  C17 UNL     1      -0.996  13.471  17.591  1.00  0.00     0.028 C 
BRANCH  34  35
HETATM   35  C18 UNL     1      -1.533  13.836  16.245  1.00  0.00     0.164 C 
BRANCH  35  36
HETATM   36  O3  UNL     1      -1.900  12.638  15.614  1.00  0.00    -0.401 OA
ATOM     37  H3  UNL     1      -2.845  12.573  15.675  1.00  0.00     0.209 HD
ENDBRANCH  35  36
ENDBRANCH  34  35
ENDBRANCH  33  34
ENDBRANCH  32  33
ENDBRANCH  27  32
ENDBRANCH  23  24
ENDBRANCH  22  23
ENDBRANCH   3  22
TORSDOF 10
ENDMDL
MODEL 3
REMARK VINA RESULT: -6.652306584      1.349      1.707
REMARK  10 active torsions:
REMARK  status: ('A' for Active; 'I' for Inactive)
REMARK    1  A    between atoms: C5_8  and  C6_9 
REMARK    2  A    between atoms: C9_15  and  N3_16 
REMARK       I    between atoms: N3_16  and  C10_18 
REMARK    3  A    between atoms: C10_18  and  C11_20 
REMARK    4  A    between atoms: C11_20  and  C12_21 
REMARK    5  A    between atoms: C12_21  and  N4_22 
REMARK    6  A    between atoms: N5_25  and  C15_26 
REMARK    7  A    between atoms: C15_26  and  C16_27 
REMARK    8  A    between atoms: C16_27  and  C17_28 
REMARK    9  A    between atoms: C17_28  and  C18_29 
REMARK   10  A    between atoms: C18_29  and  O3_30 
ROOT
HETATM    1  N3  UNL     1       1.082  20.680  19.251  1.00  0.00    -0.354 N 
ATOM      2  H3  UNL     1       1.986  20.726  19.721  1.00  0.00     0.162 HD
HETATM    3  C10 UNL     1       0.720  21.749  18.390  1.00  0.00     0.219 C 
HETATM    4  O2  UNL     1      -0.393  21.689  17.816  1.00  0.00    -0.274 OA
ENDROOT
BRANCH   1   5
HETATM    5  C9  UNL     1       0.252  19.538  19.498  1.00  0.00     0.124 C 
HETATM    6  C6  UNL     1       0.998  18.231  19.360  1.00  0.00     0.275 C 
HETATM    7  N2  UNL     1       1.540  17.950  20.674  1.00  0.00    -0.062 N 
HETATM    8  C7  UNL     1       0.689  18.575  21.639  1.00  0.00     0.235 C 
ATOM      9  H22 UNL     1       1.668  16.952  20.844  1.00  0.00     0.278 HD
ATOM     10  H21 UNL     1       2.517  18.229  20.768  1.00  0.00     0.278 HD
HETATM   11  C8  UNL     1      -0.285  19.458  20.892  1.00  0.00     0.055 C 
BRANCH   6  12
HETATM   12  C5  UNL     1       0.071  17.132  18.985  1.00  0.00     0.113 C 
HETATM   13  N1  UNL     1       0.115  15.884  19.652  1.00  0.00    -0.315 N 
HETATM   14  C4  UNL     1      -0.773  14.810  19.303  1.00  0.00     0.225 C 
ATOM     15  H1  UNL     1       0.795  15.745  20.400  1.00  0.00     0.170 HD
HETATM   16  C3  UNL     1      -1.475  14.915  18.000  1.00  0.00     0.127 C 
HETATM   17  O1  UNL     1      -0.971  13.820  20.034  1.00  0.00    -0.273 OA
HETATM   18  C2  UNL     1      -1.739  16.325  17.584  1.00  0.00     0.087 C 
HETATM   19  C1  UNL     1      -3.120  16.703  18.077  1.00  0.00     0.032 C 
HETATM   20  N6  UNL     1      -0.795  17.289  18.044  1.00  0.00    -0.373 N 
ATOM     21  H6  UNL     1      -0.807  18.197  17.580  1.00  0.00     0.161 HD
ENDBRANCH   6  12
ENDBRANCH   1   5
BRANCH   3  22
HETATM   22  C11 UNL     1       1.587  22.917  18.148  1.00  0.00     0.130 C 
BRANCH  22  23
HETATM   23  C12 UNL     1       2.041  22.947  16.725  1.00  0.00     0.247 C 
BRANCH  23  24
HETATM   24  N4  UNL     1       3.333  22.389  16.495  1.00  0.00    -0.062 N 
HETATM   25  C13 UNL     1       3.180  21.005  16.084  1.00  0.00     0.265 C 
HETATM   26  C14 UNL     1       4.522  20.363  15.817  1.00  0.00     0.265 C 
HETATM   27  N5  UNL     1       5.550  21.384  15.891  1.00  0.00    -0.062 N 
HETATM   28  C19 UNL     1       5.212  22.394  14.909  1.00  0.00     0.265 C 
HETATM   29  C21 UNL     1       5.549  21.908  17.234  1.00  0.00     0.265 C 
HETATM   30  C20 UNL     1       3.993  23.129  15.417  1.00  0.00     0.265 C 
HETATM   31  C22 UNL     1       4.206  22.463  17.643  1.00  0.00     0.265 C 
BRANCH  27  32
HETATM   32  C15 UNL     1       6.824  20.763  15.633  1.00  0.00     0.237 C 
BRANCH  32  33
HETATM   33  C16 UNL     1       6.864  19.976  14.365  1.00  0.00     0.030 C 
BRANCH  33  34
HETATM   34  C17 UNL     1       7.930  20.515  13.444  1.00  0.00     0.028 C 
BRANCH  34  35
HETATM   35  C18 UNL     1       7.422  20.945  12.105  1.00  0.00     0.164 C 
BRANCH  35  36
HETATM   36  O3  UNL     1       7.666  19.886  11.218  1.00  0.00    -0.401 OA
ATOM     37  H3  UNL     1       7.202  20.087  10.415  1.00  0.00     0.209 HD
ENDBRANCH  35  36
ENDBRANCH  34  35
ENDBRANCH  33  34
ENDBRANCH  32  33
ENDBRANCH  27  32
ENDBRANCH  23  24
ENDBRANCH  22  23
ENDBRANCH   3  22
TORSDOF 10
ENDMDL
MODEL 4
REMARK VINA RESULT: -6.616324132      1.520      2.327
REMARK  10 active torsions:
REMARK  status: ('A' for Active; 'I' for Inactive)
REMARK    1  A    between atoms: C5_8  and  C6_9 
REMARK    2  A    between atoms: C9_15  and  N3_16 
REMARK       I    between atoms: N3_16  and  C10_18 
REMARK    3  A    between atoms: C10_18  and  C11_20 
REMARK    4  A    between atoms: C11_20  and  C12_21 
REMARK    5  A    between atoms: C12_21  and  N4_22 
REMARK    6  A    between atoms: N5_25  and  C15_26 
REMARK    7  A    between atoms: C15_26  and  C16_27 
REMARK    8  A    between atoms: C16_27  and  C17_28 
REMARK    9  A    between atoms: C17_28  and  C18_29 
REMARK   10  A    between atoms: C18_29  and  O3_30 
ROOT
HETATM    1  N3  UNL     1       0.340  19.863  19.096  1.00  0.00    -0.354 N 
ATOM      2  H3  UNL     1       1.108  19.948  19.763  1.00  0.00     0.162 HD
HETATM    3  C10 UNL     1       0.137  20.921  18.171  1.00  0.00     0.219 C 
HETATM    4  O2  UNL     1      -0.807  20.812  17.354  1.00  0.00    -0.274 OA
ENDROOT
BRANCH   1   5
HETATM    5  C9  UNL     1      -0.468  18.681  19.147  1.00  0.00     0.124 C 
HETATM    6  C6  UNL     1       0.331  17.438  19.463  1.00  0.00     0.275 C 
HETATM    7  N2  UNL     1       0.335  17.332  20.907  1.00  0.00    -0.062 N 
HETATM    8  C7  UNL     1      -0.850  17.968  21.394  1.00  0.00     0.235 C 
ATOM      9  H22 UNL     1       0.432  16.371  21.234  1.00  0.00     0.278 HD
ATOM     10  H21 UNL     1       1.186  17.704  21.330  1.00  0.00     0.278 HD
HETATM   11  C8  UNL     1      -1.498  18.687  20.232  1.00  0.00     0.055 C 
BRANCH   6  12
HETATM   12  C5  UNL     1      -0.329  16.231  18.901  1.00  0.00     0.113 C 
HETATM   13  N1  UNL     1      -1.170  16.325  17.766  1.00  0.00    -0.315 N 
HETATM   14  C4  UNL     1      -1.817  15.168  17.209  1.00  0.00     0.225 C 
ATOM     15  H1  UNL     1      -1.321  17.236  17.333  1.00  0.00     0.170 HD
HETATM   16  C3  UNL     1      -1.874  13.954  18.060  1.00  0.00     0.127 C 
HETATM   17  O1  UNL     1      -2.317  15.147  16.067  1.00  0.00    -0.273 OA
HETATM   18  C2  UNL     1      -0.718  13.837  18.999  1.00  0.00     0.087 C 
HETATM   19  C1  UNL     1       0.350  13.008  18.319  1.00  0.00     0.032 C 
HETATM   20  N6  UNL     1      -0.151  15.071  19.433  1.00  0.00    -0.373 N 
ATOM     21  H6  UNL     1       0.460  15.031  20.248  1.00  0.00     0.161 HD
ENDBRANCH   6  12
ENDBRANCH   1   5
BRANCH   3  22
HETATM   22  C11 UNL     1       0.980  22.131  18.133  1.00  0.00     0.130 C 
BRANCH  22  23
HETATM   23  C12 UNL     1       2.335  21.843  18.692  1.00  0.00     0.247 C 
BRANCH  23  24
HETATM   24  N4  UNL     1       3.380  21.771  17.725  1.00  0.00    -0.062 N 
HETATM   25  C13 UNL     1       3.279  20.506  17.019  1.00  0.00     0.265 C 
HETATM   26  C14 UNL     1       4.361  20.379  15.971  1.00  0.00     0.265 C 
HETATM   27  N5  UNL     1       5.071  21.641  15.877  1.00  0.00    -0.062 N 
HETATM   28  C19 UNL     1       4.089  22.651  15.541  1.00  0.00     0.265 C 
HETATM   29  C21 UNL     1       5.693  21.888  17.154  1.00  0.00     0.265 C 
HETATM   30  C20 UNL     1       3.221  22.862  16.760  1.00  0.00     0.265 C 
HETATM   31  C22 UNL     1       4.701  21.910  18.292  1.00  0.00     0.265 C 
BRANCH  27  32
HETATM   32  C15 UNL     1       6.097  21.509  14.875  1.00  0.00     0.237 C 
BRANCH  32  33
HETATM   33  C16 UNL     1       6.683  20.138  14.790  1.00  0.00     0.030 C 
BRANCH  33  34
HETATM   34  C17 UNL     1       7.620  20.038  13.612  1.00  0.00     0.028 C 
BRANCH  34  35
HETATM   35  C18 UNL     1       7.081  20.630  12.349  1.00  0.00     0.164 C 
BRANCH  35  36
HETATM   36  O3  UNL     1       7.735  19.987  11.287  1.00  0.00    -0.401 OA
ATOM     37  H3  UNL     1       7.111  19.380  10.907  1.00  0.00     0.209 HD
ENDBRANCH  35  36
ENDBRANCH  34  35
ENDBRANCH  33  34
ENDBRANCH  32  33
ENDBRANCH  27  32
ENDBRANCH  23  24
ENDBRANCH  22  23
ENDBRANCH   3  22
TORSDOF 10
ENDMDL
MODEL 5
REMARK VINA RESULT: -6.608997211      0.867      1.439
REMARK  10 active torsions:
REMARK  status: ('A' for Active; 'I' for Inactive)
REMARK    1  A    between atoms: C5_8  and  C6_9 
REMARK    2  A    between atoms: C9_15  and  N3_16 
REMARK       I    between atoms: N3_16  and  C10_18 
REMARK    3  A    between atoms: C10_18  and  C11_20 
REMARK    4  A    between atoms: C11_20  and  C12_21 
REMARK    5  A    between atoms: C12_21  and  N4_22 
REMARK    6  A    between atoms: N5_25  and  C15_26 
REMARK    7  A    between atoms: C15_26  and  C16_27 
REMARK    8  A    between atoms: C16_27  and  C17_28 
REMARK    9  A    between atoms: C17_28  and  C18_29 
REMARK   10  A    between atoms: C18_29  and  O3_30 
ROOT
HETATM    1  N3  UNL     1       1.346  20.711  18.841  1.00  0.00    -0.354 N 
ATOM      2  H3  UNL     1       2.084  20.972  19.495  1.00  0.00     0.162 HD
HETATM    3  C10 UNL     1       1.257  21.420  17.614  1.00  0.00     0.219 C 
HETATM    4  O2  UNL     1       0.349  21.097  16.814  1.00  0.00    -0.274 OA
ENDROOT
BRANCH   1   5
HETATM    5  C9  UNL     1       0.460  19.648  19.214  1.00  0.00     0.124 C 
HETATM    6  C6  UNL     1       1.112  18.287  19.137  1.00  0.00     0.275 C 
HETATM    7  N2  UNL     1       1.707  18.064  20.439  1.00  0.00    -0.062 N 
HETATM    8  C7  UNL     1       0.952  18.812  21.396  1.00  0.00     0.235 C 
ATOM      9  H22 UNL     1       1.781  17.075  20.677  1.00  0.00     0.278 HD
ATOM     10  H21 UNL     1       2.703  18.283  20.462  1.00  0.00     0.278 HD
HETATM   11  C8  UNL     1      -0.004  19.703  20.636  1.00  0.00     0.055 C 
BRANCH   6  12
HETATM   12  C5  UNL     1       0.098  17.230  18.892  1.00  0.00     0.113 C 
HETATM   13  N1  UNL     1       0.145  16.001  19.594  1.00  0.00    -0.315 N 
HETATM   14  C4  UNL     1      -0.827  14.967  19.370  1.00  0.00     0.225 C 
ATOM     15  H1  UNL     1       0.887  15.847  20.277  1.00  0.00     0.170 HD
HETATM   16  C3  UNL     1      -1.648  15.071  18.138  1.00  0.00     0.127 C 
HETATM   17  O1  UNL     1      -1.001  14.011  20.151  1.00  0.00    -0.273 OA
HETATM   18  C2  UNL     1      -1.880  16.480  17.702  1.00  0.00     0.087 C 
HETATM   19  C1  UNL     1      -3.184  16.947  18.313  1.00  0.00     0.032 C 
HETATM   20  N6  UNL     1      -0.847  17.405  18.034  1.00  0.00    -0.373 N 
ATOM     21  H6  UNL     1      -0.858  18.299  17.543  1.00  0.00     0.161 HD
ENDBRANCH   6  12
ENDBRANCH   1   5
BRANCH   3  22
HETATM   22  C11 UNL     1       2.179  22.512  17.247  1.00  0.00     0.130 C 
BRANCH  22  23
HETATM   23  C12 UNL     1       3.595  22.043  17.300  1.00  0.00     0.247 C 
BRANCH  23  24
HETATM   24  N4  UNL     1       4.281  22.064  16.050  1.00  0.00    -0.062 N 
HETATM   25  C13 UNL     1       5.243  23.151  16.061  1.00  0.00     0.265 C 
HETATM   26  C14 UNL     1       6.008  23.216  14.759  1.00  0.00     0.265 C 
HETATM   27  N5  UNL     1       5.663  22.058  13.956  1.00  0.00    -0.062 N 
HETATM   28  C19 UNL     1       5.998  20.887  14.741  1.00  0.00     0.265 C 
HETATM   29  C21 UNL     1       4.253  22.134  13.665  1.00  0.00     0.265 C 
HETATM   30  C20 UNL     1       5.002  20.801  15.874  1.00  0.00     0.265 C 
HETATM   31  C22 UNL     1       3.403  22.201  14.912  1.00  0.00     0.265 C 
BRANCH  27  32
HETATM   32  C15 UNL     1       6.399  22.128  12.720  1.00  0.00     0.237 C 
BRANCH  32  33
HETATM   33  C16 UNL     1       6.636  20.799  12.083  1.00  0.00     0.030 C 
BRANCH  33  34
HETATM   34  C17 UNL     1       8.057  20.699  11.587  1.00  0.00     0.028 C 
BRANCH  34  35
HETATM   35  C18 UNL     1       9.067  20.475  12.665  1.00  0.00     0.164 C 
BRANCH  35  36
HETATM   36  O3  UNL     1       8.983  19.123  13.028  1.00  0.00    -0.401 OA
ATOM     37  H3  UNL     1       8.588  19.093  13.891  1.00  0.00     0.209 HD
ENDBRANCH  35  36
ENDBRANCH  34  35
ENDBRANCH  33  34
ENDBRANCH  32  33
ENDBRANCH  27  32
ENDBRANCH  23  24
ENDBRANCH  22  23
ENDBRANCH   3  22
TORSDOF 10
ENDMDL
