MODEL 1
REMARK VINA RESULT: -6.280540994      0.000      0.000
REMARK  10 active torsions:
REMARK  status: ('A' for Active; 'I' for Inactive)
REMARK    1  A    between atoms: C2_2  and  C3_3 
REMARK    2  A    between atoms: C3_3  and  C4_4 
REMARK    3  A    between atoms: C4_4  and  N1_5 
REMARK    4  A    between atoms: N1_5  and  C7_8 
REMARK    5  A    between atoms: C7_8  and  C8_9 
REMARK    6  A    between atoms: C8_9  and  C9_10 
REMARK    7  A    between atoms: C9_10  and  S1_11 
REMARK    8  A    between atoms: C14_17  and  C15_18 
REMARK       I    between atoms: C15_18  and  N2_20 
REMARK       I    between atoms: N2_20  and  C16_22 
REMARK    9  A    between atoms: C18_27  and  O4_28 
REMARK   10  A    between atoms: C19_30  and  O5_31 
ROOT
HETATM    1  S1  UNL     1      -0.776  21.686  17.716  1.00  0.00    -0.187 SA
HETATM    2  C10 UNL     1      -0.101  20.154  18.292  1.00  0.00     0.104 C 
HETATM    3  C11 UNL     1      -1.037  19.448  19.238  1.00  0.00     0.263 C 
HETATM    4  C12 UNL     1      -2.451  19.876  18.901  1.00  0.00     0.187 C 
HETATM    5  O1  UNL     1      -3.390  18.998  19.373  1.00  0.00    -0.378 OA
HETATM    6  C13 UNL     1      -3.326  17.752  18.793  1.00  0.00     0.214 C 
HETATM    7  C14 UNL     1      -1.907  17.392  18.312  1.00  0.00     0.338 C 
HETATM    8  N4  UNL     1      -0.990  18.015  19.197  1.00  0.00     0.108 N 
HETATM    9  C17 UNL     1       0.365  17.516  19.084  1.00  0.00     0.311 C 
HETATM   10  C18 UNL     1      -2.654  21.212  19.580  1.00  0.00     0.187 C 
HETATM   11  C19 UNL     1      -2.139  22.269  18.631  1.00  0.00     0.201 C 
ENDROOT
BRANCH   1  12
HETATM   12  C9  UNL     1       0.466  22.951  17.549  1.00  0.00     0.067 C 
BRANCH  12  13
HETATM   13  C8  UNL     1       1.451  22.621  16.465  1.00  0.00     0.037 C 
BRANCH  13  14
HETATM   14  C7  UNL     1       2.861  22.601  16.878  1.00  0.00     0.237 C 
BRANCH  14  15
HETATM   15  N1  UNL     1       3.532  21.351  17.059  1.00  0.00    -0.075 N 
HETATM   16  C5  UNL     1       3.508  20.896  18.404  1.00  0.00     0.272 C 
HETATM   17  C6  UNL     1       2.833  20.351  16.233  1.00  0.00     0.272 C 
BRANCH  15  18
HETATM   18  C4  UNL     1       4.851  21.511  16.505  1.00  0.00     0.236 C 
BRANCH  18  19
HETATM   19  C3  UNL     1       5.216  20.757  15.298  1.00  0.00     0.027 C 
BRANCH  19  20
HETATM   20  C2  UNL     1       6.520  20.004  15.339  1.00  0.00    -0.003 C 
HETATM   21  C1  UNL     1       7.220  20.130  13.994  1.00  0.00     0.005 C 
ENDBRANCH  19  20
ENDBRANCH  18  19
ENDBRANCH  15  18
ENDBRANCH  14  15
ENDBRANCH  13  14
ENDBRANCH  12  13
ENDBRANCH   1  12
BRANCH  11  22
HETATM   22  O5  UNL     1      -3.192  22.523  17.722  1.00  0.00    -0.383 OA
ATOM     23  H5  UNL     1      -3.761  21.762  17.717  1.00  0.00     0.211 HD
ENDBRANCH  11  22
BRANCH  10  24
HETATM   24  O4  UNL     1      -3.995  21.435  19.890  1.00  0.00    -0.390 OA
ATOM     25  H4  UNL     1      -4.381  22.093  19.324  1.00  0.00     0.210 HD
ENDBRANCH  10  24
BRANCH   7  26
HETATM   26  C15 UNL     1      -1.840  15.925  18.339  1.00  0.00     0.261 C 
HETATM   27  O2  UNL     1      -2.078  15.344  19.453  1.00  0.00    -0.271 OA
HETATM   28  N2  UNL     1      -1.530  15.104  17.233  1.00  0.00    -0.280 N 
HETATM   29  C16 UNL     1      -1.502  13.676  17.338  1.00  0.00     0.335 C 
ATOM     30  H2  UNL     1      -1.321  15.539  16.334  1.00  0.00     0.173 HD
HETATM   31  N3  UNL     1      -1.195  12.835  16.257  1.00  0.00    -0.040 NA
HETATM   32  O3  UNL     1      -1.766  13.176  18.454  1.00  0.00    -0.251 OA
ENDBRANCH   7  26
TORSDOF 10
ENDMDL
MODEL 2
REMARK VINA RESULT: -6.053011142      0.690      1.102
REMARK  10 active torsions:
REMARK  status: ('A' for Active; 'I' for Inactive)
REMARK    1  A    between atoms: C2_2  and  C3_3 
REMARK    2  A    between atoms: C3_3  and  C4_4 
REMARK    3  A    between atoms: C4_4  and  N1_5 
REMARK    4  A    between atoms: N1_5  and  C7_8 
REMARK    5  A    between atoms: C7_8  and  C8_9 
REMARK    6  A    between atoms: C8_9  and  C9_10 
REMARK    7  A    between atoms: C9_10  and  S1_11 
REMARK    8  A    between atoms: C14_17  and  C15_18 
REMARK       I    between atoms: C15_18  and  N2_20 
REMARK       I    between atoms: N2_20  and  C16_22 
REMARK    9  A    between atoms: C18_27  and  O4_28 
REMARK   10  A    between atoms: C19_30  and  O5_31 
ROOT
HETATM    1  S1  UNL     1      -0.325  21.611  17.758  1.00  0.00    -0.187 SA
HETATM    2  C10 UNL     1       0.225  20.053  18.392  1.00  0.00     0.104 C 
HETATM    3  C11 UNL     1      -0.817  19.402  19.264  1.00  0.00     0.263 C 
HETATM    4  C12 UNL     1      -2.177  19.897  18.816  1.00  0.00     0.187 C 
HETATM    5  O1  UNL     1      -3.193  19.071  19.217  1.00  0.00    -0.378 OA
HETATM    6  C13 UNL     1      -3.146  17.819  18.649  1.00  0.00     0.214 C 
HETATM    7  C14 UNL     1      -1.714  17.384  18.282  1.00  0.00     0.338 C 
HETATM    8  N4  UNL     1      -0.839  17.968  19.234  1.00  0.00     0.108 N 
HETATM    9  C17 UNL     1       0.494  17.402  19.230  1.00  0.00     0.311 C 
HETATM   10  C18 UNL     1      -2.365  21.247  19.470  1.00  0.00     0.187 C 
HETATM   11  C19 UNL     1      -1.725  22.269  18.560  1.00  0.00     0.201 C 
ENDROOT
BRANCH   1  12
HETATM   12  C9  UNL     1       0.988  22.811  17.683  1.00  0.00     0.067 C 
BRANCH  12  13
HETATM   13  C8  UNL     1       2.339  22.160  17.750  1.00  0.00     0.037 C 
BRANCH  13  14
HETATM   14  C7  UNL     1       2.996  21.934  16.455  1.00  0.00     0.237 C 
BRANCH  14  15
HETATM   15  N1  UNL     1       4.423  21.960  16.367  1.00  0.00    -0.075 N 
HETATM   16  C5  UNL     1       4.928  23.189  15.866  1.00  0.00     0.272 C 
HETATM   17  C6  UNL     1       4.953  21.777  17.730  1.00  0.00     0.272 C 
BRANCH  15  18
HETATM   18  C4  UNL     1       4.808  20.801  15.605  1.00  0.00     0.236 C 
BRANCH  18  19
HETATM   19  C3  UNL     1       6.210  20.364  15.626  1.00  0.00     0.027 C 
BRANCH  19  20
HETATM   20  C2  UNL     1       6.842  20.053  14.294  1.00  0.00    -0.003 C 
HETATM   21  C1  UNL     1       6.201  20.915  13.216  1.00  0.00     0.005 C 
ENDBRANCH  19  20
ENDBRANCH  18  19
ENDBRANCH  15  18
ENDBRANCH  14  15
ENDBRANCH  13  14
ENDBRANCH  12  13
ENDBRANCH   1  12
BRANCH  11  22
HETATM   22  O5  UNL     1      -2.689  22.568  17.569  1.00  0.00    -0.383 OA
ATOM     23  H5  UNL     1      -2.634  21.896  16.899  1.00  0.00     0.211 HD
ENDBRANCH  11  22
BRANCH  10  24
HETATM   24  O4  UNL     1      -3.713  21.539  19.673  1.00  0.00    -0.390 OA
ATOM     25  H4  UNL     1      -3.863  21.934  20.523  1.00  0.00     0.210 HD
ENDBRANCH  10  24
BRANCH   7  26
HETATM   26  C15 UNL     1      -1.723  15.916  18.321  1.00  0.00     0.261 C 
HETATM   27  O2  UNL     1      -2.015  15.357  19.434  1.00  0.00    -0.271 OA
HETATM   28  N2  UNL     1      -1.432  15.071  17.228  1.00  0.00    -0.280 N 
HETATM   29  C16 UNL     1      -1.480  13.644  17.344  1.00  0.00     0.335 C 
ATOM     30  H2  UNL     1      -1.181  15.488  16.331  1.00  0.00     0.173 HD
HETATM   31  N3  UNL     1      -1.194  12.780  16.277  1.00  0.00    -0.040 NA
HETATM   32  O3  UNL     1      -1.793  13.168  18.458  1.00  0.00    -0.251 OA
ENDBRANCH   7  26
TORSDOF 10
ENDMDL
MODEL 3
REMARK VINA RESULT: -6.043040975      2.733      3.472
REMARK  10 active torsions:
REMARK  status: ('A' for Active; 'I' for Inactive)
REMARK    1  A    between atoms: C2_2  and  C3_3 
REMARK    2  A    between atoms: C3_3  and  C4_4 
REMARK    3  A    between atoms: C4_4  and  N1_5 
REMARK    4  A    between atoms: N1_5  and  C7_8 
REMARK    5  A    between atoms: C7_8  and  C8_9 
REMARK    6  A    between atoms: C8_9  and  C9_10 
REMARK    7  A    between atoms: C9_10  and  S1_11 
REMARK    8  A    between atoms: C14_17  and  C15_18 
REMARK       I    between atoms: C15_18  and  N2_20 
REMARK       I    between atoms: N2_20  and  C16_22 
REMARK    9  A    between atoms: C18_27  and  O4_28 
REMARK   10  A    between atoms: C19_30  and  O5_31 
ROOT
HETATM    1  S1  UNL     1      -0.265  21.043  21.575  1.00  0.00    -0.187 SA
HETATM    2  C10 UNL     1       0.178  20.080  20.158  1.00  0.00     0.104 C 
HETATM    3  C11 UNL     1       0.260  18.610  20.481  1.00  0.00     0.263 C 
HETATM    4  C12 UNL     1      -0.663  18.337  21.651  1.00  0.00     0.187 C 
HETATM    5  O1  UNL     1      -1.006  17.015  21.749  1.00  0.00    -0.378 OA
HETATM    6  C13 UNL     1      -1.751  16.555  20.688  1.00  0.00     0.214 C 
HETATM    7  C14 UNL     1      -1.467  17.325  19.383  1.00  0.00     0.338 C 
HETATM    8  N4  UNL     1      -0.106  17.723  19.415  1.00  0.00     0.108 N 
HETATM    9  C17 UNL     1       0.405  18.166  18.135  1.00  0.00     0.311 C 
HETATM   10  C18 UNL     1       0.110  18.729  22.891  1.00  0.00     0.187 C 
HETATM   11  C19 UNL     1      -0.114  20.209  23.097  1.00  0.00     0.201 C 
ENDROOT
BRANCH   1  12
HETATM   12  C9  UNL     1       0.583  22.608  21.620  1.00  0.00     0.067 C 
BRANCH  12  13
HETATM   13  C8  UNL     1       1.683  22.671  20.601  1.00  0.00     0.037 C 
BRANCH  13  14
HETATM   14  C7  UNL     1       3.033  22.388  21.110  1.00  0.00     0.237 C 
BRANCH  14  15
HETATM   15  N1  UNL     1       3.898  21.511  20.384  1.00  0.00    -0.075 N 
HETATM   16  C5  UNL     1       5.251  21.941  20.381  1.00  0.00     0.272 C 
HETATM   17  C6  UNL     1       3.844  20.194  21.041  1.00  0.00     0.272 C 
BRANCH  15  18
HETATM   18  C4  UNL     1       3.318  21.355  19.075  1.00  0.00     0.236 C 
BRANCH  18  19
HETATM   19  C3  UNL     1       4.186  21.440  17.894  1.00  0.00     0.027 C 
BRANCH  19  20
HETATM   20  C2  UNL     1       3.779  20.623  16.695  1.00  0.00    -0.003 C 
HETATM   21  C1  UNL     1       4.969  20.470  15.759  1.00  0.00     0.005 C 
ENDBRANCH  19  20
ENDBRANCH  18  19
ENDBRANCH  15  18
ENDBRANCH  14  15
ENDBRANCH  13  14
ENDBRANCH  12  13
ENDBRANCH   1  12
BRANCH  11  22
HETATM   22  O5  UNL     1      -1.348  20.326  23.778  1.00  0.00    -0.383 OA
ATOM     23  H5  UNL     1      -1.365  19.668  24.463  1.00  0.00     0.211 HD
ENDBRANCH  11  22
BRANCH  10  24
HETATM   24  O4  UNL     1      -0.304  18.005  24.007  1.00  0.00    -0.390 OA
ATOM     25  H4  UNL     1      -0.049  18.431  24.817  1.00  0.00     0.210 HD
ENDBRANCH  10  24
BRANCH   7  26
HETATM   26  C15 UNL     1      -1.777  16.388  18.295  1.00  0.00     0.261 C 
HETATM   27  O2  UNL     1      -2.607  16.775  17.403  1.00  0.00    -0.271 OA
HETATM   28  N2  UNL     1      -1.233  15.093  18.157  1.00  0.00    -0.280 N 
HETATM   29  C16 UNL     1      -1.573  14.246  17.053  1.00  0.00     0.335 C 
ATOM     30  H2  UNL     1      -0.579  14.751  18.861  1.00  0.00     0.173 HD
HETATM   31  N3  UNL     1      -1.051  12.954  16.891  1.00  0.00    -0.040 NA
HETATM   32  O3  UNL     1      -2.376  14.699  16.208  1.00  0.00    -0.251 OA
ENDBRANCH   7  26
TORSDOF 10
ENDMDL
MODEL 4
REMARK VINA RESULT: -6.042332855      2.597      4.583
REMARK  10 active torsions:
REMARK  status: ('A' for Active; 'I' for Inactive)
REMARK    1  A    between atoms: C2_2  and  C3_3 
REMARK    2  A    between atoms: C3_3  and  C4_4 
REMARK    3  A    between atoms: C4_4  and  N1_5 
REMARK    4  A    between atoms: N1_5  and  C7_8 
REMARK    5  A    between atoms: C7_8  and  C8_9 
REMARK    6  A    between atoms: C8_9  and  C9_10 
REMARK    7  A    between atoms: C9_10  and  S1_11 
REMARK    8  A    between atoms: C14_17  and  C15_18 
REMARK       I    between atoms: C15_18  and  N2_20 
REMARK       I    between atoms: N2_20  and  C16_22 
REMARK    9  A    between atoms: C18_27  and  O4_28 
REMARK   10  A    between atoms: C19_30  and  O5_31 
ROOT
HETATM    1  S1  UNL     1       0.912  19.307  19.666  1.00  0.00    -0.187 SA
HETATM    2  C10 UNL     1      -0.132  19.866  18.350  1.00  0.00     0.104 C 
HETATM    3  C11 UNL     1      -1.148  18.825  17.958  1.00  0.00     0.263 C 
HETATM    4  C12 UNL     1      -1.412  17.951  19.168  1.00  0.00     0.187 C 
HETATM    5  O1  UNL     1      -2.600  17.276  19.076  1.00  0.00    -0.378 OA
HETATM    6  C13 UNL     1      -3.705  18.096  19.073  1.00  0.00     0.214 C 
HETATM    7  C14 UNL     1      -3.408  19.492  18.494  1.00  0.00     0.338 C 
HETATM    8  N4  UNL     1      -2.408  19.334  17.500  1.00  0.00     0.108 N 
HETATM    9  C17 UNL     1      -2.250  20.487  16.639  1.00  0.00     0.311 C 
HETATM   10  C18 UNL     1      -0.285  16.943  19.207  1.00  0.00     0.187 C 
HETATM   11  C19 UNL     1       0.855  17.590  19.959  1.00  0.00     0.201 C 
ENDROOT
BRANCH   1  12
HETATM   12  C9  UNL     1       2.593  19.864  19.478  1.00  0.00     0.067 C 
BRANCH  12  13
HETATM   13  C8  UNL     1       2.861  20.356  18.086  1.00  0.00     0.037 C 
BRANCH  13  14
HETATM   14  C7  UNL     1       3.494  21.679  17.994  1.00  0.00     0.237 C 
BRANCH  14  15
HETATM   15  N1  UNL     1       4.538  21.904  17.042  1.00  0.00    -0.075 N 
HETATM   16  C5  UNL     1       4.323  23.058  16.243  1.00  0.00     0.272 C 
HETATM   17  C6  UNL     1       5.787  22.105  17.796  1.00  0.00     0.272 C 
BRANCH  15  18
HETATM   18  C4  UNL     1       4.684  20.680  16.298  1.00  0.00     0.236 C 
BRANCH  18  19
HETATM   19  C3  UNL     1       5.393  20.706  15.012  1.00  0.00     0.027 C 
BRANCH  19  20
HETATM   20  C2  UNL     1       6.680  19.926  14.934  1.00  0.00    -0.003 C 
HETATM   21  C1  UNL     1       7.391  20.252  13.628  1.00  0.00     0.005 C 
ENDBRANCH  19  20
ENDBRANCH  18  19
ENDBRANCH  15  18
ENDBRANCH  14  15
ENDBRANCH  13  14
ENDBRANCH  12  13
ENDBRANCH   1  12
BRANCH  11  22
HETATM   22  O5  UNL     1       0.577  17.396  21.332  1.00  0.00    -0.383 OA
ATOM     23  H5  UNL     1       1.287  17.784  21.829  1.00  0.00     0.211 HD
ENDBRANCH  11  22
BRANCH  10  24
HETATM   24  O4  UNL     1      -0.676  15.757  19.825  1.00  0.00    -0.390 OA
ATOM     25  H4  UNL     1       0.064  15.181  19.979  1.00  0.00     0.210 HD
ENDBRANCH  10  24
BRANCH   7  26
HETATM   26  C15 UNL     1      -4.688  19.981  17.963  1.00  0.00     0.261 C 
HETATM   27  O2  UNL     1      -5.010  21.191  18.223  1.00  0.00    -0.271 OA
HETATM   28  N2  UNL     1      -5.591  19.221  17.190  1.00  0.00    -0.280 N 
HETATM   29  C16 UNL     1      -6.814  19.779  16.693  1.00  0.00     0.335 C 
ATOM     30  H2  UNL     1      -5.368  18.248  16.979  1.00  0.00     0.173 HD
HETATM   31  N3  UNL     1      -7.732  19.047  15.925  1.00  0.00    -0.040 NA
HETATM   32  O3  UNL     1      -7.054  20.975  16.970  1.00  0.00    -0.251 OA
ENDBRANCH   7  26
TORSDOF 10
ENDMDL
MODEL 5
REMARK VINA RESULT: -6.026234885      1.011      1.328
REMARK  10 active torsions:
REMARK  status: ('A' for Active; 'I' for Inactive)
REMARK    1  A    between atoms: C2_2  and  C3_3 
REMARK    2  A    between atoms: C3_3  and  C4_4 
REMARK    3  A    between atoms: C4_4  and  N1_5 
REMARK    4  A    between atoms: N1_5  and  C7_8 
REMARK    5  A    between atoms: C7_8  and  C8_9 
REMARK    6  A    between atoms: C8_9  and  C9_10 
REMARK    7  A    between atoms: C9_10  and  S1_11 
REMARK    8  A    between atoms: C14_17  and  C15_18 
REMARK       I    between atoms: C15_18  and  N2_20 
REMARK       I    between atoms: N2_20  and  C16_22 
REMARK    9  A    between atoms: C18_27  and  O4_28 
REMARK   10  A    between atoms: C19_30  and  O5_31 
ROOT
HETATM    1  S1  UNL     1      -0.015  21.436  18.698  1.00  0.00    -0.187 SA
HETATM    2  C10 UNL     1       0.404  19.803  19.239  1.00  0.00     0.104 C 
HETATM    3  C11 UNL     1      -0.765  19.111  19.892  1.00  0.00     0.263 C 
HETATM    4  C12 UNL     1      -2.037  19.700  19.317  1.00  0.00     0.187 C 
HETATM    5  O1  UNL     1      -3.119  18.878  19.491  1.00  0.00    -0.378 OA
HETATM    6  C13 UNL     1      -3.025  17.686  18.810  1.00  0.00     0.214 C 
HETATM    7  C14 UNL     1      -1.568  17.235  18.598  1.00  0.00     0.338 C 
HETATM    8  N4  UNL     1      -0.818  17.689  19.713  1.00  0.00     0.108 N 
HETATM    9  C17 UNL     1       0.488  17.075  19.831  1.00  0.00     0.311 C 
HETATM   10  C18 UNL     1      -2.280  20.986  20.075  1.00  0.00     0.187 C 
HETATM   11  C19 UNL     1      -1.495  22.066  19.367  1.00  0.00     0.201 C 
ENDROOT
BRANCH   1  12
HETATM   12  C9  UNL     1       1.325  22.586  18.924  1.00  0.00     0.067 C 
BRANCH  12  13
HETATM   13  C8  UNL     1       2.275  22.566  17.761  1.00  0.00     0.037 C 
BRANCH  13  14
HETATM   14  C7  UNL     1       3.452  21.701  17.922  1.00  0.00     0.237 C 
BRANCH  14  15
HETATM   15  N1  UNL     1       4.761  22.276  17.935  1.00  0.00    -0.075 N 
HETATM   16  C5  UNL     1       4.757  23.674  17.686  1.00  0.00     0.272 C 
HETATM   17  C6  UNL     1       5.325  22.059  19.278  1.00  0.00     0.272 C 
BRANCH  15  18
HETATM   18  C4  UNL     1       5.556  21.507  17.013  1.00  0.00     0.236 C 
BRANCH  18  19
HETATM   19  C3  UNL     1       4.882  20.730  15.965  1.00  0.00     0.027 C 
BRANCH  19  20
HETATM   20  C2  UNL     1       5.529  20.724  14.604  1.00  0.00    -0.003 C 
HETATM   21  C1  UNL     1       6.855  19.983  14.677  1.00  0.00     0.005 C 
ENDBRANCH  19  20
ENDBRANCH  18  19
ENDBRANCH  15  18
ENDBRANCH  14  15
ENDBRANCH  13  14
ENDBRANCH  12  13
ENDBRANCH   1  12
BRANCH  11  22
HETATM   22  O5  UNL     1      -2.306  22.497  18.292  1.00  0.00    -0.383 OA
ATOM     23  H5  UNL     1      -3.212  22.353  18.537  1.00  0.00     0.211 HD
ENDBRANCH  11  22
BRANCH  10  24
HETATM   24  O4  UNL     1      -3.635  21.308  20.122  1.00  0.00    -0.390 OA
ATOM     25  H4  UNL     1      -3.786  22.223  19.915  1.00  0.00     0.210 HD
ENDBRANCH  10  24
BRANCH   7  26
HETATM   26  C15 UNL     1      -1.619  15.771  18.485  1.00  0.00     0.261 C 
HETATM   27  O2  UNL     1      -1.885  15.107  19.545  1.00  0.00    -0.271 OA
HETATM   28  N2  UNL     1      -1.394  15.038  17.300  1.00  0.00    -0.280 N 
HETATM   29  C16 UNL     1      -1.479  13.608  17.270  1.00  0.00     0.335 C 
ATOM     30  H2  UNL     1      -1.164  15.539  16.442  1.00  0.00     0.173 HD
HETATM   31  N3  UNL     1      -1.259  12.853  16.108  1.00  0.00    -0.040 NA
HETATM   32  O3  UNL     1      -1.765  13.027  18.340  1.00  0.00    -0.251 OA
ENDBRANCH   7  26
TORSDOF 10
ENDMDL
