MODEL 1
REMARK VINA RESULT: -7.456095007      0.000      0.000
REMARK  7 active torsions:
REMARK  status: ('A' for Active; 'I' for Inactive)
REMARK       I    between atoms: C1_4  and  N3_6 
REMARK    1  A    between atoms: N3_6  and  N4_8 
REMARK    2  A    between atoms: N4_8  and  C2_10 
REMARK    3  A    between atoms: C5_16  and  C6_17 
REMARK    4  A    between atoms: C6_17  and  O2_18 
REMARK    5  A    between atoms: O2_18  and  C7_19 
REMARK    6  A    between atoms: C9_23  and  N6_24 
REMARK    7  A    between atoms: C10_28  and  N7_29 
ROOT
HETATM    1  C2  UNL     1      73.465  43.100  53.038  1.00  0.00     0.193 A 
HETATM    2  O1  UNL     1      72.675  42.834  54.064  1.00  0.00    -0.218 OA
HETATM    3  N5  UNL     1      71.487  43.247  53.828  1.00  0.00    -0.260 N 
ATOM      4  H5  UNL     1      70.701  43.157  54.471  1.00  0.00     0.194 HD
HETATM    5  C3  UNL     1      71.424  43.824  52.600  1.00  0.00     0.068 A 
HETATM    6  C4  UNL     1      72.704  43.722  52.106  1.00  0.00     0.032 A 
HETATM    7  C5  UNL     1      72.928  44.289  50.753  1.00  0.00     0.086 C 
HETATM    8  C8  UNL     1      72.261  45.592  50.670  1.00  0.00     0.213 C 
HETATM    9  F1  UNL     1      72.400  46.200  49.416  1.00  0.00    -0.246 F 
HETATM   10  C9  UNL     1      70.765  45.515  50.957  1.00  0.00     0.246 C 
HETATM   11  C10 UNL     1      70.321  44.439  51.840  1.00  0.00     0.167 C 
ENDROOT
BRANCH   1  12
HETATM   12  N4  UNL     1      74.861  42.779  52.954  1.00  0.00    -0.275 N 
ATOM     13  H4  UNL     1      75.548  43.529  53.039  1.00  0.00     0.189 HD
BRANCH  12  14
HETATM   14  N3  UNL     1      75.309  41.462  52.758  1.00  0.00    -0.272 N 
HETATM   15  C1  UNL     1      74.625  40.338  53.233  1.00  0.00     0.200 C 
HETATM   16  N1  UNL     1      74.535  40.100  54.503  1.00  0.00    -0.372 N 
HETATM   17  N2  UNL     1      73.997  39.401  52.371  1.00  0.00    -0.062 NA
ATOM     18  H12 UNL     1      74.037  39.281  54.850  1.00  0.00     0.158 HD
ATOM     19  H11 UNL     1      74.987  40.773  55.122  1.00  0.00     0.158 HD
ATOM     20  H3  UNL     1      76.177  41.319  52.242  1.00  0.00     0.189 HD
ENDBRANCH  12  14
ENDBRANCH   1  12
BRANCH   7  21
HETATM   21  C6  UNL     1      74.315  44.267  50.253  1.00  0.00     0.190 C 
BRANCH  21  22
HETATM   22  O2  UNL     1      74.928  43.123  49.926  1.00  0.00    -0.328 OA
BRANCH  22  23
HETATM   23  C7  UNL     1      74.752  42.018  49.202  1.00  0.00     0.398 C 
HETATM   24  O3  UNL     1      75.106  41.908  48.032  1.00  0.00    -0.276 OA
ENDBRANCH  22  23
ENDBRANCH  21  22
ENDBRANCH   7  21
BRANCH  11  25
HETATM   25  N7  UNL     1      69.437  45.009  52.861  1.00  0.00    -0.378 N 
HETATM   26  C11 UNL     1      68.439  44.416  53.339  1.00  0.00     0.169 C 
HETATM   27 CL1  UNL     1      67.476  45.223  54.550  1.00  0.00    -0.079 Cl
ATOM     28  H7  UNL     1      69.646  45.945  53.206  1.00  0.00     0.160 HD
ENDBRANCH  11  25
BRANCH  10  29
HETATM   29  N6  UNL     1      70.307  46.801  51.423  1.00  0.00    -0.070 N 
ATOM     30  H63 UNL     1      69.687  47.257  50.755  1.00  0.00     0.274 HD
ATOM     31  H62 UNL     1      69.649  46.720  52.198  1.00  0.00     0.274 HD
ATOM     32  H61 UNL     1      71.115  47.377  51.660  1.00  0.00     0.274 HD
ENDBRANCH  10  29
TORSDOF 7
ENDMDL
MODEL 2
REMARK VINA RESULT: -7.241407609      2.685      4.930
REMARK  7 active torsions:
REMARK  status: ('A' for Active; 'I' for Inactive)
REMARK       I    between atoms: C1_4  and  N3_6 
REMARK    1  A    between atoms: N3_6  and  N4_8 
REMARK    2  A    between atoms: N4_8  and  C2_10 
REMARK    3  A    between atoms: C5_16  and  C6_17 
REMARK    4  A    between atoms: C6_17  and  O2_18 
REMARK    5  A    between atoms: O2_18  and  C7_19 
REMARK    6  A    between atoms: C9_23  and  N6_24 
REMARK    7  A    between atoms: C10_28  and  N7_29 
ROOT
HETATM    1  C2  UNL     1      72.190  46.354  49.873  1.00  0.00     0.193 A 
HETATM    2  O1  UNL     1      71.024  46.974  49.931  1.00  0.00    -0.218 OA
HETATM    3  N5  UNL     1      70.430  46.699  51.031  1.00  0.00    -0.260 N 
ATOM      4  H5  UNL     1      69.516  47.058  51.305  1.00  0.00     0.194 HD
HETATM    5  C3  UNL     1      71.191  45.861  51.781  1.00  0.00     0.068 A 
HETATM    6  C4  UNL     1      72.319  45.648  51.021  1.00  0.00     0.032 A 
HETATM    7  C5  UNL     1      73.340  44.746  51.609  1.00  0.00     0.086 C 
HETATM    8  C8  UNL     1      72.666  43.576  52.180  1.00  0.00     0.213 C 
HETATM    9  F1  UNL     1      73.551  42.671  52.780  1.00  0.00    -0.246 F 
HETATM   10  C9  UNL     1      71.630  43.943  53.239  1.00  0.00     0.246 C 
HETATM   11  C10 UNL     1      70.998  45.254  53.110  1.00  0.00     0.167 C 
ENDROOT
BRANCH   1  12
HETATM   12  N4  UNL     1      73.123  46.432  48.786  1.00  0.00    -0.275 N 
ATOM     13  H4  UNL     1      73.175  45.660  48.121  1.00  0.00     0.189 HD
BRANCH  12  14
HETATM   14  N3  UNL     1      73.968  47.541  48.612  1.00  0.00    -0.272 N 
HETATM   15  C1  UNL     1      73.768  48.769  49.253  1.00  0.00     0.200 C 
HETATM   16  N1  UNL     1      72.754  49.517  48.958  1.00  0.00    -0.372 N 
HETATM   17  N2  UNL     1      74.648  49.266  50.250  1.00  0.00    -0.062 NA
ATOM     18  H12 UNL     1      72.608  50.412  49.424  1.00  0.00     0.158 HD
ATOM     19  H11 UNL     1      72.121  49.160  48.241  1.00  0.00     0.158 HD
ATOM     20  H3  UNL     1      74.769  47.446  47.987  1.00  0.00     0.189 HD
ENDBRANCH  12  14
ENDBRANCH   1  12
BRANCH   7  21
HETATM   21  C6  UNL     1      74.509  44.439  50.764  1.00  0.00     0.190 C 
BRANCH  21  22
HETATM   22  O2  UNL     1      74.429  43.594  49.730  1.00  0.00    -0.328 OA
BRANCH  22  23
HETATM   23  C7  UNL     1      74.757  42.353  49.372  1.00  0.00     0.398 C 
HETATM   24  O3  UNL     1      75.112  42.043  48.239  1.00  0.00    -0.276 OA
ENDBRANCH  22  23
ENDBRANCH  21  22
ENDBRANCH   7  21
BRANCH  11  25
HETATM   25  N7  UNL     1      69.546  45.085  53.234  1.00  0.00    -0.378 N 
HETATM   26  C11 UNL     1      68.830  45.725  54.042  1.00  0.00     0.169 C 
HETATM   27 CL1  UNL     1      67.113  45.415  54.079  1.00  0.00    -0.079 Cl
ATOM     28  H7  UNL     1      69.091  44.405  52.626  1.00  0.00     0.160 HD
ENDBRANCH  11  25
BRANCH  10  29
HETATM   29  N6  UNL     1      70.648  42.891  53.323  1.00  0.00    -0.070 N 
ATOM     30  H63 UNL     1      70.272  42.638  52.409  1.00  0.00     0.274 HD
ATOM     31  H62 UNL     1      71.064  41.991  53.561  1.00  0.00     0.274 HD
ATOM     32  H61 UNL     1      69.918  43.167  53.980  1.00  0.00     0.274 HD
ENDBRANCH  10  29
TORSDOF 7
ENDMDL
MODEL 3
REMARK VINA RESULT: -6.912932934      2.933      4.464
REMARK  7 active torsions:
REMARK  status: ('A' for Active; 'I' for Inactive)
REMARK       I    between atoms: C1_4  and  N3_6 
REMARK    1  A    between atoms: N3_6  and  N4_8 
REMARK    2  A    between atoms: N4_8  and  C2_10 
REMARK    3  A    between atoms: C5_16  and  C6_17 
REMARK    4  A    between atoms: C6_17  and  O2_18 
REMARK    5  A    between atoms: O2_18  and  C7_19 
REMARK    6  A    between atoms: C9_23  and  N6_24 
REMARK    7  A    between atoms: C10_28  and  N7_29 
ROOT
HETATM    1  C2  UNL     1      74.865  42.493  50.030  1.00  0.00     0.193 A 
HETATM    2  O1  UNL     1      74.615  43.257  48.981  1.00  0.00    -0.218 OA
HETATM    3  N5  UNL     1      74.192  44.404  49.358  1.00  0.00    -0.260 N 
ATOM      4  H5  UNL     1      73.931  45.164  48.729  1.00  0.00     0.194 HD
HETATM    5  C3  UNL     1      74.138  44.465  50.714  1.00  0.00     0.068 A 
HETATM    6  C4  UNL     1      74.574  43.228  51.130  1.00  0.00     0.032 A 
HETATM    7  C5  UNL     1      74.612  43.010  52.598  1.00  0.00     0.086 C 
HETATM    8  C8  UNL     1      73.378  43.539  53.187  1.00  0.00     0.213 C 
HETATM    9  F1  UNL     1      73.330  43.397  54.579  1.00  0.00    -0.246 F 
HETATM   10  C9  UNL     1      73.161  45.019  52.889  1.00  0.00     0.246 C 
HETATM   11  C10 UNL     1      73.747  45.531  51.652  1.00  0.00     0.167 C 
ENDROOT
BRANCH   1  12
HETATM   12  N4  UNL     1      75.354  41.145  49.984  1.00  0.00    -0.275 N 
ATOM     13  H4  UNL     1      76.341  40.969  50.171  1.00  0.00     0.189 HD
BRANCH  12  14
HETATM   14  N3  UNL     1      74.510  40.061  49.689  1.00  0.00    -0.272 N 
HETATM   15  C1  UNL     1      73.524  39.592  50.565  1.00  0.00     0.200 C 
HETATM   16  N1  UNL     1      73.842  39.020  51.681  1.00  0.00    -0.372 N 
HETATM   17  N2  UNL     1      72.136  39.712  50.290  1.00  0.00    -0.062 NA
ATOM     18  H12 UNL     1      73.123  38.678  52.319  1.00  0.00     0.158 HD
ATOM     19  H11 UNL     1      74.839  38.933  51.879  1.00  0.00     0.158 HD
ATOM     20  H3  UNL     1      74.623  39.591  48.791  1.00  0.00     0.189 HD
ENDBRANCH  12  14
ENDBRANCH   1  12
BRANCH   7  21
HETATM   21  C6  UNL     1      74.990  41.659  53.052  1.00  0.00     0.190 C 
BRANCH  21  22
HETATM   22  O2  UNL     1      74.214  40.952  53.882  1.00  0.00    -0.328 OA
BRANCH  22  23
HETATM   23  C7  UNL     1      74.249  40.320  55.054  1.00  0.00     0.398 C 
HETATM   24  O3  UNL     1      75.052  39.433  55.325  1.00  0.00    -0.276 OA
ENDBRANCH  22  23
ENDBRANCH  21  22
ENDBRANCH   7  21
BRANCH  11  25
HETATM   25  N7  UNL     1      72.724  46.300  50.936  1.00  0.00    -0.378 N 
HETATM   26  C11 UNL     1      72.939  47.395  50.362  1.00  0.00     0.169 C 
HETATM   27 CL1  UNL     1      71.620  48.198  49.549  1.00  0.00    -0.079 Cl
ATOM     28  H7  UNL     1      71.778  45.921  50.902  1.00  0.00     0.160 HD
ENDBRANCH  11  25
BRANCH  10  29
HETATM   29  N6  UNL     1      71.752  45.315  52.966  1.00  0.00    -0.070 N 
ATOM     30  H63 UNL     1      71.174  44.520  52.696  1.00  0.00     0.274 HD
ATOM     31  H62 UNL     1      71.428  45.408  53.929  1.00  0.00     0.274 HD
ATOM     32  H61 UNL     1      71.554  46.146  52.409  1.00  0.00     0.274 HD
ENDBRANCH  10  29
TORSDOF 7
ENDMDL
MODEL 4
REMARK VINA RESULT: -6.806860987      2.052      2.439
REMARK  7 active torsions:
REMARK  status: ('A' for Active; 'I' for Inactive)
REMARK       I    between atoms: C1_4  and  N3_6 
REMARK    1  A    between atoms: N3_6  and  N4_8 
REMARK    2  A    between atoms: N4_8  and  C2_10 
REMARK    3  A    between atoms: C5_16  and  C6_17 
REMARK    4  A    between atoms: C6_17  and  O2_18 
REMARK    5  A    between atoms: O2_18  and  C7_19 
REMARK    6  A    between atoms: C9_23  and  N6_24 
REMARK    7  A    between atoms: C10_28  and  N7_29 
ROOT
HETATM    1  C2  UNL     1      73.778  41.926  53.666  1.00  0.00     0.193 A 
HETATM    2  O1  UNL     1      72.941  42.293  54.621  1.00  0.00    -0.218 OA
HETATM    3  N5  UNL     1      72.112  43.161  54.176  1.00  0.00    -0.260 N 
ATOM      4  H5  UNL     1      71.371  43.595  54.726  1.00  0.00     0.194 HD
HETATM    5  C3  UNL     1      72.362  43.423  52.866  1.00  0.00     0.068 A 
HETATM    6  C4  UNL     1      73.436  42.621  52.555  1.00  0.00     0.032 A 
HETATM    7  C5  UNL     1      73.934  42.711  51.159  1.00  0.00     0.086 C 
HETATM    8  C8  UNL     1      73.993  44.122  50.768  1.00  0.00     0.213 C 
HETATM    9  F1  UNL     1      74.434  44.309  49.452  1.00  0.00    -0.246 F 
HETATM   10  C9  UNL     1      72.647  44.831  50.883  1.00  0.00     0.246 C 
HETATM   11  C10 UNL     1      71.717  44.311  51.883  1.00  0.00     0.167 C 
ENDROOT
BRANCH   1  12
HETATM   12  N4  UNL     1      74.838  40.970  53.807  1.00  0.00    -0.275 N 
ATOM     13  H4  UNL     1      75.759  41.192  53.430  1.00  0.00     0.189 HD
BRANCH  12  14
HETATM   14  N3  UNL     1      74.643  39.736  54.450  1.00  0.00    -0.272 N 
HETATM   15  C1  UNL     1      74.693  39.575  55.839  1.00  0.00     0.200 C 
HETATM   16  N1  UNL     1      75.804  39.718  56.487  1.00  0.00    -0.372 N 
HETATM   17  N2  UNL     1      73.549  39.251  56.615  1.00  0.00    -0.062 NA
ATOM     18  H12 UNL     1      75.841  39.601  57.499  1.00  0.00     0.158 HD
ATOM     19  H11 UNL     1      76.627  39.950  55.930  1.00  0.00     0.158 HD
ATOM     20  H3  UNL     1      74.455  38.915  53.874  1.00  0.00     0.189 HD
ENDBRANCH  12  14
ENDBRANCH   1  12
BRANCH   7  21
HETATM   21  C6  UNL     1      75.140  41.925  50.840  1.00  0.00     0.190 C 
BRANCH  21  22
HETATM   22  O2  UNL     1      75.074  40.622  50.541  1.00  0.00    -0.328 OA
BRANCH  22  23
HETATM   23  C7  UNL     1      74.240  39.584  50.589  1.00  0.00     0.398 C 
HETATM   24  O3  UNL     1      73.932  39.006  51.626  1.00  0.00    -0.276 OA
ENDBRANCH  22  23
ENDBRANCH  21  22
ENDBRANCH   7  21
BRANCH  11  25
HETATM   25  N7  UNL     1      71.208  45.435  52.675  1.00  0.00    -0.378 N 
HETATM   26  C11 UNL     1      69.990  45.656  52.883  1.00  0.00     0.169 C 
HETATM   27 CL1  UNL     1      69.533  47.037  53.846  1.00  0.00    -0.079 Cl
ATOM     28  H7  UNL     1      71.886  46.078  53.082  1.00  0.00     0.160 HD
ENDBRANCH  11  25
BRANCH  10  29
HETATM   29  N6  UNL     1      72.871  46.244  51.057  1.00  0.00    -0.070 N 
ATOM     30  H63 UNL     1      73.470  46.634  50.330  1.00  0.00     0.274 HD
ATOM     31  H62 UNL     1      72.034  46.796  50.865  1.00  0.00     0.274 HD
ATOM     32  H61 UNL     1      73.238  46.412  51.994  1.00  0.00     0.274 HD
ENDBRANCH  10  29
TORSDOF 7
ENDMDL
MODEL 5
REMARK VINA RESULT: -6.692801138      3.694      5.438
REMARK  7 active torsions:
REMARK  status: ('A' for Active; 'I' for Inactive)
REMARK       I    between atoms: C1_4  and  N3_6 
REMARK    1  A    between atoms: N3_6  and  N4_8 
REMARK    2  A    between atoms: N4_8  and  C2_10 
REMARK    3  A    between atoms: C5_16  and  C6_17 
REMARK    4  A    between atoms: C6_17  and  O2_18 
REMARK    5  A    between atoms: O2_18  and  C7_19 
REMARK    6  A    between atoms: C9_23  and  N6_24 
REMARK    7  A    between atoms: C10_28  and  N7_29 
ROOT
HETATM    1  C2  UNL     1      71.347  46.072  50.595  1.00  0.00     0.193 A 
HETATM    2  O1  UNL     1      70.402  46.971  50.806  1.00  0.00    -0.218 OA
HETATM    3  N5  UNL     1      70.729  48.091  50.281  1.00  0.00    -0.260 N 
ATOM      4  H5  UNL     1      70.161  48.937  50.313  1.00  0.00     0.194 HD
HETATM    5  C3  UNL     1      71.941  47.991  49.676  1.00  0.00     0.068 A 
HETATM    6  C4  UNL     1      72.324  46.687  49.888  1.00  0.00     0.032 A 
HETATM    7  C5  UNL     1      73.641  46.295  49.326  1.00  0.00     0.086 C 
HETATM    8  C8  UNL     1      74.613  47.354  49.617  1.00  0.00     0.213 C 
HETATM    9  F1  UNL     1      75.889  47.083  49.106  1.00  0.00    -0.246 F 
HETATM   10  C9  UNL     1      74.199  48.713  49.062  1.00  0.00     0.246 C 
HETATM   11  C10 UNL     1      72.764  48.954  48.922  1.00  0.00     0.167 C 
ENDROOT
BRANCH   1  12
HETATM   12  N4  UNL     1      71.317  44.708  51.041  1.00  0.00    -0.275 N 
ATOM     13  H4  UNL     1      71.440  43.961  50.358  1.00  0.00     0.189 HD
BRANCH  12  14
HETATM   14  N3  UNL     1      71.123  44.374  52.392  1.00  0.00    -0.272 N 
HETATM   15  C1  UNL     1      69.864  44.126  52.950  1.00  0.00     0.200 C 
HETATM   16  N1  UNL     1      68.993  45.076  53.077  1.00  0.00    -0.372 N 
HETATM   17  N2  UNL     1      69.467  42.842  53.405  1.00  0.00    -0.062 NA
ATOM     18  H12 UNL     1      68.076  44.896  53.484  1.00  0.00     0.158 HD
ATOM     19  H11 UNL     1      69.278  45.999  52.750  1.00  0.00     0.158 HD
ATOM     20  H3  UNL     1      71.942  44.309  52.996  1.00  0.00     0.189 HD
ENDBRANCH  12  14
ENDBRANCH   1  12
BRANCH   7  21
HETATM   21  C6  UNL     1      74.102  44.927  49.626  1.00  0.00     0.190 C 
BRANCH  21  22
HETATM   22  O2  UNL     1      74.552  44.585  50.840  1.00  0.00    -0.328 OA
BRANCH  22  23
HETATM   23  C7  UNL     1      74.657  43.535  51.653  1.00  0.00     0.398 C 
HETATM   24  O3  UNL     1      73.693  42.926  52.105  1.00  0.00    -0.276 OA
ENDBRANCH  22  23
ENDBRANCH  21  22
ENDBRANCH   7  21
BRANCH  11  25
HETATM   25  N7  UNL     1      72.450  50.257  49.516  1.00  0.00    -0.378 N 
HETATM   26  C11 UNL     1      71.979  51.228  48.874  1.00  0.00     0.169 C 
HETATM   27 CL1  UNL     1      71.657  52.722  49.717  1.00  0.00    -0.079 Cl
ATOM     28  H7  UNL     1      72.625  50.383  50.512  1.00  0.00     0.160 HD
ENDBRANCH  11  25
BRANCH  10  29
HETATM   29  N6  UNL     1      74.833  49.752  49.835  1.00  0.00    -0.070 N 
ATOM     30  H63 UNL     1      75.818  49.555  50.014  1.00  0.00     0.274 HD
ATOM     31  H62 UNL     1      74.954  50.613  49.302  1.00  0.00     0.274 HD
ATOM     32  H61 UNL     1      74.305  49.899  50.695  1.00  0.00     0.274 HD
ENDBRANCH  10  29
TORSDOF 7
ENDMDL
