MODEL 1
REMARK VINA RESULT: -7.747820123      0.000      0.000
REMARK  9 active torsions:
REMARK  status: ('A' for Active; 'I' for Inactive)
REMARK    1  A    between atoms: O1_2  and  C2_3 
REMARK    2  A    between atoms: C2_3  and  N2_7 
REMARK    3  A    between atoms: N2_7  and  N3_9 
REMARK    4  A    between atoms: C3_11  and  C4_12 
REMARK    5  A    between atoms: C3_11  and  C6_15 
REMARK    6  A    between atoms: C6_15  and  O3_16 
REMARK    7  A    between atoms: C6_15  and  N4_18 
REMARK    8  A    between atoms: N4_18  and  N5_19 
REMARK       I    between atoms: N5_19  and  C7_21 
REMARK    9  A    between atoms: C7_21  and  C8_23 
ROOT
HETATM    1  C6  UNL     1      74.633  43.153  52.976  1.00  0.00     0.286 C 
ENDROOT
BRANCH   1   2
HETATM    2  C3  UNL     1      73.167  42.992  52.925  1.00  0.00     0.117 C 
HETATM    3  N3  UNL     1      72.488  42.536  51.951  1.00  0.00    -0.294 N 
ATOM      4  H3  UNL     1      71.480  42.507  52.103  1.00  0.00     0.187 HD
BRANCH   3   5
HETATM    5  N2  UNL     1      72.902  42.080  50.728  1.00  0.00    -0.265 N 
ATOM      6  H2  UNL     1      72.841  42.694  49.917  1.00  0.00     0.190 HD
BRANCH   5   7
HETATM    7  C2  UNL     1      73.414  40.764  50.573  1.00  0.00     0.231 C 
HETATM    8  N1  UNL     1      72.631  39.731  50.513  1.00  0.00    -0.364 N 
ATOM      9  H12 UNL     1      72.999  38.786  50.402  1.00  0.00     0.159 HD
ATOM     10  H11 UNL     1      71.632  39.923  50.582  1.00  0.00     0.159 HD
BRANCH   7  11
HETATM   11  O1  UNL     1      74.776  40.503  50.479  1.00  0.00    -0.326 OA
HETATM   12  C1  UNL     1      75.637  41.351  49.709  1.00  0.00     0.213 C 
ENDBRANCH   7  11
ENDBRANCH   5   7
ENDBRANCH   3   5
BRANCH   2  13
HETATM   13  C4  UNL     1      72.413  43.411  54.127  1.00  0.00     0.173 C 
HETATM   14  C5  UNL     1      72.329  44.822  54.532  1.00  0.00     0.098 C 
HETATM   15  O2  UNL     1      71.842  42.531  54.797  1.00  0.00    -0.291 OA
ENDBRANCH   2  13
ENDBRANCH   1   2
BRANCH   1  16
HETATM   16  O3  UNL     1      75.157  41.867  53.197  1.00  0.00    -0.372 OA
ATOM     17  H3  UNL     1      75.270  41.479  52.337  1.00  0.00     0.212 HD
ENDBRANCH   1  16
BRANCH   1  18
HETATM   18  N4  UNL     1      75.195  43.722  51.761  1.00  0.00    -0.100 NA
BRANCH  18  19
HETATM   19  N5  UNL     1      74.685  45.040  51.603  1.00  0.00    -0.267 N 
HETATM   20  C7  UNL     1      74.250  45.421  50.319  1.00  0.00     0.270 C 
HETATM   21  O4  UNL     1      74.340  44.557  49.353  1.00  0.00    -0.266 OA
ATOM     22  H5  UNL     1      74.635  45.686  52.391  1.00  0.00     0.185 HD
BRANCH  20  23
HETATM   23  C8  UNL     1      73.697  46.704  49.930  1.00  0.00     0.072 A 
HETATM   24  C9  UNL     1      74.545  47.669  49.371  1.00  0.00     0.023 A 
HETATM   25  C10 UNL     1      74.101  48.915  48.992  1.00  0.00     0.043 A 
HETATM   26  C11 UNL     1      72.787  49.289  49.142  1.00  0.00     0.119 A 
HETATM   27  F1  UNL     1      72.363  50.527  48.763  1.00  0.00    -0.206 F 
HETATM   28  C12 UNL     1      71.936  48.366  49.687  1.00  0.00     0.085 A 
HETATM   29  C13 UNL     1      72.389  47.095  50.071  1.00  0.00     0.135 A 
HETATM   30  F2  UNL     1      71.501  46.217  50.595  1.00  0.00    -0.205 F 
ENDBRANCH  20  23
ENDBRANCH  18  19
ENDBRANCH   1  18
TORSDOF 9
ENDMDL
MODEL 2
REMARK VINA RESULT: -7.703786391      0.973      1.371
REMARK  9 active torsions:
REMARK  status: ('A' for Active; 'I' for Inactive)
REMARK    1  A    between atoms: O1_2  and  C2_3 
REMARK    2  A    between atoms: C2_3  and  N2_7 
REMARK    3  A    between atoms: N2_7  and  N3_9 
REMARK    4  A    between atoms: C3_11  and  C4_12 
REMARK    5  A    between atoms: C3_11  and  C6_15 
REMARK    6  A    between atoms: C6_15  and  O3_16 
REMARK    7  A    between atoms: C6_15  and  N4_18 
REMARK    8  A    between atoms: N4_18  and  N5_19 
REMARK       I    between atoms: N5_19  and  C7_21 
REMARK    9  A    between atoms: C7_21  and  C8_23 
ROOT
HETATM    1  C6  UNL     1      74.552  43.273  52.928  1.00  0.00     0.286 C 
ENDROOT
BRANCH   1   2
HETATM    2  C3  UNL     1      73.090  43.098  52.838  1.00  0.00     0.117 C 
HETATM    3  N3  UNL     1      72.444  42.610  51.857  1.00  0.00    -0.294 N 
ATOM      4  H3  UNL     1      71.432  42.576  51.980  1.00  0.00     0.187 HD
BRANCH   3   5
HETATM    5  N2  UNL     1      72.898  42.123  50.661  1.00  0.00    -0.265 N 
ATOM      6  H2  UNL     1      72.862  42.715  49.832  1.00  0.00     0.190 HD
BRANCH   5   7
HETATM    7  C2  UNL     1      73.418  40.805  50.557  1.00  0.00     0.231 C 
HETATM    8  N1  UNL     1      72.641  39.768  50.508  1.00  0.00    -0.364 N 
ATOM      9  H12 UNL     1      73.014  38.821  50.433  1.00  0.00     0.159 HD
ATOM     10  H11 UNL     1      71.639  39.957  50.547  1.00  0.00     0.159 HD
BRANCH   7  11
HETATM   11  O1  UNL     1      74.782  40.547  50.504  1.00  0.00    -0.326 OA
HETATM   12  C1  UNL     1      75.660  41.375  49.731  1.00  0.00     0.213 C 
ENDBRANCH   7  11
ENDBRANCH   5   7
ENDBRANCH   3   5
BRANCH   2  13
HETATM   13  C4  UNL     1      72.297  43.544  54.005  1.00  0.00     0.173 C 
HETATM   14  C5  UNL     1      72.393  44.917  54.523  1.00  0.00     0.098 C 
HETATM   15  O2  UNL     1      71.535  42.721  54.545  1.00  0.00    -0.291 OA
ENDBRANCH   2  13
ENDBRANCH   1   2
BRANCH   1  16
HETATM   16  O3  UNL     1      75.079  41.997  53.197  1.00  0.00    -0.372 OA
ATOM     17  H3  UNL     1      75.841  42.138  53.747  1.00  0.00     0.212 HD
ENDBRANCH   1  16
BRANCH   1  18
HETATM   18  N4  UNL     1      75.146  43.817  51.716  1.00  0.00    -0.100 NA
BRANCH  18  19
HETATM   19  N5  UNL     1      74.686  45.152  51.549  1.00  0.00    -0.267 N 
HETATM   20  C7  UNL     1      74.235  45.530  50.271  1.00  0.00     0.270 C 
HETATM   21  O4  UNL     1      74.265  44.649  49.317  1.00  0.00    -0.266 OA
ATOM     22  H5  UNL     1      74.682  45.811  52.328  1.00  0.00     0.185 HD
BRANCH  20  23
HETATM   23  C8  UNL     1      73.725  46.829  49.874  1.00  0.00     0.072 A 
HETATM   24  C9  UNL     1      72.390  47.149  50.150  1.00  0.00     0.023 A 
HETATM   25  C10 UNL     1      71.826  48.353  49.791  1.00  0.00     0.043 A 
HETATM   26  C11 UNL     1      72.549  49.319  49.133  1.00  0.00     0.119 A 
HETATM   27  F1  UNL     1      71.976  50.505  48.785  1.00  0.00    -0.206 F 
HETATM   28  C12 UNL     1      73.857  49.033  48.851  1.00  0.00     0.085 A 
HETATM   29  C13 UNL     1      74.431  47.807  49.218  1.00  0.00     0.135 A 
HETATM   30  F2  UNL     1      75.732  47.581  48.922  1.00  0.00    -0.205 F 
ENDBRANCH  20  23
ENDBRANCH  18  19
ENDBRANCH   1  18
TORSDOF 9
ENDMDL
MODEL 3
REMARK VINA RESULT: -7.548802524      1.554      3.591
REMARK  9 active torsions:
REMARK  status: ('A' for Active; 'I' for Inactive)
REMARK    1  A    between atoms: O1_2  and  C2_3 
REMARK    2  A    between atoms: C2_3  and  N2_7 
REMARK    3  A    between atoms: N2_7  and  N3_9 
REMARK    4  A    between atoms: C3_11  and  C4_12 
REMARK    5  A    between atoms: C3_11  and  C6_15 
REMARK    6  A    between atoms: C6_15  and  O3_16 
REMARK    7  A    between atoms: C6_15  and  N4_18 
REMARK    8  A    between atoms: N4_18  and  N5_19 
REMARK       I    between atoms: N5_19  and  C7_21 
REMARK    9  A    between atoms: C7_21  and  C8_23 
ROOT
HETATM    1  C6  UNL     1      75.377  42.099  50.872  1.00  0.00     0.286 C 
ENDROOT
BRANCH   1   2
HETATM    2  C3  UNL     1      74.462  41.037  51.333  1.00  0.00     0.117 C 
HETATM    3  N3  UNL     1      73.949  40.928  52.492  1.00  0.00    -0.294 N 
ATOM      4  H3  UNL     1      73.343  40.118  52.621  1.00  0.00     0.187 HD
BRANCH   3   5
HETATM    5  N2  UNL     1      74.085  41.731  53.592  1.00  0.00    -0.265 N 
ATOM      6  H2  UNL     1      74.997  41.818  54.040  1.00  0.00     0.190 HD
BRANCH   5   7
HETATM    7  C2  UNL     1      72.976  42.444  54.120  1.00  0.00     0.231 C 
HETATM    8  N1  UNL     1      72.478  43.476  53.513  1.00  0.00    -0.364 N 
ATOM      9  H12 UNL     1      71.681  43.987  53.893  1.00  0.00     0.159 HD
ATOM     10  H11 UNL     1      72.930  43.741  52.637  1.00  0.00     0.159 HD
BRANCH   7  11
HETATM   11  O1  UNL     1      72.361  42.082  55.313  1.00  0.00    -0.326 OA
HETATM   12  C1  UNL     1      71.274  42.850  55.845  1.00  0.00     0.213 C 
ENDBRANCH   7  11
ENDBRANCH   5   7
ENDBRANCH   3   5
BRANCH   2  13
HETATM   13  C4  UNL     1      74.116  39.989  50.347  1.00  0.00     0.173 C 
HETATM   14  C5  UNL     1      72.718  39.676  50.013  1.00  0.00     0.098 C 
HETATM   15  O2  UNL     1      75.046  39.370  49.798  1.00  0.00    -0.291 OA
ENDBRANCH   2  13
ENDBRANCH   1   2
BRANCH   1  16
HETATM   16  O3  UNL     1      75.080  42.303  49.512  1.00  0.00    -0.372 OA
ATOM     17  H3  UNL     1      75.609  41.677  49.032  1.00  0.00     0.212 HD
ENDBRANCH   1  16
BRANCH   1  18
HETATM   18  N4  UNL     1      75.234  43.346  51.609  1.00  0.00    -0.100 NA
BRANCH  18  19
HETATM   19  N5  UNL     1      74.698  44.328  50.732  1.00  0.00    -0.267 N 
HETATM   20  C7  UNL     1      74.239  45.530  51.302  1.00  0.00     0.270 C 
HETATM   21  O4  UNL     1      74.327  45.678  52.590  1.00  0.00    -0.266 OA
ATOM     22  H5  UNL     1      74.648  44.167  49.726  1.00  0.00     0.185 HD
BRANCH  20  23
HETATM   23  C8  UNL     1      73.660  46.662  50.604  1.00  0.00     0.072 A 
HETATM   24  C9  UNL     1      74.500  47.693  50.166  1.00  0.00     0.023 A 
HETATM   25  C10 UNL     1      74.026  48.808  49.512  1.00  0.00     0.043 A 
HETATM   26  C11 UNL     1      72.687  48.976  49.251  1.00  0.00     0.119 A 
HETATM   27  F1  UNL     1      72.234  50.086  48.604  1.00  0.00    -0.206 F 
HETATM   28  C12 UNL     1      71.843  47.984  49.669  1.00  0.00     0.085 A 
HETATM   29  C13 UNL     1      72.327  46.847  50.334  1.00  0.00     0.135 A 
HETATM   30  F2  UNL     1      71.448  45.891  50.717  1.00  0.00    -0.205 F 
ENDBRANCH  20  23
ENDBRANCH  18  19
ENDBRANCH   1  18
TORSDOF 9
ENDMDL
MODEL 4
REMARK VINA RESULT: -7.540969531      1.543      3.568
REMARK  9 active torsions:
REMARK  status: ('A' for Active; 'I' for Inactive)
REMARK    1  A    between atoms: O1_2  and  C2_3 
REMARK    2  A    between atoms: C2_3  and  N2_7 
REMARK    3  A    between atoms: N2_7  and  N3_9 
REMARK    4  A    between atoms: C3_11  and  C4_12 
REMARK    5  A    between atoms: C3_11  and  C6_15 
REMARK    6  A    between atoms: C6_15  and  O3_16 
REMARK    7  A    between atoms: C6_15  and  N4_18 
REMARK    8  A    between atoms: N4_18  and  N5_19 
REMARK       I    between atoms: N5_19  and  C7_21 
REMARK    9  A    between atoms: C7_21  and  C8_23 
ROOT
HETATM    1  C6  UNL     1      74.840  42.344  49.879  1.00  0.00     0.286 C 
ENDROOT
BRANCH   1   2
HETATM    2  C3  UNL     1      73.870  41.461  50.555  1.00  0.00     0.117 C 
HETATM    3  N3  UNL     1      72.867  41.824  51.247  1.00  0.00    -0.294 N 
ATOM      4  H3  UNL     1      72.316  41.062  51.640  1.00  0.00     0.187 HD
BRANCH   3   5
HETATM    5  N2  UNL     1      72.414  43.081  51.545  1.00  0.00    -0.265 N 
ATOM      6  H2  UNL     1      72.392  43.793  50.816  1.00  0.00     0.190 HD
BRANCH   5   7
HETATM    7  C2  UNL     1      71.975  43.409  52.856  1.00  0.00     0.231 C 
HETATM    8  N1  UNL     1      72.767  43.958  53.722  1.00  0.00    -0.364 N 
ATOM      9  H12 UNL     1      72.451  44.193  54.663  1.00  0.00     0.159 HD
ATOM     10  H11 UNL     1      73.719  44.140  53.405  1.00  0.00     0.159 HD
BRANCH   7  11
HETATM   11  O1  UNL     1      70.677  43.160  53.287  1.00  0.00    -0.326 OA
HETATM   12  C1  UNL     1      69.661  44.166  53.188  1.00  0.00     0.213 C 
ENDBRANCH   7  11
ENDBRANCH   5   7
ENDBRANCH   3   5
BRANCH   2  13
HETATM   13  C4  UNL     1      74.096  40.004  50.418  1.00  0.00     0.173 C 
HETATM   14  C5  UNL     1      74.067  39.106  51.582  1.00  0.00     0.098 C 
HETATM   15  O2  UNL     1      74.313  39.550  49.280  1.00  0.00    -0.291 OA
ENDBRANCH   2  13
ENDBRANCH   1   2
BRANCH   1  16
HETATM   16  O3  UNL     1      74.271  42.662  48.632  1.00  0.00    -0.372 OA
ATOM     17  H3  UNL     1      73.977  43.563  48.700  1.00  0.00     0.212 HD
ENDBRANCH   1  16
BRANCH   1  18
HETATM   18  N4  UNL     1      75.130  43.561  50.622  1.00  0.00    -0.100 NA
BRANCH  18  19
HETATM   19  N5  UNL     1      74.597  44.666  49.902  1.00  0.00    -0.267 N 
HETATM   20  C7  UNL     1      74.194  45.793  50.643  1.00  0.00     0.270 C 
HETATM   21  O4  UNL     1      74.325  45.765  51.935  1.00  0.00    -0.266 OA
ATOM     22  H5  UNL     1      74.511  44.642  48.886  1.00  0.00     0.185 HD
BRANCH  20  23
HETATM   23  C8  UNL     1      73.629  47.023  50.121  1.00  0.00     0.072 A 
HETATM   24  C9  UNL     1      74.487  47.997  49.596  1.00  0.00     0.023 A 
HETATM   25  C10 UNL     1      74.031  49.197  49.098  1.00  0.00     0.043 A 
HETATM   26  C11 UNL     1      72.693  49.512  49.090  1.00  0.00     0.119 A 
HETATM   27  F1  UNL     1      72.258  50.703  48.595  1.00  0.00    -0.206 F 
HETATM   28  C12 UNL     1      71.831  48.578  49.598  1.00  0.00     0.085 A 
HETATM   29  C13 UNL     1      72.297  47.355  50.104  1.00  0.00     0.135 A 
HETATM   30  F2  UNL     1      71.399  46.464  50.585  1.00  0.00    -0.205 F 
ENDBRANCH  20  23
ENDBRANCH  18  19
ENDBRANCH   1  18
TORSDOF 9
ENDMDL
MODEL 5
REMARK VINA RESULT: -7.495902360      1.636      3.497
REMARK  9 active torsions:
REMARK  status: ('A' for Active; 'I' for Inactive)
REMARK    1  A    between atoms: O1_2  and  C2_3 
REMARK    2  A    between atoms: C2_3  and  N2_7 
REMARK    3  A    between atoms: N2_7  and  N3_9 
REMARK    4  A    between atoms: C3_11  and  C4_12 
REMARK    5  A    between atoms: C3_11  and  C6_15 
REMARK    6  A    between atoms: C6_15  and  O3_16 
REMARK    7  A    between atoms: C6_15  and  N4_18 
REMARK    8  A    between atoms: N4_18  and  N5_19 
REMARK       I    between atoms: N5_19  and  C7_21 
REMARK    9  A    between atoms: C7_21  and  C8_23 
ROOT
HETATM    1  C6  UNL     1      73.587  42.354  50.452  1.00  0.00     0.286 C 
ENDROOT
BRANCH   1   2
HETATM    2  C3  UNL     1      73.758  41.395  51.560  1.00  0.00     0.117 C 
HETATM    3  N3  UNL     1      73.930  41.677  52.788  1.00  0.00    -0.294 N 
ATOM      4  H3  UNL     1      74.035  40.872  53.405  1.00  0.00     0.187 HD
BRANCH   3   5
HETATM    5  N2  UNL     1      73.998  42.895  53.409  1.00  0.00    -0.265 N 
ATOM      6  H2  UNL     1      74.876  43.412  53.404  1.00  0.00     0.190 HD
BRANCH   5   7
HETATM    7  C2  UNL     1      72.864  43.449  54.060  1.00  0.00     0.231 C 
HETATM    8  N1  UNL     1      72.709  44.730  54.187  1.00  0.00    -0.364 N 
ATOM      9  H12 UNL     1      71.894  45.127  54.655  1.00  0.00     0.159 HD
ATOM     10  H11 UNL     1      73.448  45.311  53.790  1.00  0.00     0.159 HD
BRANCH   7  11
HETATM   11  O1  UNL     1      71.858  42.657  54.600  1.00  0.00    -0.326 OA
HETATM   12  C1  UNL     1      71.925  42.202  55.958  1.00  0.00     0.213 C 
ENDBRANCH   7  11
ENDBRANCH   5   7
ENDBRANCH   3   5
BRANCH   2  13
HETATM   13  C4  UNL     1      73.733  39.959  51.200  1.00  0.00     0.173 C 
HETATM   14  C5  UNL     1      73.479  39.513  49.822  1.00  0.00     0.098 C 
HETATM   15  O2  UNL     1      73.936  39.126  52.102  1.00  0.00    -0.291 OA
ENDBRANCH   2  13
ENDBRANCH   1   2
BRANCH   1  16
HETATM   16  O3  UNL     1      72.438  43.104  50.762  1.00  0.00    -0.372 OA
ATOM     17  H3  UNL     1      72.676  44.015  50.631  1.00  0.00     0.212 HD
ENDBRANCH   1  16
BRANCH   1  18
HETATM   18  N4  UNL     1      74.729  43.239  50.271  1.00  0.00    -0.100 NA
BRANCH  18  19
HETATM   19  N5  UNL     1      74.282  44.424  49.626  1.00  0.00    -0.267 N 
HETATM   20  C7  UNL     1      74.104  45.571  50.423  1.00  0.00     0.270 C 
HETATM   21  O4  UNL     1      74.352  45.487  51.695  1.00  0.00    -0.266 OA
ATOM     22  H5  UNL     1      74.097  44.443  48.624  1.00  0.00     0.185 HD
BRANCH  20  23
HETATM   23  C8  UNL     1      73.660  46.880  49.981  1.00  0.00     0.072 A 
HETATM   24  C9  UNL     1      74.609  47.801  49.520  1.00  0.00     0.023 A 
HETATM   25  C10 UNL     1      74.270  49.067  49.100  1.00  0.00     0.043 A 
HETATM   26  C11 UNL     1      72.968  49.506  49.112  1.00  0.00     0.119 A 
HETATM   27  F1  UNL     1      72.650  50.763  48.694  1.00  0.00    -0.206 F 
HETATM   28  C12 UNL     1      72.019  48.627  49.558  1.00  0.00     0.085 A 
HETATM   29  C13 UNL     1      72.365  47.336  49.984  1.00  0.00     0.135 A 
HETATM   30  F2  UNL     1      71.384  46.504  50.407  1.00  0.00    -0.205 F 
ENDBRANCH  20  23
ENDBRANCH  18  19
ENDBRANCH   1  18
TORSDOF 9
ENDMDL
