MODEL 1
REMARK VINA RESULT: -6.647035457      0.000      0.000
REMARK  11 active torsions:
REMARK  status: ('A' for Active; 'I' for Inactive)
REMARK    1  A    between atoms: C1_4  and  N2_5 
REMARK    2  A    between atoms: C1_4  and  C9_25 
REMARK    3  A    between atoms: N2_5  and  S1_7 
REMARK    4  A    between atoms: S1_7  and  C2_8 
REMARK    5  A    between atoms: C2_8  and  S2_9 
REMARK    6  A    between atoms: S2_9  and  C3_10 
REMARK    7  A    between atoms: C4_12  and  C5_13 
REMARK    8  A    between atoms: C5_13  and  O2_14 
REMARK    9  A    between atoms: C6_16  and  O3_17 
REMARK   10  A    between atoms: C7_19  and  O4_20 
REMARK   11  A    between atoms: C8_22  and  O5_23 
ROOT
HETATM    1  C3  UNL     1      73.957  43.538  51.730  1.00  0.00     0.215 C 
HETATM    2  O1  UNL     1      75.212  43.010  51.882  1.00  0.00    -0.363 OA
HETATM    3  C4  UNL     1      75.141  41.652  52.036  1.00  0.00     0.178 C 
HETATM    4  C6  UNL     1      74.414  40.893  50.991  1.00  0.00     0.180 C 
HETATM    5  C7  UNL     1      73.417  41.644  50.183  1.00  0.00     0.181 C 
HETATM    6  C8  UNL     1      73.463  43.135  50.360  1.00  0.00     0.188 C 
ENDROOT
BRANCH   1   7
HETATM    7  S2  UNL     1      73.977  45.368  51.792  1.00  0.00    -0.123 SA
BRANCH   7   8
HETATM    8  C2  UNL     1      72.357  45.925  51.218  1.00  0.00     0.174 C 
BRANCH   8   9
HETATM    9  S1  UNL     1      72.411  46.864  49.712  1.00  0.00    -0.044 SA
BRANCH   9  10
HETATM   10  N2  UNL     1      73.973  46.938  48.956  1.00  0.00    -0.315 N 
ATOM     11  H2  UNL     1      74.319  46.149  48.409  1.00  0.00     0.175 HD
BRANCH  10  12
HETATM   12  C1  UNL     1      74.757  48.100  49.104  1.00  0.00     0.147 C 
HETATM   13  N1  UNL     1      75.858  48.235  48.467  1.00  0.00    -0.384 N 
ATOM     14  H12 UNL     1      76.170  47.490  47.844  1.00  0.00     0.157 HD
ATOM     15  H11 UNL     1      76.425  49.075  48.575  1.00  0.00     0.157 HD
BRANCH  12  16
HETATM   16  C9  UNL     1      74.305  49.177  50.006  1.00  0.00     0.420 C 
HETATM   17  F1  UNL     1      73.446  49.996  49.269  1.00  0.00    -0.206 F 
HETATM   18  F2  UNL     1      75.388  49.943  50.443  1.00  0.00    -0.206 F 
ENDBRANCH  12  16
ENDBRANCH  10  12
ENDBRANCH   9  10
ENDBRANCH   8   9
ENDBRANCH   7   8
ENDBRANCH   1   7
BRANCH   6  19
HETATM   19  O5  UNL     1      74.326  43.719  49.428  1.00  0.00    -0.389 OA
ATOM     20  H5  UNL     1      74.911  43.034  49.126  1.00  0.00     0.210 HD
ENDBRANCH   6  19
BRANCH   3  21
HETATM   21  C5  UNL     1      74.665  41.250  53.438  1.00  0.00     0.198 C 
BRANCH  21  22
HETATM   22  O2  UNL     1      74.309  39.915  53.384  1.00  0.00    -0.398 OA
ATOM     23  H2  UNL     1      73.743  39.744  54.127  1.00  0.00     0.209 HD
ENDBRANCH  21  22
ENDBRANCH   3  21
BRANCH   5  24
HETATM   24  O4  UNL     1      73.543  41.383  48.819  1.00  0.00    -0.390 OA
ATOM     25  H4  UNL     1      72.729  41.525  48.351  1.00  0.00     0.210 HD
ENDBRANCH   5  24
BRANCH   4  26
HETATM   26  O3  UNL     1      75.321  40.289  50.092  1.00  0.00    -0.390 OA
ATOM     27  H3  UNL     1      74.946  39.499  49.719  1.00  0.00     0.210 HD
ENDBRANCH   4  26
TORSDOF 11
ENDMDL
MODEL 2
REMARK VINA RESULT: -6.624110052      1.096      2.490
REMARK  11 active torsions:
REMARK  status: ('A' for Active; 'I' for Inactive)
REMARK    1  A    between atoms: C1_4  and  N2_5 
REMARK    2  A    between atoms: C1_4  and  C9_25 
REMARK    3  A    between atoms: N2_5  and  S1_7 
REMARK    4  A    between atoms: S1_7  and  C2_8 
REMARK    5  A    between atoms: C2_8  and  S2_9 
REMARK    6  A    between atoms: S2_9  and  C3_10 
REMARK    7  A    between atoms: C4_12  and  C5_13 
REMARK    8  A    between atoms: C5_13  and  O2_14 
REMARK    9  A    between atoms: C6_16  and  O3_17 
REMARK   10  A    between atoms: C7_19  and  O4_20 
REMARK   11  A    between atoms: C8_22  and  O5_23 
ROOT
HETATM    1  C3  UNL     1      74.417  43.569  51.489  1.00  0.00     0.215 C 
HETATM    2  O1  UNL     1      73.540  42.951  50.637  1.00  0.00    -0.363 OA
HETATM    3  C4  UNL     1      74.008  41.714  50.287  1.00  0.00     0.178 C 
HETATM    4  C6  UNL     1      74.352  40.788  51.391  1.00  0.00     0.180 C 
HETATM    5  C7  UNL     1      74.657  41.398  52.713  1.00  0.00     0.181 C 
HETATM    6  C8  UNL     1      74.325  42.859  52.820  1.00  0.00     0.188 C 
ENDROOT
BRANCH   1   7
HETATM    7  S2  UNL     1      73.973  45.324  51.769  1.00  0.00    -0.123 SA
BRANCH   7   8
HETATM    8  C2  UNL     1      72.394  45.599  50.935  1.00  0.00     0.174 C 
BRANCH   8   9
HETATM    9  S1  UNL     1      72.411  46.955  49.790  1.00  0.00    -0.044 SA
BRANCH   9  10
HETATM   10  N2  UNL     1      73.865  47.095  48.849  1.00  0.00    -0.315 N 
ATOM     11  H2  UNL     1      74.089  46.398  48.139  1.00  0.00     0.175 HD
BRANCH  10  12
HETATM   12  C1  UNL     1      74.732  48.183  49.077  1.00  0.00     0.147 C 
HETATM   13  N1  UNL     1      75.843  48.280  48.451  1.00  0.00    -0.384 N 
ATOM     14  H12 UNL     1      76.102  47.558  47.778  1.00  0.00     0.157 HD
ATOM     15  H11 UNL     1      76.470  49.066  48.615  1.00  0.00     0.157 HD
BRANCH  12  16
HETATM   16  C9  UNL     1      74.357  49.227  50.050  1.00  0.00     0.420 C 
HETATM   17  F1  UNL     1      73.488  50.104  49.397  1.00  0.00    -0.206 F 
HETATM   18  F2  UNL     1      75.482  49.939  50.470  1.00  0.00    -0.206 F 
ENDBRANCH  12  16
ENDBRANCH  10  12
ENDBRANCH   9  10
ENDBRANCH   8   9
ENDBRANCH   7   8
ENDBRANCH   1   7
BRANCH   6  19
HETATM   19  O5  UNL     1      73.020  43.039  53.288  1.00  0.00    -0.389 OA
ATOM     20  H5  UNL     1      73.015  42.775  54.201  1.00  0.00     0.210 HD
ENDBRANCH   6  19
BRANCH   3  21
HETATM   21  C5  UNL     1      75.147  41.791  49.261  1.00  0.00     0.198 C 
BRANCH  21  22
HETATM   22  O2  UNL     1      74.572  42.030  48.027  1.00  0.00    -0.398 OA
ATOM     23  H2  UNL     1      73.893  41.377  47.901  1.00  0.00     0.209 HD
ENDBRANCH  21  22
ENDBRANCH   3  21
BRANCH   5  24
HETATM   24  O4  UNL     1      74.000  40.746  53.756  1.00  0.00    -0.390 OA
ATOM     25  H4  UNL     1      74.077  41.216  54.577  1.00  0.00     0.210 HD
ENDBRANCH   5  24
BRANCH   4  26
HETATM   26  O3  UNL     1      73.319  39.843  51.588  1.00  0.00    -0.390 OA
ATOM     27  H3  UNL     1      72.503  40.158  51.218  1.00  0.00     0.210 HD
ENDBRANCH   4  26
TORSDOF 11
ENDMDL
MODEL 3
REMARK VINA RESULT: -6.551582454      1.599      2.800
REMARK  11 active torsions:
REMARK  status: ('A' for Active; 'I' for Inactive)
REMARK    1  A    between atoms: C1_4  and  N2_5 
REMARK    2  A    between atoms: C1_4  and  C9_25 
REMARK    3  A    between atoms: N2_5  and  S1_7 
REMARK    4  A    between atoms: S1_7  and  C2_8 
REMARK    5  A    between atoms: C2_8  and  S2_9 
REMARK    6  A    between atoms: S2_9  and  C3_10 
REMARK    7  A    between atoms: C4_12  and  C5_13 
REMARK    8  A    between atoms: C5_13  and  O2_14 
REMARK    9  A    between atoms: C6_16  and  O3_17 
REMARK   10  A    between atoms: C7_19  and  O4_20 
REMARK   11  A    between atoms: C8_22  and  O5_23 
ROOT
HETATM    1  C3  UNL     1      74.331  43.514  51.640  1.00  0.00     0.215 C 
HETATM    2  O1  UNL     1      73.485  42.953  50.721  1.00  0.00    -0.363 OA
HETATM    3  C4  UNL     1      73.985  41.757  50.282  1.00  0.00     0.178 C 
HETATM    4  C6  UNL     1      74.324  40.750  51.314  1.00  0.00     0.180 C 
HETATM    5  C7  UNL     1      74.589  41.255  52.688  1.00  0.00     0.181 C 
HETATM    6  C8  UNL     1      74.226  42.695  52.906  1.00  0.00     0.188 C 
ENDROOT
BRANCH   1   7
HETATM    7  S2  UNL     1      73.845  45.231  52.052  1.00  0.00    -0.123 SA
BRANCH   7   8
HETATM    8  C2  UNL     1      72.348  45.589  51.106  1.00  0.00     0.174 C 
BRANCH   8   9
HETATM    9  S1  UNL     1      72.646  46.472  49.595  1.00  0.00    -0.044 SA
BRANCH   9  10
HETATM   10  N2  UNL     1      72.203  48.152  49.634  1.00  0.00    -0.315 N 
ATOM     11  H2  UNL     1      71.244  48.427  49.847  1.00  0.00     0.175 HD
BRANCH  10  12
HETATM   12  C1  UNL     1      73.182  49.131  49.368  1.00  0.00     0.147 C 
HETATM   13  N1  UNL     1      72.852  50.299  48.969  1.00  0.00    -0.384 N 
ATOM     14  H12 UNL     1      71.865  50.524  48.842  1.00  0.00     0.157 HD
ATOM     15  H11 UNL     1      73.560  51.007  48.777  1.00  0.00     0.157 HD
BRANCH  12  16
HETATM   16  C9  UNL     1      74.610  48.804  49.551  1.00  0.00     0.420 C 
HETATM   17  F1  UNL     1      75.141  49.758  50.422  1.00  0.00    -0.206 F 
HETATM   18  F2  UNL     1      75.294  48.878  48.335  1.00  0.00    -0.206 F 
ENDBRANCH  12  16
ENDBRANCH  10  12
ENDBRANCH   9  10
ENDBRANCH   8   9
ENDBRANCH   7   8
ENDBRANCH   1   7
BRANCH   6  19
HETATM   19  O5  UNL     1      72.908  42.813  53.359  1.00  0.00    -0.389 OA
ATOM     20  H5  UNL     1      72.609  41.936  53.570  1.00  0.00     0.210 HD
ENDBRANCH   6  19
BRANCH   3  21
HETATM   21  C5  UNL     1      75.143  41.940  49.292  1.00  0.00     0.198 C 
BRANCH  21  22
HETATM   22  O2  UNL     1      74.593  42.008  48.025  1.00  0.00    -0.398 OA
ATOM     23  H2  UNL     1      75.279  42.295  47.434  1.00  0.00     0.209 HD
ENDBRANCH  21  22
ENDBRANCH   3  21
BRANCH   5  24
HETATM   24  O4  UNL     1      73.924  40.507  53.659  1.00  0.00    -0.390 OA
ATOM     25  H4  UNL     1      74.452  39.785  53.978  1.00  0.00     0.210 HD
ENDBRANCH   5  24
BRANCH   4  26
HETATM   26  O3  UNL     1      73.307  39.773  51.410  1.00  0.00    -0.390 OA
ATOM     27  H3  UNL     1      72.585  40.093  51.939  1.00  0.00     0.210 HD
ENDBRANCH   4  26
TORSDOF 11
ENDMDL
MODEL 4
REMARK VINA RESULT: -6.505324792      1.576      2.855
REMARK  11 active torsions:
REMARK  status: ('A' for Active; 'I' for Inactive)
REMARK    1  A    between atoms: C1_4  and  N2_5 
REMARK    2  A    between atoms: C1_4  and  C9_25 
REMARK    3  A    between atoms: N2_5  and  S1_7 
REMARK    4  A    between atoms: S1_7  and  C2_8 
REMARK    5  A    between atoms: C2_8  and  S2_9 
REMARK    6  A    between atoms: S2_9  and  C3_10 
REMARK    7  A    between atoms: C4_12  and  C5_13 
REMARK    8  A    between atoms: C5_13  and  O2_14 
REMARK    9  A    between atoms: C6_16  and  O3_17 
REMARK   10  A    between atoms: C7_19  and  O4_20 
REMARK   11  A    between atoms: C8_22  and  O5_23 
ROOT
HETATM    1  C3  UNL     1      74.396  43.331  51.838  1.00  0.00     0.215 C 
HETATM    2  O1  UNL     1      73.505  42.895  50.893  1.00  0.00    -0.363 OA
HETATM    3  C4  UNL     1      73.955  41.741  50.311  1.00  0.00     0.178 C 
HETATM    4  C6  UNL     1      74.297  40.619  51.217  1.00  0.00     0.180 C 
HETATM    5  C7  UNL     1      74.620  40.965  52.627  1.00  0.00     0.181 C 
HETATM    6  C8  UNL     1      74.307  42.382  53.011  1.00  0.00     0.188 C 
ENDROOT
BRANCH   1   7
HETATM    7  S2  UNL     1      73.975  45.005  52.450  1.00  0.00    -0.123 SA
BRANCH   7   8
HETATM    8  C2  UNL     1      73.129  45.855  51.097  1.00  0.00     0.174 C 
BRANCH   8   9
HETATM    9  S1  UNL     1      74.224  46.519  49.868  1.00  0.00    -0.044 SA
BRANCH   9  10
HETATM   10  N2  UNL     1      73.529  47.757  48.867  1.00  0.00    -0.315 N 
ATOM     11  H2  UNL     1      73.074  47.514  47.987  1.00  0.00     0.175 HD
BRANCH  10  12
HETATM   12  C1  UNL     1      73.600  49.103  49.284  1.00  0.00     0.147 C 
HETATM   13  N1  UNL     1      74.624  49.542  49.912  1.00  0.00    -0.384 N 
ATOM     14  H12 UNL     1      75.398  48.909  50.112  1.00  0.00     0.157 HD
ATOM     15  H11 UNL     1      74.675  50.515  50.213  1.00  0.00     0.157 HD
BRANCH  12  16
HETATM   16  C9  UNL     1      72.480  50.018  48.994  1.00  0.00     0.420 C 
HETATM   17  F1  UNL     1      72.839  51.275  49.485  1.00  0.00    -0.206 F 
HETATM   18  F2  UNL     1      71.318  49.599  49.646  1.00  0.00    -0.206 F 
ENDBRANCH  12  16
ENDBRANCH  10  12
ENDBRANCH   9  10
ENDBRANCH   8   9
ENDBRANCH   7   8
ENDBRANCH   1   7
BRANCH   6  19
HETATM   19  O5  UNL     1      73.008  42.484  53.519  1.00  0.00    -0.389 OA
ATOM     20  H5  UNL     1      72.751  41.614  53.799  1.00  0.00     0.210 HD
ENDBRANCH   6  19
BRANCH   3  21
HETATM   21  C5  UNL     1      75.087  42.000  49.307  1.00  0.00     0.198 C 
BRANCH  21  22
HETATM   22  O2  UNL     1      74.531  41.952  48.042  1.00  0.00    -0.398 OA
ATOM     23  H2  UNL     1      74.283  41.049  47.878  1.00  0.00     0.209 HD
ENDBRANCH  21  22
ENDBRANCH   3  21
BRANCH   5  24
HETATM   24  O4  UNL     1      73.964  40.134  53.534  1.00  0.00    -0.390 OA
ATOM     25  H4  UNL     1      74.350  39.267  53.568  1.00  0.00     0.210 HD
ENDBRANCH   5  24
BRANCH   4  26
HETATM   26  O3  UNL     1      73.255  39.665  51.242  1.00  0.00    -0.390 OA
ATOM     27  H3  UNL     1      73.576  38.812  50.973  1.00  0.00     0.210 HD
ENDBRANCH   4  26
TORSDOF 11
ENDMDL
MODEL 5
REMARK VINA RESULT: -6.486049056      1.234      1.400
REMARK  11 active torsions:
REMARK  status: ('A' for Active; 'I' for Inactive)
REMARK    1  A    between atoms: C1_4  and  N2_5 
REMARK    2  A    between atoms: C1_4  and  C9_25 
REMARK    3  A    between atoms: N2_5  and  S1_7 
REMARK    4  A    between atoms: S1_7  and  C2_8 
REMARK    5  A    between atoms: C2_8  and  S2_9 
REMARK    6  A    between atoms: S2_9  and  C3_10 
REMARK    7  A    between atoms: C4_12  and  C5_13 
REMARK    8  A    between atoms: C5_13  and  O2_14 
REMARK    9  A    between atoms: C6_16  and  O3_17 
REMARK   10  A    between atoms: C7_19  and  O4_20 
REMARK   11  A    between atoms: C8_22  and  O5_23 
ROOT
HETATM    1  C3  UNL     1      73.815  43.693  51.697  1.00  0.00     0.215 C 
HETATM    2  O1  UNL     1      75.084  43.358  52.089  1.00  0.00    -0.363 OA
HETATM    3  C4  UNL     1      75.285  42.012  51.953  1.00  0.00     0.178 C 
HETATM    4  C6  UNL     1      75.012  41.421  50.622  1.00  0.00     0.180 C 
HETATM    5  C7  UNL     1      74.091  42.172  49.727  1.00  0.00     0.181 C 
HETATM    6  C8  UNL     1      73.760  43.561  50.192  1.00  0.00     0.188 C 
ENDROOT
BRANCH   1   7
HETATM    7  S2  UNL     1      73.409  45.430  52.113  1.00  0.00    -0.123 SA
BRANCH   7   8
HETATM    8  C2  UNL     1      71.642  45.640  51.800  1.00  0.00     0.174 C 
BRANCH   8   9
HETATM    9  S1  UNL     1      71.276  46.567  50.330  1.00  0.00    -0.044 SA
BRANCH   9  10
HETATM   10  N2  UNL     1      72.652  46.915  49.328  1.00  0.00    -0.315 N 
ATOM     11  H2  UNL     1      73.054  46.191  48.734  1.00  0.00     0.175 HD
BRANCH  10  12
HETATM   12  C1  UNL     1      73.207  48.212  49.345  1.00  0.00     0.147 C 
HETATM   13  N1  UNL     1      72.467  49.245  49.206  1.00  0.00    -0.384 N 
ATOM     14  H12 UNL     1      71.462  49.127  49.082  1.00  0.00     0.157 HD
ATOM     15  H11 UNL     1      72.869  50.182  49.218  1.00  0.00     0.157 HD
BRANCH  12  16
HETATM   16  C9  UNL     1      74.662  48.381  49.525  1.00  0.00     0.420 C 
HETATM   17  F1  UNL     1      74.852  49.561  50.247  1.00  0.00    -0.206 F 
HETATM   18  F2  UNL     1      75.302  48.504  48.289  1.00  0.00    -0.206 F 
ENDBRANCH  12  16
ENDBRANCH  10  12
ENDBRANCH   9  10
ENDBRANCH   8   9
ENDBRANCH   7   8
ENDBRANCH   1   7
BRANCH   6  19
HETATM   19  O5  UNL     1      74.665  44.489  49.669  1.00  0.00    -0.389 OA
ATOM     20  H5  UNL     1      75.260  44.008  49.106  1.00  0.00     0.210 HD
ENDBRANCH   6  19
BRANCH   3  21
HETATM   21  C5  UNL     1      74.594  41.206  53.063  1.00  0.00     0.198 C 
BRANCH  21  22
HETATM   22  O2  UNL     1      74.186  40.008  52.506  1.00  0.00    -0.398 OA
ATOM     23  H2  UNL     1      74.355  39.328  53.147  1.00  0.00     0.209 HD
ENDBRANCH  21  22
ENDBRANCH   3  21
BRANCH   5  24
HETATM   24  O4  UNL     1      74.590  42.276  48.429  1.00  0.00    -0.390 OA
ATOM     25  H4  UNL     1      74.044  41.823  47.798  1.00  0.00     0.210 HD
ENDBRANCH   5  24
BRANCH   4  26
HETATM   26  O3  UNL     1      76.217  41.214  49.913  1.00  0.00    -0.390 OA
ATOM     27  H3  UNL     1      76.170  40.415  49.401  1.00  0.00     0.210 HD
ENDBRANCH   4  26
TORSDOF 11
ENDMDL
