MODEL 1
REMARK VINA RESULT: -8.036214643      0.000      0.000
REMARK  11 active torsions:
REMARK  status: ('A' for Active; 'I' for Inactive)
REMARK    1  A    between atoms: C2_2  and  C3_3 
REMARK    2  A    between atoms: C3_3  and  N1_4 
REMARK    3  A    between atoms: N1_4  and  C4_5 
REMARK    4  A    between atoms: N1_4  and  C6_7 
REMARK    5  A    between atoms: C6_7  and  C7_8 
REMARK    6  A    between atoms: C8_11  and  N3_12 
REMARK    7  A    between atoms: N3_12  and  C9_14 
REMARK    8  A    between atoms: C9_14  and  O1_15 
REMARK    9  A    between atoms: C9_14  and  C10_17 
REMARK   10  A    between atoms: C10_17  and  C11_18 
REMARK   11  A    between atoms: C11_18  and  C13_20 
ROOT
HETATM    1  C7  UNL     1      50.831  50.198  19.038  1.00  0.00     0.218 C 
HETATM    2  N2  UNL     1      50.821  51.637  19.381  1.00  0.00    -0.209 N 
ATOM      3  H2  UNL     1      51.115  52.352  18.716  1.00  0.00     0.178 HD
HETATM    4  C8  UNL     1      50.386  51.963  20.666  1.00  0.00     0.701 C 
HETATM    5  N4  UNL     1      50.574  51.096  21.648  1.00  0.00    -0.088 N 
ATOM      6  H4  UNL     1      50.256  51.338  22.586  1.00  0.00     0.214 HD
HETATM    7  O2  UNL     1      51.182  49.885  21.447  1.00  0.00    -0.183 OA
HETATM    8  C17 UNL     1      51.610  49.562  20.171  1.00  0.00     0.306 C 
HETATM    9  O3  UNL     1      52.581  48.794  19.963  1.00  0.00    -0.261 OA
ENDROOT
BRANCH   4  10
HETATM   10  N3  UNL     1      49.756  53.176  21.011  1.00  0.00    -0.169 N 
ATOM     11  H3  UNL     1      49.544  53.343  21.995  1.00  0.00     0.186 HD
BRANCH  10  12
HETATM   12  C9  UNL     1      49.411  54.150  20.102  1.00  0.00     0.155 C 
BRANCH  12  13
HETATM   13  O1  UNL     1      50.316  54.569  19.239  1.00  0.00    -0.346 OA
ATOM     14  H1  UNL     1      51.170  54.835  19.559  1.00  0.00     0.219 HD
ENDBRANCH  12  13
BRANCH  12  15
HETATM   15  C10 UNL     1      48.166  54.819  19.931  1.00  0.00     0.059 C 
BRANCH  15  16
HETATM   16  C11 UNL     1      47.776  55.994  20.252  1.00  0.00    -0.072 C 
HETATM   17  C12 UNL     1      48.235  56.803  21.408  1.00  0.00     0.044 C 
BRANCH  16  18
HETATM   18  C13 UNL     1      46.732  56.685  19.393  1.00  0.00    -0.028 C 
HETATM   19  C14 UNL     1      47.186  58.122  19.261  1.00  0.00     0.019 C 
HETATM   20  C15 UNL     1      45.377  56.674  19.988  1.00  0.00     0.019 C 
HETATM   21  C16 UNL     1      46.801  55.968  18.058  1.00  0.00     0.019 C 
ENDBRANCH  16  18
ENDBRANCH  15  16
ENDBRANCH  12  15
ENDBRANCH  10  12
ENDBRANCH   4  10
BRANCH   1  22
HETATM   22  C6  UNL     1      49.458  49.652  19.007  1.00  0.00     0.153 C 
BRANCH  22  23
HETATM   23  N1  UNL     1      48.871  49.404  17.743  1.00  0.00    -0.410 N 
BRANCH  23  24
HETATM   24  C3  UNL     1      48.185  48.166  17.617  1.00  0.00     0.116 C 
BRANCH  24  25
HETATM   25  C2  UNL     1      47.602  47.764  18.936  1.00  0.00     0.015 C 
HETATM   26  C1  UNL     1      46.125  47.434  18.835  1.00  0.00     0.006 C 
ENDBRANCH  24  25
ENDBRANCH  23  24
BRANCH  23  27
HETATM   27  C4  UNL     1      49.532  49.887  16.597  1.00  0.00     0.112 C 
HETATM   28  C5  UNL     1      49.187  49.100  15.328  1.00  0.00     0.026 C 
ENDBRANCH  23  27
ENDBRANCH  22  23
ENDBRANCH   1  22
TORSDOF 11
ENDMDL
MODEL 2
REMARK VINA RESULT: -8.021317050      0.877      1.694
REMARK  11 active torsions:
REMARK  status: ('A' for Active; 'I' for Inactive)
REMARK    1  A    between atoms: C2_2  and  C3_3 
REMARK    2  A    between atoms: C3_3  and  N1_4 
REMARK    3  A    between atoms: N1_4  and  C4_5 
REMARK    4  A    between atoms: N1_4  and  C6_7 
REMARK    5  A    between atoms: C6_7  and  C7_8 
REMARK    6  A    between atoms: C8_11  and  N3_12 
REMARK    7  A    between atoms: N3_12  and  C9_14 
REMARK    8  A    between atoms: C9_14  and  O1_15 
REMARK    9  A    between atoms: C9_14  and  C10_17 
REMARK   10  A    between atoms: C10_17  and  C11_18 
REMARK   11  A    between atoms: C11_18  and  C13_20 
ROOT
HETATM    1  C7  UNL     1      50.907  50.281  19.056  1.00  0.00     0.218 C 
HETATM    2  N2  UNL     1      50.928  51.715  19.421  1.00  0.00    -0.209 N 
ATOM      3  H2  UNL     1      51.268  52.429  18.777  1.00  0.00     0.178 HD
HETATM    4  C8  UNL     1      50.457  52.036  20.694  1.00  0.00     0.701 C 
HETATM    5  N4  UNL     1      50.582  51.150  21.668  1.00  0.00    -0.088 N 
ATOM      6  H4  UNL     1      50.238  51.388  22.598  1.00  0.00     0.214 HD
HETATM    7  O2  UNL     1      51.160  49.923  21.471  1.00  0.00    -0.183 OA
HETATM    8  C17 UNL     1      51.624  49.605  20.206  1.00  0.00     0.306 C 
HETATM    9  O3  UNL     1      52.578  48.810  20.023  1.00  0.00    -0.261 OA
ENDROOT
BRANCH   4  10
HETATM   10  N3  UNL     1      49.853  53.263  21.034  1.00  0.00    -0.169 N 
ATOM     11  H3  UNL     1      49.691  53.460  22.022  1.00  0.00     0.186 HD
BRANCH  10  12
HETATM   12  C9  UNL     1      49.467  54.212  20.116  1.00  0.00     0.155 C 
BRANCH  12  13
HETATM   13  O1  UNL     1      50.350  54.650  19.239  1.00  0.00    -0.346 OA
ATOM     14  H1  UNL     1      50.996  55.290  19.516  1.00  0.00     0.219 HD
ENDBRANCH  12  13
BRANCH  12  15
HETATM   15  C10 UNL     1      48.199  54.837  19.947  1.00  0.00     0.059 C 
BRANCH  15  16
HETATM   16  C11 UNL     1      47.770  56.000  20.263  1.00  0.00    -0.072 C 
HETATM   17  C12 UNL     1      48.179  56.815  21.434  1.00  0.00     0.044 C 
BRANCH  16  18
HETATM   18  C13 UNL     1      46.729  56.667  19.381  1.00  0.00    -0.028 C 
HETATM   19  C14 UNL     1      47.183  58.100  19.214  1.00  0.00     0.019 C 
HETATM   20  C15 UNL     1      45.372  56.670  19.971  1.00  0.00     0.019 C 
HETATM   21  C16 UNL     1      46.804  55.914  18.066  1.00  0.00     0.019 C 
ENDBRANCH  16  18
ENDBRANCH  15  16
ENDBRANCH  12  15
ENDBRANCH  10  12
ENDBRANCH   4  10
BRANCH   1  22
HETATM   22  C6  UNL     1      49.520  49.778  18.967  1.00  0.00     0.153 C 
BRANCH  22  23
HETATM   23  N1  UNL     1      49.028  49.410  17.692  1.00  0.00    -0.410 N 
BRANCH  23  24
HETATM   24  C3  UNL     1      48.828  50.481  16.779  1.00  0.00     0.116 C 
BRANCH  24  25
HETATM   25  C2  UNL     1      47.840  51.457  17.340  1.00  0.00     0.015 C 
HETATM   26  C1  UNL     1      46.620  51.613  16.453  1.00  0.00     0.006 C 
ENDBRANCH  24  25
ENDBRANCH  23  24
BRANCH  23  27
HETATM   27  C4  UNL     1      48.133  48.326  17.611  1.00  0.00     0.112 C 
HETATM   28  C5  UNL     1      47.788  47.730  18.980  1.00  0.00     0.026 C 
ENDBRANCH  23  27
ENDBRANCH  22  23
ENDBRANCH   1  22
TORSDOF 11
ENDMDL
MODEL 3
REMARK VINA RESULT: -7.992794033      1.246      2.114
REMARK  11 active torsions:
REMARK  status: ('A' for Active; 'I' for Inactive)
REMARK    1  A    between atoms: C2_2  and  C3_3 
REMARK    2  A    between atoms: C3_3  and  N1_4 
REMARK    3  A    between atoms: N1_4  and  C4_5 
REMARK    4  A    between atoms: N1_4  and  C6_7 
REMARK    5  A    between atoms: C6_7  and  C7_8 
REMARK    6  A    between atoms: C8_11  and  N3_12 
REMARK    7  A    between atoms: N3_12  and  C9_14 
REMARK    8  A    between atoms: C9_14  and  O1_15 
REMARK    9  A    between atoms: C9_14  and  C10_17 
REMARK   10  A    between atoms: C10_17  and  C11_18 
REMARK   11  A    between atoms: C11_18  and  C13_20 
ROOT
HETATM    1  C7  UNL     1      50.546  49.607  19.064  1.00  0.00     0.218 C 
HETATM    2  N2  UNL     1      50.323  51.062  19.211  1.00  0.00    -0.209 N 
ATOM      3  H2  UNL     1      50.378  51.698  18.417  1.00  0.00     0.178 HD
HETATM    4  C8  UNL     1      50.032  51.515  20.499  1.00  0.00     0.701 C 
HETATM    5  N4  UNL     1      50.520  50.858  21.538  1.00  0.00    -0.088 N 
ATOM      6  H4  UNL     1      50.307  51.193  22.477  1.00  0.00     0.214 HD
HETATM    7  O2  UNL     1      51.304  49.743  21.395  1.00  0.00    -0.183 OA
HETATM    8  C17 UNL     1      51.589  49.293  20.117  1.00  0.00     0.306 C 
HETATM    9  O3  UNL     1      52.643  48.666  19.846  1.00  0.00    -0.261 OA
ENDROOT
BRANCH   4  10
HETATM   10  N3  UNL     1      49.249  52.652  20.786  1.00  0.00    -0.169 N 
ATOM     11  H3  UNL     1      48.926  52.781  21.744  1.00  0.00     0.186 HD
BRANCH  10  12
HETATM   12  C9  UNL     1      48.893  53.597  19.851  1.00  0.00     0.155 C 
BRANCH  12  13
HETATM   13  O1  UNL     1      48.230  53.217  18.776  1.00  0.00    -0.346 OA
ATOM     14  H1  UNL     1      47.756  53.868  18.273  1.00  0.00     0.219 HD
ENDBRANCH  12  13
BRANCH  12  15
HETATM   15  C10 UNL     1      49.137  55.000  19.854  1.00  0.00     0.059 C 
BRANCH  15  16
HETATM   16  C11 UNL     1      48.695  55.943  20.597  1.00  0.00    -0.072 C 
HETATM   17  C12 UNL     1      47.321  56.504  20.605  1.00  0.00     0.044 C 
BRANCH  16  18
HETATM   18  C13 UNL     1      49.632  56.595  21.599  1.00  0.00    -0.028 C 
HETATM   19  C14 UNL     1      50.704  57.280  20.780  1.00  0.00     0.019 C 
HETATM   20  C15 UNL     1      50.284  55.629  22.511  1.00  0.00     0.019 C 
HETATM   21  C16 UNL     1      48.769  57.610  22.324  1.00  0.00     0.019 C 
ENDBRANCH  16  18
ENDBRANCH  15  16
ENDBRANCH  12  15
ENDBRANCH  10  12
ENDBRANCH   4  10
BRANCH   1  22
HETATM   22  C6  UNL     1      49.308  48.850  19.346  1.00  0.00     0.153 C 
BRANCH  22  23
HETATM   23  N1  UNL     1      48.446  48.560  18.260  1.00  0.00    -0.410 N 
BRANCH  23  24
HETATM   24  C3  UNL     1      47.795  47.298  18.314  1.00  0.00     0.116 C 
BRANCH  24  25
HETATM   25  C2  UNL     1      46.454  47.439  18.966  1.00  0.00     0.015 C 
HETATM   26  C1  UNL     1      45.364  47.781  17.969  1.00  0.00     0.006 C 
ENDBRANCH  24  25
ENDBRANCH  23  24
BRANCH  23  27
HETATM   27  C4  UNL     1      48.798  49.044  16.985  1.00  0.00     0.112 C 
HETATM   28  C5  UNL     1      48.420  48.083  15.854  1.00  0.00     0.026 C 
ENDBRANCH  23  27
ENDBRANCH  22  23
ENDBRANCH   1  22
TORSDOF 11
ENDMDL
MODEL 4
REMARK VINA RESULT: -7.954217484      2.175      6.936
REMARK  11 active torsions:
REMARK  status: ('A' for Active; 'I' for Inactive)
REMARK    1  A    between atoms: C2_2  and  C3_3 
REMARK    2  A    between atoms: C3_3  and  N1_4 
REMARK    3  A    between atoms: N1_4  and  C4_5 
REMARK    4  A    between atoms: N1_4  and  C6_7 
REMARK    5  A    between atoms: C6_7  and  C7_8 
REMARK    6  A    between atoms: C8_11  and  N3_12 
REMARK    7  A    between atoms: N3_12  and  C9_14 
REMARK    8  A    between atoms: C9_14  and  O1_15 
REMARK    9  A    between atoms: C9_14  and  C10_17 
REMARK   10  A    between atoms: C10_17  and  C11_18 
REMARK   11  A    between atoms: C11_18  and  C13_20 
ROOT
HETATM    1  C7  UNL     1      50.542  51.541  19.976  1.00  0.00     0.218 C 
HETATM    2  N2  UNL     1      50.463  50.093  20.271  1.00  0.00    -0.209 N 
ATOM      3  H2  UNL     1      50.808  49.702  21.147  1.00  0.00     0.178 HD
HETATM    4  C8  UNL     1      49.888  49.292  19.283  1.00  0.00     0.701 C 
HETATM    5  N4  UNL     1      49.993  49.659  18.017  1.00  0.00    -0.088 N 
ATOM      6  H4  UNL     1      49.573  49.071  17.297  1.00  0.00     0.214 HD
HETATM    7  O2  UNL     1      50.647  50.802  17.638  1.00  0.00    -0.183 OA
HETATM    8  C17 UNL     1      51.213  51.597  18.620  1.00  0.00     0.306 C 
HETATM    9  O3  UNL     1      52.218  52.318  18.402  1.00  0.00    -0.261 OA
ENDROOT
BRANCH   4  10
HETATM   10  N3  UNL     1      49.199  48.089  19.534  1.00  0.00    -0.169 N 
ATOM     11  H3  UNL     1      49.471  47.542  20.351  1.00  0.00     0.186 HD
BRANCH  10  12
HETATM   12  C9  UNL     1      48.180  47.606  18.745  1.00  0.00     0.155 C 
BRANCH  12  13
HETATM   13  O1  UNL     1      48.481  46.998  17.613  1.00  0.00    -0.346 OA
ATOM     14  H1  UNL     1      48.906  47.494  16.923  1.00  0.00     0.219 HD
ENDBRANCH  12  13
BRANCH  12  15
HETATM   15  C10 UNL     1      46.774  47.657  18.961  1.00  0.00     0.059 C 
BRANCH  15  16
HETATM   16  C11 UNL     1      45.790  47.796  18.155  1.00  0.00    -0.072 C 
HETATM   17  C12 UNL     1      45.556  48.922  17.217  1.00  0.00     0.044 C 
BRANCH  16  18
HETATM   18  C13 UNL     1      44.716  46.723  18.110  1.00  0.00    -0.028 C 
HETATM   19  C14 UNL     1      43.498  47.379  17.499  1.00  0.00     0.019 C 
HETATM   20  C15 UNL     1      44.349  46.200  19.445  1.00  0.00     0.019 C 
HETATM   21  C16 UNL     1      45.280  45.658  17.189  1.00  0.00     0.019 C 
ENDBRANCH  16  18
ENDBRANCH  15  16
ENDBRANCH  12  15
ENDBRANCH  10  12
ENDBRANCH   4  10
BRANCH   1  22
HETATM   22  C6  UNL     1      49.193  52.138  19.892  1.00  0.00     0.153 C 
BRANCH  22  23
HETATM   23  N1  UNL     1      49.081  53.453  19.380  1.00  0.00    -0.410 N 
BRANCH  23  24
HETATM   24  C3  UNL     1      49.453  54.494  20.274  1.00  0.00     0.116 C 
BRANCH  24  25
HETATM   25  C2  UNL     1      48.388  55.547  20.308  1.00  0.00     0.015 C 
HETATM   26  C1  UNL     1      48.636  56.577  21.393  1.00  0.00     0.006 C 
ENDBRANCH  24  25
ENDBRANCH  23  24
BRANCH  23  27
HETATM   27  C4  UNL     1      48.035  53.730  18.478  1.00  0.00     0.112 C 
HETATM   28  C5  UNL     1      47.611  52.506  17.659  1.00  0.00     0.026 C 
ENDBRANCH  23  27
ENDBRANCH  22  23
ENDBRANCH   1  22
TORSDOF 11
ENDMDL
MODEL 5
REMARK VINA RESULT: -7.934922186      0.355      1.815
REMARK  11 active torsions:
REMARK  status: ('A' for Active; 'I' for Inactive)
REMARK    1  A    between atoms: C2_2  and  C3_3 
REMARK    2  A    between atoms: C3_3  and  N1_4 
REMARK    3  A    between atoms: N1_4  and  C4_5 
REMARK    4  A    between atoms: N1_4  and  C6_7 
REMARK    5  A    between atoms: C6_7  and  C7_8 
REMARK    6  A    between atoms: C8_11  and  N3_12 
REMARK    7  A    between atoms: N3_12  and  C9_14 
REMARK    8  A    between atoms: C9_14  and  O1_15 
REMARK    9  A    between atoms: C9_14  and  C10_17 
REMARK   10  A    between atoms: C10_17  and  C11_18 
REMARK   11  A    between atoms: C11_18  and  C13_20 
ROOT
HETATM    1  C7  UNL     1      50.762  50.172  19.064  1.00  0.00     0.218 C 
HETATM    2  N2  UNL     1      50.744  51.618  19.374  1.00  0.00    -0.209 N 
ATOM      3  H2  UNL     1      51.002  52.321  18.681  1.00  0.00     0.178 HD
HETATM    4  C8  UNL     1      50.353  51.969  20.667  1.00  0.00     0.701 C 
HETATM    5  N4  UNL     1      50.591  51.129  21.660  1.00  0.00    -0.088 N 
ATOM      6  H4  UNL     1      50.306  51.388  22.604  1.00  0.00     0.214 HD
HETATM    7  O2  UNL     1      51.210  49.921  21.464  1.00  0.00    -0.183 OA
HETATM    8  C17 UNL     1      51.594  49.575  20.181  1.00  0.00     0.306 C 
HETATM    9  O3  UNL     1      52.568  48.815  19.954  1.00  0.00    -0.261 OA
ENDROOT
BRANCH   4  10
HETATM   10  N3  UNL     1      49.719  53.181  21.007  1.00  0.00    -0.169 N 
ATOM     11  H3  UNL     1      49.496  53.345  21.988  1.00  0.00     0.186 HD
BRANCH  10  12
HETATM   12  C9  UNL     1      49.383  54.156  20.096  1.00  0.00     0.155 C 
BRANCH  12  13
HETATM   13  O1  UNL     1      50.294  54.572  19.238  1.00  0.00    -0.346 OA
ATOM     14  H1  UNL     1      50.140  54.452  18.308  1.00  0.00     0.219 HD
ENDBRANCH  12  13
BRANCH  12  15
HETATM   15  C10 UNL     1      48.141  54.830  19.918  1.00  0.00     0.059 C 
BRANCH  15  16
HETATM   16  C11 UNL     1      47.752  56.004  20.244  1.00  0.00    -0.072 C 
HETATM   17  C12 UNL     1      48.210  56.806  21.405  1.00  0.00     0.044 C 
BRANCH  16  18
HETATM   18  C13 UNL     1      46.709  56.700  19.387  1.00  0.00    -0.028 C 
HETATM   19  C14 UNL     1      47.161  58.139  19.270  1.00  0.00     0.019 C 
HETATM   20  C15 UNL     1      45.352  56.680  19.976  1.00  0.00     0.019 C 
HETATM   21  C16 UNL     1      46.786  55.995  18.046  1.00  0.00     0.019 C 
ENDBRANCH  16  18
ENDBRANCH  15  16
ENDBRANCH  12  15
ENDBRANCH  10  12
ENDBRANCH   4  10
BRANCH   1  22
HETATM   22  C6  UNL     1      49.398  49.605  19.099  1.00  0.00     0.153 C 
BRANCH  22  23
HETATM   23  N1  UNL     1      48.842  49.141  17.882  1.00  0.00    -0.410 N 
BRANCH  23  24
HETATM   24  C3  UNL     1      49.407  49.690  16.700  1.00  0.00     0.116 C 
BRANCH  24  25
HETATM   25  C2  UNL     1      48.733  49.115  15.493  1.00  0.00     0.015 C 
HETATM   26  C1  UNL     1      49.724  48.726  14.413  1.00  0.00     0.006 C 
ENDBRANCH  24  25
ENDBRANCH  23  24
BRANCH  23  27
HETATM   27  C4  UNL     1      47.466  48.840  17.852  1.00  0.00     0.112 C 
HETATM   28  C5  UNL     1      47.091  47.659  18.754  1.00  0.00     0.026 C 
ENDBRANCH  23  27
ENDBRANCH  22  23
ENDBRANCH   1  22
TORSDOF 11
ENDMDL
