MODEL 1
REMARK VINA RESULT: -8.422222830      0.000      0.000
REMARK  8 active torsions:
REMARK  status: ('A' for Active; 'I' for Inactive)
REMARK    1  A    between atoms: C2_2  and  C3_3 
REMARK       I    between atoms: C3_3  and  N1_5 
REMARK    2  A    between atoms: C4_7  and  C5_8 
REMARK    3  A    between atoms: C4_7  and  N5_20 
REMARK    4  A    between atoms: C5_8  and  C6_9 
REMARK    5  A    between atoms: C6_9  and  C7_10 
REMARK    6  A    between atoms: C7_10  and  S1_11 
REMARK    7  A    between atoms: S1_11  and  C8_12 
REMARK    8  A    between atoms: N5_20  and  C10_22 
ROOT
HETATM    1  C10 UNL     1      48.597  50.053  16.701  1.00  0.00     0.120 C 
HETATM    2  C11 UNL     1      48.599  49.371  15.408  1.00  0.00     0.091 C 
HETATM    3  N6  UNL     1      48.588  48.837  14.403  1.00  0.00    -0.195 NA
HETATM    4  C12 UNL     1      48.014  49.181  17.789  1.00  0.00     0.046 C 
HETATM    5  C13 UNL     1      46.547  49.152  17.406  1.00  0.00     0.004 C 
HETATM    6  C14 UNL     1      46.280  50.415  16.622  1.00  0.00     0.004 C 
HETATM    7  C15 UNL     1      47.601  51.192  16.652  1.00  0.00     0.046 C 
ENDROOT
BRANCH   1   8
HETATM    8  N5  UNL     1      49.897  50.567  17.027  1.00  0.00    -0.358 N 
ATOM      9  H5  UNL     1      50.433  51.018  16.286  1.00  0.00     0.162 HD
BRANCH   8  10
HETATM   10  C4  UNL     1      50.480  50.485  18.315  1.00  0.00     0.080 C 
HETATM   11  N1  UNL     1      50.725  49.336  18.808  1.00  0.00    -0.317 N 
HETATM   12  C3  UNL     1      51.309  49.240  20.095  1.00  0.00     0.222 C 
ATOM     13  H1  UNL     1      50.502  48.492  18.280  1.00  0.00     0.170 HD
HETATM   14  O1  UNL     1      52.549  49.307  20.258  1.00  0.00    -0.273 OA
BRANCH  12  15
HETATM   15  C2  UNL     1      50.441  49.058  21.280  1.00  0.00     0.098 C 
HETATM   16  C1  UNL     1      49.480  47.934  21.018  1.00  0.00     0.014 C 
ENDBRANCH  12  15
BRANCH  10  17
HETATM   17  C5  UNL     1      50.801  51.704  19.074  1.00  0.00     0.077 C 
BRANCH  17  18
HETATM   18  C6  UNL     1      49.556  52.351  19.656  1.00  0.00     0.018 C 
BRANCH  18  19
HETATM   19  C7  UNL     1      49.943  53.120  20.901  1.00  0.00     0.081 C 
BRANCH  19  20
HETATM   20  S1  UNL     1      49.684  54.907  20.658  1.00  0.00    -0.110 SA
BRANCH  20  21
HETATM   21  C8  UNL     1      51.118  55.817  21.182  1.00  0.00     0.102 A 
HETATM   22  C9  UNL     1      52.241  56.176  20.448  1.00  0.00     0.146 A 
HETATM   23  N2  UNL     1      53.062  56.855  21.255  1.00  0.00    -0.295 N 
HETATM   24  N3  UNL     1      52.498  56.929  22.439  1.00  0.00    -0.242 N 
ATOM     25  H2  UNL     1      53.968  57.247  20.997  1.00  0.00     0.187 HD
HETATM   26  N4  UNL     1      51.323  56.306  22.410  1.00  0.00    -0.279 N 
ATOM     27  H3  UNL     1      52.899  57.391  23.255  1.00  0.00     0.208 HD
ATOM     28  H4  UNL     1      50.681  56.217  23.197  1.00  0.00     0.189 HD
ENDBRANCH  20  21
ENDBRANCH  19  20
ENDBRANCH  18  19
ENDBRANCH  17  18
ENDBRANCH  10  17
ENDBRANCH   8  10
ENDBRANCH   1   8
TORSDOF 8
ENDMDL
MODEL 2
REMARK VINA RESULT: -8.373562698      3.913      7.168
REMARK  8 active torsions:
REMARK  status: ('A' for Active; 'I' for Inactive)
REMARK    1  A    between atoms: C2_2  and  C3_3 
REMARK       I    between atoms: C3_3  and  N1_5 
REMARK    2  A    between atoms: C4_7  and  C5_8 
REMARK    3  A    between atoms: C4_7  and  N5_20 
REMARK    4  A    between atoms: C5_8  and  C6_9 
REMARK    5  A    between atoms: C6_9  and  C7_10 
REMARK    6  A    between atoms: C7_10  and  S1_11 
REMARK    7  A    between atoms: S1_11  and  C8_12 
REMARK    8  A    between atoms: N5_20  and  C10_22 
ROOT
HETATM    1  C10 UNL     1      46.676  56.681  19.399  1.00  0.00     0.120 C 
HETATM    2  C11 UNL     1      46.858  56.093  18.073  1.00  0.00     0.091 C 
HETATM    3  N6  UNL     1      46.991  55.644  17.035  1.00  0.00    -0.195 NA
HETATM    4  C12 UNL     1      45.219  56.956  19.690  1.00  0.00     0.046 C 
HETATM    5  C13 UNL     1      44.932  58.112  18.751  1.00  0.00     0.004 C 
HETATM    6  C14 UNL     1      46.249  58.809  18.508  1.00  0.00     0.004 C 
HETATM    7  C15 UNL     1      47.260  58.077  19.398  1.00  0.00     0.046 C 
ENDROOT
BRANCH   1   8
HETATM    8  N5  UNL     1      47.315  55.894  20.415  1.00  0.00    -0.358 N 
ATOM      9  H5  UNL     1      46.723  55.350  21.042  1.00  0.00     0.162 HD
BRANCH   8  10
HETATM   10  C4  UNL     1      48.717  55.827  20.599  1.00  0.00     0.080 C 
HETATM   11  N1  UNL     1      49.237  56.434  21.592  1.00  0.00    -0.317 N 
HETATM   12  C3  UNL     1      50.639  56.375  21.787  1.00  0.00     0.222 C 
ATOM     13  H1  UNL     1      48.648  56.958  22.240  1.00  0.00     0.170 HD
HETATM   14  O1  UNL     1      51.174  55.422  22.399  1.00  0.00    -0.273 OA
BRANCH  12  15
HETATM   15  C2  UNL     1      51.498  57.459  21.261  1.00  0.00     0.098 C 
HETATM   16  C1  UNL     1      52.830  56.886  20.870  1.00  0.00     0.014 C 
ENDBRANCH  12  15
BRANCH  10  17
HETATM   17  C5  UNL     1      49.563  55.070  19.663  1.00  0.00     0.077 C 
BRANCH  17  18
HETATM   18  C6  UNL     1      49.268  53.581  19.710  1.00  0.00     0.018 C 
BRANCH  18  19
HETATM   19  C7  UNL     1      50.530  52.846  20.105  1.00  0.00     0.081 C 
BRANCH  19  20
HETATM   20  S1  UNL     1      50.216  51.751  21.527  1.00  0.00    -0.110 SA
BRANCH  20  21
HETATM   21  C8  UNL     1      50.604  50.067  21.111  1.00  0.00     0.102 A 
HETATM   22  C9  UNL     1      51.580  49.584  20.248  1.00  0.00     0.146 A 
HETATM   23  N2  UNL     1      51.505  48.249  20.248  1.00  0.00    -0.295 N 
HETATM   24  N3  UNL     1      50.537  47.896  21.063  1.00  0.00    -0.242 N 
ATOM     25  H2  UNL     1      52.095  47.615  19.709  1.00  0.00     0.187 HD
HETATM   26  N4  UNL     1      49.984  48.985  21.592  1.00  0.00    -0.279 N 
ATOM     27  H3  UNL     1      50.253  46.937  21.260  1.00  0.00     0.208 HD
ATOM     28  H4  UNL     1      49.211  48.992  22.257  1.00  0.00     0.189 HD
ENDBRANCH  20  21
ENDBRANCH  19  20
ENDBRANCH  18  19
ENDBRANCH  17  18
ENDBRANCH  10  17
ENDBRANCH   8  10
ENDBRANCH   1   8
TORSDOF 8
ENDMDL
MODEL 3
REMARK VINA RESULT: -8.324446008      0.824      1.353
REMARK  8 active torsions:
REMARK  status: ('A' for Active; 'I' for Inactive)
REMARK    1  A    between atoms: C2_2  and  C3_3 
REMARK       I    between atoms: C3_3  and  N1_5 
REMARK    2  A    between atoms: C4_7  and  C5_8 
REMARK    3  A    between atoms: C4_7  and  N5_20 
REMARK    4  A    between atoms: C5_8  and  C6_9 
REMARK    5  A    between atoms: C6_9  and  C7_10 
REMARK    6  A    between atoms: C7_10  and  S1_11 
REMARK    7  A    between atoms: S1_11  and  C8_12 
REMARK    8  A    between atoms: N5_20  and  C10_22 
ROOT
HETATM    1  C10 UNL     1      48.451  49.963  16.785  1.00  0.00     0.120 C 
HETATM    2  C11 UNL     1      47.957  48.976  17.743  1.00  0.00     0.091 C 
HETATM    3  N6  UNL     1      47.561  48.208  18.484  1.00  0.00    -0.195 NA
HETATM    4  C12 UNL     1      47.634  51.234  16.826  1.00  0.00     0.046 C 
HETATM    5  C13 UNL     1      46.324  50.777  16.214  1.00  0.00     0.004 C 
HETATM    6  C14 UNL     1      46.650  49.600  15.326  1.00  0.00     0.004 C 
HETATM    7  C15 UNL     1      48.176  49.465  15.383  1.00  0.00     0.046 C 
ENDROOT
BRANCH   1   8
HETATM    8  N5  UNL     1      49.858  50.193  16.945  1.00  0.00    -0.358 N 
ATOM      9  H5  UNL     1      50.422  50.317  16.105  1.00  0.00     0.162 HD
BRANCH   8  10
HETATM   10  C4  UNL     1      50.512  50.259  18.200  1.00  0.00     0.080 C 
HETATM   11  N1  UNL     1      50.705  49.181  18.851  1.00  0.00    -0.317 N 
HETATM   12  C3  UNL     1      51.358  49.234  20.108  1.00  0.00     0.222 C 
ATOM     13  H1  UNL     1      50.392  48.288  18.470  1.00  0.00     0.170 HD
HETATM   14  O1  UNL     1      52.607  49.226  20.196  1.00  0.00    -0.273 OA
BRANCH  12  15
HETATM   15  C2  UNL     1      50.553  49.299  21.348  1.00  0.00     0.098 C 
HETATM   16  C1  UNL     1      49.600  48.139  21.377  1.00  0.00     0.014 C 
ENDBRANCH  12  15
BRANCH  10  17
HETATM   17  C5  UNL     1      50.963  51.549  18.746  1.00  0.00     0.077 C 
BRANCH  17  18
HETATM   18  C6  UNL     1      49.815  52.341  19.348  1.00  0.00     0.018 C 
BRANCH  18  19
HETATM   19  C7  UNL     1      50.301  53.025  20.607  1.00  0.00     0.081 C 
BRANCH  19  20
HETATM   20  S1  UNL     1      49.845  54.789  20.596  1.00  0.00    -0.110 SA
BRANCH  20  21
HETATM   21  C8  UNL     1      51.202  55.784  21.166  1.00  0.00     0.102 A 
HETATM   22  C9  UNL     1      52.333  56.198  20.474  1.00  0.00     0.146 A 
HETATM   23  N2  UNL     1      53.081  56.931  21.307  1.00  0.00    -0.295 N 
HETATM   24  N3  UNL     1      52.465  56.984  22.465  1.00  0.00    -0.242 N 
ATOM     25  H2  UNL     1      53.973  57.371  21.081  1.00  0.00     0.187 HD
HETATM   26  N4  UNL     1      51.328  56.296  22.395  1.00  0.00    -0.279 N 
ATOM     27  H3  UNL     1      52.805  57.476  23.291  1.00  0.00     0.208 HD
ATOM     28  H4  UNL     1      50.660  56.178  23.157  1.00  0.00     0.189 HD
ENDBRANCH  20  21
ENDBRANCH  19  20
ENDBRANCH  18  19
ENDBRANCH  17  18
ENDBRANCH  10  17
ENDBRANCH   8  10
ENDBRANCH   1   8
TORSDOF 8
ENDMDL
MODEL 4
REMARK VINA RESULT: -8.252837662      1.009      1.330
REMARK  8 active torsions:
REMARK  status: ('A' for Active; 'I' for Inactive)
REMARK    1  A    between atoms: C2_2  and  C3_3 
REMARK       I    between atoms: C3_3  and  N1_5 
REMARK    2  A    between atoms: C4_7  and  C5_8 
REMARK    3  A    between atoms: C4_7  and  N5_20 
REMARK    4  A    between atoms: C5_8  and  C6_9 
REMARK    5  A    between atoms: C6_9  and  C7_10 
REMARK    6  A    between atoms: C7_10  and  S1_11 
REMARK    7  A    between atoms: S1_11  and  C8_12 
REMARK    8  A    between atoms: N5_20  and  C10_22 
ROOT
HETATM    1  C10 UNL     1      48.427  49.408  16.677  1.00  0.00     0.120 C 
HETATM    2  C11 UNL     1      47.585  50.481  16.149  1.00  0.00     0.091 C 
HETATM    3  N6  UNL     1      46.920  51.308  15.737  1.00  0.00    -0.195 NA
HETATM    4  C12 UNL     1      48.338  48.162  15.826  1.00  0.00     0.046 C 
HETATM    5  C13 UNL     1      46.930  47.685  16.127  1.00  0.00     0.004 C 
HETATM    6  C14 UNL     1      46.575  48.219  17.493  1.00  0.00     0.004 C 
HETATM    7  C15 UNL     1      47.842  48.928  17.988  1.00  0.00     0.046 C 
ENDROOT
BRANCH   1   8
HETATM    8  N5  UNL     1      49.775  49.852  16.887  1.00  0.00    -0.358 N 
ATOM      9  H5  UNL     1      50.356  50.021  16.067  1.00  0.00     0.162 HD
BRANCH   8  10
HETATM   10  C4  UNL     1      50.346  50.070  18.164  1.00  0.00     0.080 C 
HETATM   11  N1  UNL     1      50.684  49.063  18.868  1.00  0.00    -0.317 N 
HETATM   12  C3  UNL     1      51.257  49.268  20.147  1.00  0.00     0.222 C 
ATOM     13  H1  UNL     1      50.543  48.117  18.512  1.00  0.00     0.170 HD
HETATM   14  O1  UNL     1      52.484  49.474  20.289  1.00  0.00    -0.273 OA
BRANCH  12  15
HETATM   15  C2  UNL     1      50.393  49.241  21.349  1.00  0.00     0.098 C 
HETATM   16  C1  UNL     1      49.479  48.052  21.269  1.00  0.00     0.014 C 
ENDBRANCH  12  15
BRANCH  10  17
HETATM   17  C5  UNL     1      50.549  51.436  18.674  1.00  0.00     0.077 C 
BRANCH  17  18
HETATM   18  C6  UNL     1      49.250  52.058  19.158  1.00  0.00     0.018 C 
BRANCH  18  19
HETATM   19  C7  UNL     1      49.513  52.787  20.457  1.00  0.00     0.081 C 
BRANCH  19  20
HETATM   20  S1  UNL     1      49.214  54.574  20.263  1.00  0.00    -0.110 SA
BRANCH  20  21
HETATM   21  C8  UNL     1      50.556  55.507  20.959  1.00  0.00     0.102 A 
HETATM   22  C9  UNL     1      51.733  55.929  20.353  1.00  0.00     0.146 A 
HETATM   23  N2  UNL     1      52.447  56.600  21.262  1.00  0.00    -0.295 N 
HETATM   24  N3  UNL     1      51.768  56.609  22.386  1.00  0.00    -0.242 N 
ATOM     25  H2  UNL     1      53.359  57.031  21.110  1.00  0.00     0.187 HD
HETATM   26  N4  UNL     1      50.623  55.952  22.218  1.00  0.00    -0.279 N 
ATOM     27  H3  UNL     1      52.071  57.050  23.255  1.00  0.00     0.208 HD
ATOM     28  H4  UNL     1      49.911  55.810  22.934  1.00  0.00     0.189 HD
ENDBRANCH  20  21
ENDBRANCH  19  20
ENDBRANCH  18  19
ENDBRANCH  17  18
ENDBRANCH  10  17
ENDBRANCH   8  10
ENDBRANCH   1   8
TORSDOF 8
ENDMDL
MODEL 5
REMARK VINA RESULT: -8.168511527      1.533      2.064
REMARK  8 active torsions:
REMARK  status: ('A' for Active; 'I' for Inactive)
REMARK    1  A    between atoms: C2_2  and  C3_3 
REMARK       I    between atoms: C3_3  and  N1_5 
REMARK    2  A    between atoms: C4_7  and  C5_8 
REMARK    3  A    between atoms: C4_7  and  N5_20 
REMARK    4  A    between atoms: C5_8  and  C6_9 
REMARK    5  A    between atoms: C6_9  and  C7_10 
REMARK    6  A    between atoms: C7_10  and  S1_11 
REMARK    7  A    between atoms: S1_11  and  C8_12 
REMARK    8  A    between atoms: N5_20  and  C10_22 
ROOT
HETATM    1  C10 UNL     1      48.448  49.447  16.673  1.00  0.00     0.120 C 
HETATM    2  C11 UNL     1      47.595  50.508  16.142  1.00  0.00     0.091 C 
HETATM    3  N6  UNL     1      46.921  51.326  15.726  1.00  0.00    -0.195 NA
HETATM    4  C12 UNL     1      48.394  48.206  15.811  1.00  0.00     0.046 C 
HETATM    5  C13 UNL     1      46.991  47.701  16.089  1.00  0.00     0.004 C 
HETATM    6  C14 UNL     1      46.608  48.219  17.454  1.00  0.00     0.004 C 
HETATM    7  C15 UNL     1      47.854  48.946  17.972  1.00  0.00     0.046 C 
ENDROOT
BRANCH   1   8
HETATM    8  N5  UNL     1      49.785  49.913  16.905  1.00  0.00    -0.358 N 
ATOM      9  H5  UNL     1      50.370  50.115  16.094  1.00  0.00     0.162 HD
BRANCH   8  10
HETATM   10  C4  UNL     1      50.342  50.110  18.192  1.00  0.00     0.080 C 
HETATM   11  N1  UNL     1      50.697  49.092  18.872  1.00  0.00    -0.317 N 
HETATM   12  C3  UNL     1      51.256  49.275  20.161  1.00  0.00     0.222 C 
ATOM     13  H1  UNL     1      50.579  48.153  18.490  1.00  0.00     0.170 HD
HETATM   14  O1  UNL     1      52.477  49.503  20.317  1.00  0.00    -0.273 OA
BRANCH  12  15
HETATM   15  C2  UNL     1      50.384  49.197  21.354  1.00  0.00     0.098 C 
HETATM   16  C1  UNL     1      49.487  47.999  21.230  1.00  0.00     0.014 C 
ENDBRANCH  12  15
BRANCH  10  17
HETATM   17  C5  UNL     1      50.512  51.466  18.739  1.00  0.00     0.077 C 
BRANCH  17  18
HETATM   18  C6  UNL     1      49.178  52.114  19.066  1.00  0.00     0.018 C 
BRANCH  18  19
HETATM   19  C7  UNL     1      49.275  52.771  20.425  1.00  0.00     0.081 C 
BRANCH  19  20
HETATM   20  S1  UNL     1      50.301  54.275  20.340  1.00  0.00    -0.110 SA
BRANCH  20  21
HETATM   21  C8  UNL     1      49.458  55.644  21.096  1.00  0.00     0.102 A 
HETATM   22  C9  UNL     1      48.230  56.203  20.768  1.00  0.00     0.146 A 
HETATM   23  N2  UNL     1      47.999  57.215  21.609  1.00  0.00    -0.295 N 
HETATM   24  N3  UNL     1      49.020  57.301  22.431  1.00  0.00    -0.242 N 
ATOM     25  H2  UNL     1      47.174  57.816  21.613  1.00  0.00     0.187 HD
HETATM   26  N4  UNL     1      49.910  56.358  22.132  1.00  0.00    -0.279 N 
ATOM     27  H3  UNL     1      49.117  57.986  23.181  1.00  0.00     0.208 HD
ATOM     28  H4  UNL     1      50.794  56.205  22.617  1.00  0.00     0.189 HD
ENDBRANCH  20  21
ENDBRANCH  19  20
ENDBRANCH  18  19
ENDBRANCH  17  18
ENDBRANCH  10  17
ENDBRANCH   8  10
ENDBRANCH   1   8
TORSDOF 8
ENDMDL
