MODEL 1
REMARK VINA RESULT: -8.775083691      0.000      0.000
REMARK  11 active torsions:
REMARK  status: ('A' for Active; 'I' for Inactive)
REMARK    1  A    between atoms: C2_2  and  N1_4 
REMARK    2  A    between atoms: C2_2  and  C4_8 
REMARK    3  A    between atoms: C4_8  and  C5_9 
REMARK    4  A    between atoms: C6_10  and  O1_11 
REMARK    5  A    between atoms: N2_13  and  C7_14 
REMARK    6  A    between atoms: C7_14  and  C8_15 
REMARK       I    between atoms: C8_15  and  N3_17 
REMARK    7  A    between atoms: N3_17  and  C9_19 
REMARK    8  A    between atoms: C9_19  and  C11_24 
REMARK    9  A    between atoms: C12_27  and  N7_28 
REMARK       I    between atoms: N7_28  and  C13_30 
REMARK   10  A    between atoms: N10_35  and  C15_36 
REMARK   11  A    between atoms: N11_44  and  N12_45 
ROOT
HETATM    1  C9  UNL     1     -41.542  72.608  99.656  1.00  0.00     0.162 C 
HETATM    2  N4  UNL     1     -41.908  72.032  98.565  1.00  0.00    -0.276 N 
ATOM      3  H4  UNL     1     -41.678  72.451  97.664  1.00  0.00     0.179 HD
HETATM    4  C10 UNL     1     -42.617  70.840  98.616  1.00  0.00     0.183 C 
HETATM    5  N5  UNL     1     -43.234  69.836  98.640  1.00  0.00    -0.172 NA
ENDROOT
BRANCH   1   6
HETATM    6  N3  UNL     1     -40.815  73.840  99.496  1.00  0.00    -0.308 N 
HETATM    7  C8  UNL     1     -39.764  74.272 100.310  1.00  0.00     0.241 C 
HETATM    8  O2  UNL     1     -39.285  73.669 101.296  1.00  0.00    -0.271 OA
ATOM      9  H3  UNL     1     -41.091  74.448  98.726  1.00  0.00     0.170 HD
BRANCH   7  10
HETATM   10  C7  UNL     1     -39.117  75.591  99.997  1.00  0.00     0.239 C 
BRANCH  10  11
HETATM   11  N2  UNL     1     -38.035  75.458  99.044  1.00  0.00    -0.268 N 
HETATM   12  C6  UNL     1     -36.862  74.809  99.203  1.00  0.00     0.172 A 
HETATM   13  C5  UNL     1     -36.091  74.906  98.067  1.00  0.00     0.092 A 
HETATM   14  N11 UNL     1     -36.838  75.648  97.193  1.00  0.00    -0.212 N 
HETATM   15  C21 UNL     1     -37.991  75.963  97.799  1.00  0.00     0.350 A 
HETATM   16  O4  UNL     1     -38.881  76.657  97.207  1.00  0.00    -0.244 OA
BRANCH  12  17
HETATM   17  O1  UNL     1     -36.538  74.155 100.372  1.00  0.00    -0.344 OA
ATOM     18  H1  UNL     1     -36.899  73.334 100.688  1.00  0.00     0.219 HD
ENDBRANCH  12  17
BRANCH  13  19
HETATM   19  C4  UNL     1     -34.755  74.364  97.744  1.00  0.00     0.101 C 
BRANCH  19  20
HETATM   20  C2  UNL     1     -34.606  72.890  97.941  1.00  0.00     0.122 C 
HETATM   21  C1  UNL     1     -33.455  72.331  97.131  1.00  0.00     0.046 C 
HETATM   22  C3  UNL     1     -35.854  72.103  97.635  1.00  0.00     0.046 C 
BRANCH  20  23
HETATM   23  N1  UNL     1     -34.236  72.648  99.349  1.00  0.00    -0.071 N 
ATOM     24  H13 UNL     1     -34.811  71.943  99.812  1.00  0.00     0.275 HD
ATOM     25  H12 UNL     1     -33.345  72.166  99.465  1.00  0.00     0.275 HD
ATOM     26  H11 UNL     1     -34.270  73.566  99.793  1.00  0.00     0.275 HD
ENDBRANCH  20  23
ENDBRANCH  19  20
ENDBRANCH  13  19
BRANCH  14  27
HETATM   27  N12 UNL     1     -36.431  75.994  95.900  1.00  0.00    -0.334 N 
ATOM     28 2H12 UNL     1     -36.211  75.366  95.128  1.00  0.00     0.177 HD
ATOM     29 1H12 UNL     1     -36.302  76.951  95.571  1.00  0.00     0.177 HD
ENDBRANCH  14  27
ENDBRANCH  10  11
ENDBRANCH   7  10
ENDBRANCH   1   6
BRANCH   1  30
HETATM   30  C11 UNL     1     -41.831  72.021 100.960  1.00  0.00     0.161 A 
HETATM   31  N6  UNL     1     -41.014  71.117 101.579  1.00  0.00    -0.322 N 
HETATM   32  C12 UNL     1     -41.544  70.736 102.757  1.00  0.00     0.153 A 
ATOM     33  H6  UNL     1     -40.128  70.778 101.201  1.00  0.00     0.169 HD
HETATM   34  C14 UNL     1     -42.732  71.420 102.884  1.00  0.00     0.169 A 
HETATM   35  N9  UNL     1     -43.602  71.294 104.003  1.00  0.00    -0.078 NA
HETATM   36  N10 UNL     1     -42.880  72.190 101.783  1.00  0.00    -0.279 N 
BRANCH  32  37
HETATM   37  N7  UNL     1     -40.994  69.807 103.696  1.00  0.00    -0.294 N 
HETATM   38  C13 UNL     1     -41.420  68.466 103.752  1.00  0.00     0.334 C 
HETATM   39  N8  UNL     1     -42.419  67.998 102.870  1.00  0.00    -0.040 NA
HETATM   40  O3  UNL     1     -40.916  67.685 104.584  1.00  0.00    -0.251 OA
ATOM     41  H7  UNL     1     -40.273  70.125 104.343  1.00  0.00     0.172 HD
ENDBRANCH  32  37
BRANCH  36  42
HETATM   42  C15 UNL     1     -44.001  73.023 101.563  1.00  0.00     0.042 A 
HETATM   43  C16 UNL     1     -43.900  74.393 101.695  1.00  0.00     0.030 A 
HETATM   44  C17 UNL     1     -45.006  75.182 101.481  1.00  0.00     0.002 A 
HETATM   45  C18 UNL     1     -46.233  74.637 101.132  1.00  0.00     0.000 A 
HETATM   46  C19 UNL     1     -46.323  73.267 101.003  1.00  0.00     0.002 A 
HETATM   47  C20 UNL     1     -45.211  72.457 101.218  1.00  0.00     0.030 A 
ENDBRANCH  36  42
ENDBRANCH   1  30
TORSDOF 11
ENDMDL
MODEL 2
REMARK VINA RESULT: -8.514703034      1.983      3.945
REMARK  11 active torsions:
REMARK  status: ('A' for Active; 'I' for Inactive)
REMARK    1  A    between atoms: C2_2  and  N1_4 
REMARK    2  A    between atoms: C2_2  and  C4_8 
REMARK    3  A    between atoms: C4_8  and  C5_9 
REMARK    4  A    between atoms: C6_10  and  O1_11 
REMARK    5  A    between atoms: N2_13  and  C7_14 
REMARK    6  A    between atoms: C7_14  and  C8_15 
REMARK       I    between atoms: C8_15  and  N3_17 
REMARK    7  A    between atoms: N3_17  and  C9_19 
REMARK    8  A    between atoms: C9_19  and  C11_24 
REMARK    9  A    between atoms: C12_27  and  N7_28 
REMARK       I    between atoms: N7_28  and  C13_30 
REMARK   10  A    between atoms: N10_35  and  C15_36 
REMARK   11  A    between atoms: N11_44  and  N12_45 
ROOT
HETATM    1  C9  UNL     1     -40.932  72.844  99.559  1.00  0.00     0.162 C 
HETATM    2  N4  UNL     1     -40.812  71.947  98.644  1.00  0.00    -0.276 N 
ATOM      3  H4  UNL     1     -39.999  71.952  98.028  1.00  0.00     0.179 HD
HETATM    4  C10 UNL     1     -41.789  70.973  98.497  1.00  0.00     0.183 C 
HETATM    5  N5  UNL     1     -42.617  70.149  98.346  1.00  0.00    -0.172 NA
ENDROOT
BRANCH   1   6
HETATM    6  N3  UNL     1     -39.868  73.810  99.628  1.00  0.00    -0.308 N 
HETATM    7  C8  UNL     1     -39.983  75.108 100.135  1.00  0.00     0.241 C 
HETATM    8  O2  UNL     1     -41.013  75.637 100.608  1.00  0.00    -0.271 OA
ATOM      9  H3  UNL     1     -38.954  73.525  99.277  1.00  0.00     0.170 HD
BRANCH   7  10
HETATM   10  C7  UNL     1     -38.765  75.986 100.130  1.00  0.00     0.239 C 
BRANCH  10  11
HETATM   11  N2  UNL     1     -37.805  75.585  99.122  1.00  0.00    -0.268 N 
HETATM   12  C6  UNL     1     -36.735  74.775  99.269  1.00  0.00     0.172 A 
HETATM   13  C5  UNL     1     -36.062  74.632  98.078  1.00  0.00     0.092 A 
HETATM   14  N11 UNL     1     -36.762  75.391  97.180  1.00  0.00    -0.212 N 
HETATM   15  C21 UNL     1     -37.796  75.948  97.828  1.00  0.00     0.350 A 
HETATM   16  O4  UNL     1     -38.619  76.711  97.226  1.00  0.00    -0.244 OA
BRANCH  12  17
HETATM   17  O1  UNL     1     -36.411  74.200 100.480  1.00  0.00    -0.344 OA
ATOM     18  H1  UNL     1     -36.311  74.642 101.315  1.00  0.00     0.219 HD
ENDBRANCH  12  17
BRANCH  13  19
HETATM   19  C4  UNL     1     -34.858  73.852  97.723  1.00  0.00     0.101 C 
BRANCH  19  20
HETATM   20  C2  UNL     1     -34.979  72.376  97.923  1.00  0.00     0.122 C 
HETATM   21  C1  UNL     1     -33.799  71.633  97.333  1.00  0.00     0.046 C 
HETATM   22  C3  UNL     1     -36.256  71.788  97.380  1.00  0.00     0.046 C 
BRANCH  20  23
HETATM   23  N1  UNL     1     -34.919  72.100  99.372  1.00  0.00    -0.071 N 
ATOM     24  H13 UNL     1     -34.116  71.537  99.652  1.00  0.00     0.275 HD
ATOM     25  H12 UNL     1     -34.691  72.917  99.939  1.00  0.00     0.275 HD
ATOM     26  H11 UNL     1     -35.820  71.679  99.599  1.00  0.00     0.275 HD
ENDBRANCH  20  23
ENDBRANCH  19  20
ENDBRANCH  13  19
BRANCH  14  27
HETATM   27  N12 UNL     1     -36.424  75.534  95.830  1.00  0.00    -0.334 N 
ATOM     28 2H12 UNL     1     -36.051  76.363  95.367  1.00  0.00     0.177 HD
ATOM     29 1H12 UNL     1     -36.515  74.798  95.130  1.00  0.00     0.177 HD
ENDBRANCH  14  27
ENDBRANCH  10  11
ENDBRANCH   7  10
ENDBRANCH   1   6
BRANCH   1  30
HETATM   30  C11 UNL     1     -42.068  72.849 100.475  1.00  0.00     0.161 A 
HETATM   31  N6  UNL     1     -43.171  73.637 100.305  1.00  0.00    -0.322 N 
HETATM   32  C12 UNL     1     -44.045  73.444 101.312  1.00  0.00     0.153 A 
ATOM     33  H6  UNL     1     -43.313  74.280  99.525  1.00  0.00     0.169 HD
HETATM   34  C14 UNL     1     -43.473  72.507 102.143  1.00  0.00     0.169 A 
HETATM   35  N9  UNL     1     -44.087  72.026 103.334  1.00  0.00    -0.078 NA
HETATM   36  N10 UNL     1     -42.278  72.165 101.612  1.00  0.00    -0.279 N 
BRANCH  32  37
HETATM   37  N7  UNL     1     -45.313  74.081 101.494  1.00  0.00    -0.294 N 
HETATM   38  C13 UNL     1     -45.427  75.471 101.687  1.00  0.00     0.334 C 
HETATM   39  N8  UNL     1     -44.272  76.285 101.707  1.00  0.00    -0.040 NA
HETATM   40  O3  UNL     1     -46.551  75.990 101.842  1.00  0.00    -0.251 OA
ATOM     41  H7  UNL     1     -46.159  73.511 101.485  1.00  0.00     0.172 HD
ENDBRANCH  32  37
BRANCH  36  42
HETATM   42  C15 UNL     1     -41.402  71.231 102.211  1.00  0.00     0.042 A 
HETATM   43  C16 UNL     1     -40.259  71.651 102.861  1.00  0.00     0.030 A 
HETATM   44  C17 UNL     1     -39.419  70.724 103.432  1.00  0.00     0.002 A 
HETATM   45  C18 UNL     1     -39.689  69.365 103.374  1.00  0.00     0.000 A 
HETATM   46  C19 UNL     1     -40.832  68.955 102.722  1.00  0.00     0.002 A 
HETATM   47  C20 UNL     1     -41.690  69.884 102.140  1.00  0.00     0.030 A 
ENDBRANCH  36  42
ENDBRANCH   1  30
TORSDOF 11
ENDMDL
MODEL 3
REMARK VINA RESULT: -8.513302263      2.669      8.813
REMARK  11 active torsions:
REMARK  status: ('A' for Active; 'I' for Inactive)
REMARK    1  A    between atoms: C2_2  and  N1_4 
REMARK    2  A    between atoms: C2_2  and  C4_8 
REMARK    3  A    between atoms: C4_8  and  C5_9 
REMARK    4  A    between atoms: C6_10  and  O1_11 
REMARK    5  A    between atoms: N2_13  and  C7_14 
REMARK    6  A    between atoms: C7_14  and  C8_15 
REMARK       I    between atoms: C8_15  and  N3_17 
REMARK    7  A    between atoms: N3_17  and  C9_19 
REMARK    8  A    between atoms: C9_19  and  C11_24 
REMARK    9  A    between atoms: C12_27  and  N7_28 
REMARK       I    between atoms: N7_28  and  C13_30 
REMARK   10  A    between atoms: N10_35  and  C15_36 
REMARK   11  A    between atoms: N11_44  and  N12_45 
ROOT
HETATM    1  C9  UNL     1     -39.079  74.100  99.906  1.00  0.00     0.162 C 
HETATM    2  N4  UNL     1     -39.465  75.191 100.469  1.00  0.00    -0.276 N 
ATOM      3  H4  UNL     1     -40.416  75.271 100.831  1.00  0.00     0.179 HD
HETATM    4  C10 UNL     1     -38.586  76.259 100.583  1.00  0.00     0.183 C 
HETATM    5  N5  UNL     1     -37.860  77.182 100.675  1.00  0.00    -0.172 NA
ENDROOT
BRANCH   1   6
HETATM    6  N3  UNL     1     -40.065  73.054  99.834  1.00  0.00    -0.308 N 
HETATM    7  C8  UNL     1     -40.480  72.257 100.904  1.00  0.00     0.241 C 
HETATM    8  O2  UNL     1     -40.073  72.319 102.086  1.00  0.00    -0.271 OA
ATOM      9  H3  UNL     1     -40.496  72.880  98.927  1.00  0.00     0.170 HD
BRANCH   7  10
HETATM   10  C7  UNL     1     -41.524  71.207 100.648  1.00  0.00     0.239 C 
BRANCH  10  11
HETATM   11  N2  UNL     1     -42.843  71.777 100.471  1.00  0.00    -0.268 N 
HETATM   12  C6  UNL     1     -43.534  72.555 101.332  1.00  0.00     0.172 A 
HETATM   13  C5  UNL     1     -44.757  72.902 100.804  1.00  0.00     0.092 A 
HETATM   14  N11 UNL     1     -44.796  72.303  99.574  1.00  0.00    -0.212 N 
HETATM   15  C21 UNL     1     -43.643  71.640  99.400  1.00  0.00     0.350 A 
HETATM   16  O4  UNL     1     -43.411  70.987  98.332  1.00  0.00    -0.244 OA
BRANCH  12  17
HETATM   17  O1  UNL     1     -43.029  72.917 102.562  1.00  0.00    -0.344 OA
ATOM     18  H1  UNL     1     -42.123  72.866 102.846  1.00  0.00     0.219 HD
ENDBRANCH  12  17
BRANCH  13  19
HETATM   19  C4  UNL     1     -45.852  73.735 101.341  1.00  0.00     0.101 C 
BRANCH  19  20
HETATM   20  C2  UNL     1     -45.625  75.210 101.255  1.00  0.00     0.122 C 
HETATM   21  C1  UNL     1     -46.770  75.989 101.870  1.00  0.00     0.046 C 
HETATM   22  C3  UNL     1     -45.383  75.710  99.855  1.00  0.00     0.046 C 
BRANCH  20  23
HETATM   23  N1  UNL     1     -44.448  75.544 102.080  1.00  0.00    -0.071 N 
ATOM     24  H13 UNL     1     -44.373  76.536 102.311  1.00  0.00     0.275 HD
ATOM     25  H12 UNL     1     -44.506  75.205 103.040  1.00  0.00     0.275 HD
ATOM     26  H11 UNL     1     -43.649  75.179 101.561  1.00  0.00     0.275 HD
ENDBRANCH  20  23
ENDBRANCH  19  20
ENDBRANCH  13  19
BRANCH  14  27
HETATM   27  N12 UNL     1     -45.871  72.393  98.683  1.00  0.00    -0.334 N 
ATOM     28 2H12 UNL     1     -46.126  73.185  98.094  1.00  0.00     0.177 HD
ATOM     29 1H12 UNL     1     -46.548  71.648  98.517  1.00  0.00     0.177 HD
ENDBRANCH  14  27
ENDBRANCH  10  11
ENDBRANCH   7  10
ENDBRANCH   1   6
BRANCH   1  30
HETATM   30  C11 UNL     1     -37.718  73.943  99.404  1.00  0.00     0.161 A 
HETATM   31  N6  UNL     1     -37.235  74.610  98.313  1.00  0.00    -0.322 N 
HETATM   32  C12 UNL     1     -35.959  74.253  98.073  1.00  0.00     0.153 A 
ATOM     33  H6  UNL     1     -37.766  75.283  97.759  1.00  0.00     0.169 HD
HETATM   34  C14 UNL     1     -35.628  73.331  99.041  1.00  0.00     0.169 A 
HETATM   35  N9  UNL     1     -34.353  72.706  99.136  1.00  0.00    -0.078 NA
HETATM   36  N10 UNL     1     -36.711  73.164  99.832  1.00  0.00    -0.279 N 
BRANCH  32  37
HETATM   37  N7  UNL     1     -35.108  74.726  97.024  1.00  0.00    -0.294 N 
HETATM   38  C13 UNL     1     -35.499  75.768  96.163  1.00  0.00     0.334 C 
HETATM   39  N8  UNL     1     -36.762  76.382  96.313  1.00  0.00    -0.040 NA
HETATM   40  O3  UNL     1     -34.729  76.155  95.260  1.00  0.00    -0.251 OA
ATOM     41  H7  UNL     1     -34.192  74.296  96.898  1.00  0.00     0.172 HD
ENDBRANCH  32  37
BRANCH  36  42
HETATM   42  C15 UNL     1     -36.740  72.273 100.930  1.00  0.00     0.042 A 
HETATM   43  C16 UNL     1     -37.056  70.941 100.750  1.00  0.00     0.030 A 
HETATM   44  C17 UNL     1     -37.082  70.094 101.833  1.00  0.00     0.002 A 
HETATM   45  C18 UNL     1     -36.799  70.543 103.115  1.00  0.00     0.000 A 
HETATM   46  C19 UNL     1     -36.485  71.875 103.284  1.00  0.00     0.002 A 
HETATM   47  C20 UNL     1     -36.455  72.742 102.195  1.00  0.00     0.030 A 
ENDBRANCH  36  42
ENDBRANCH   1  30
TORSDOF 11
ENDMDL
MODEL 4
REMARK VINA RESULT: -8.462556066      2.555      8.074
REMARK  11 active torsions:
REMARK  status: ('A' for Active; 'I' for Inactive)
REMARK    1  A    between atoms: C2_2  and  N1_4 
REMARK    2  A    between atoms: C2_2  and  C4_8 
REMARK    3  A    between atoms: C4_8  and  C5_9 
REMARK    4  A    between atoms: C6_10  and  O1_11 
REMARK    5  A    between atoms: N2_13  and  C7_14 
REMARK    6  A    between atoms: C7_14  and  C8_15 
REMARK       I    between atoms: C8_15  and  N3_17 
REMARK    7  A    between atoms: N3_17  and  C9_19 
REMARK    8  A    between atoms: C9_19  and  C11_24 
REMARK    9  A    between atoms: C12_27  and  N7_28 
REMARK       I    between atoms: N7_28  and  C13_30 
REMARK   10  A    between atoms: N10_35  and  C15_36 
REMARK   11  A    between atoms: N11_44  and  N12_45 
ROOT
HETATM    1  C9  UNL     1     -37.906  71.625 101.582  1.00  0.00     0.162 C 
HETATM    2  N4  UNL     1     -37.315  71.620 102.725  1.00  0.00    -0.276 N 
ATOM      3  H4  UNL     1     -37.785  71.228 103.542  1.00  0.00     0.179 HD
HETATM    4  C10 UNL     1     -36.036  72.146 102.846  1.00  0.00     0.183 C 
HETATM    5  N5  UNL     1     -34.958  72.603 102.971  1.00  0.00    -0.172 NA
ENDROOT
BRANCH   1   6
HETATM    6  N3  UNL     1     -39.229  71.060 101.563  1.00  0.00    -0.308 N 
HETATM    7  C8  UNL     1     -40.209  71.257 102.540  1.00  0.00     0.241 C 
HETATM    8  O2  UNL     1     -40.102  71.948 103.578  1.00  0.00    -0.271 OA
ATOM      9  H3  UNL     1     -39.472  70.466 100.770  1.00  0.00     0.170 HD
BRANCH   7  10
HETATM   10  C7  UNL     1     -41.541  70.587 102.359  1.00  0.00     0.239 C 
BRANCH  10  11
HETATM   11  N2  UNL     1     -42.387  71.294 101.420  1.00  0.00    -0.268 N 
HETATM   12  C6  UNL     1     -43.089  72.429 101.626  1.00  0.00     0.172 A 
HETATM   13  C5  UNL     1     -43.774  72.794 100.490  1.00  0.00     0.092 A 
HETATM   14  N11 UNL     1     -43.467  71.833  99.565  1.00  0.00    -0.212 N 
HETATM   15  C21 UNL     1     -42.639  70.952 100.145  1.00  0.00     0.350 A 
HETATM   16  O4  UNL     1     -42.191  69.945  99.505  1.00  0.00    -0.244 OA
BRANCH  12  17
HETATM   17  O1  UNL     1     -43.082  73.087 102.838  1.00  0.00    -0.344 OA
ATOM     18  H1  UNL     1     -42.442  73.722 103.140  1.00  0.00     0.219 HD
ENDBRANCH  12  17
BRANCH  13  19
HETATM   19  C4  UNL     1     -44.656  73.945 100.208  1.00  0.00     0.101 C 
BRANCH  19  20
HETATM   20  C2  UNL     1     -46.083  73.763 100.612  1.00  0.00     0.122 C 
HETATM   21  C1  UNL     1     -46.959  73.405  99.429  1.00  0.00     0.046 C 
HETATM   22  C3  UNL     1     -46.674  74.954 101.321  1.00  0.00     0.046 C 
BRANCH  20  23
HETATM   23  N1  UNL     1     -46.163  72.598 101.514  1.00  0.00    -0.071 N 
ATOM     24  H13 UNL     1     -46.339  71.715 101.033  1.00  0.00     0.275 HD
ATOM     25  H12 UNL     1     -45.267  72.331 101.923  1.00  0.00     0.275 HD
ATOM     26  H11 UNL     1     -46.875  72.843 102.201  1.00  0.00     0.275 HD
ENDBRANCH  20  23
ENDBRANCH  19  20
ENDBRANCH  13  19
BRANCH  14  27
HETATM   27  N12 UNL     1     -43.953  71.811  98.254  1.00  0.00    -0.334 N 
ATOM     28 2H12 UNL     1     -44.776  72.290  97.888  1.00  0.00     0.177 HD
ATOM     29 1H12 UNL     1     -43.524  71.294  97.486  1.00  0.00     0.177 HD
ENDBRANCH  14  27
ENDBRANCH  10  11
ENDBRANCH   7  10
ENDBRANCH   1   6
BRANCH   1  30
HETATM   30  C11 UNL     1     -37.251  72.152 100.389  1.00  0.00     0.161 A 
HETATM   31  N6  UNL     1     -36.264  71.489  99.716  1.00  0.00    -0.322 N 
HETATM   32  C12 UNL     1     -35.836  72.223  98.671  1.00  0.00     0.153 A 
ATOM     33  H6  UNL     1     -35.903  70.568  99.969  1.00  0.00     0.169 HD
HETATM   34  C14 UNL     1     -36.574  73.385  98.687  1.00  0.00     0.169 A 
HETATM   35  N9  UNL     1     -36.423  74.433  97.736  1.00  0.00    -0.078 NA
HETATM   36  N10 UNL     1     -37.423  73.314  99.738  1.00  0.00    -0.279 N 
BRANCH  32  37
HETATM   37  N7  UNL     1     -34.817  71.877  97.727  1.00  0.00    -0.294 N 
HETATM   38  C13 UNL     1     -33.597  71.301  98.127  1.00  0.00     0.334 C 
HETATM   39  N8  UNL     1     -33.343  71.047  99.494  1.00  0.00    -0.040 NA
HETATM   40  O3  UNL     1     -32.733  71.012  97.275  1.00  0.00    -0.251 OA
ATOM     41  H7  UNL     1     -34.980  72.053  96.736  1.00  0.00     0.172 HD
ENDBRANCH  32  37
BRANCH  36  42
HETATM   42  C15 UNL     1     -38.329  74.346 100.074  1.00  0.00     0.042 A 
HETATM   43  C16 UNL     1     -37.899  75.472 100.747  1.00  0.00     0.030 A 
HETATM   44  C17 UNL     1     -38.799  76.461 101.067  1.00  0.00     0.002 A 
HETATM   45  C18 UNL     1     -40.141  76.359 100.731  1.00  0.00     0.000 A 
HETATM   46  C19 UNL     1     -40.561  75.230 100.060  1.00  0.00     0.002 A 
HETATM   47  C20 UNL     1     -39.659  74.222  99.730  1.00  0.00     0.030 A 
ENDBRANCH  36  42
ENDBRANCH   1  30
TORSDOF 11
ENDMDL
MODEL 5
REMARK VINA RESULT: -8.434229210      2.535      8.052
REMARK  11 active torsions:
REMARK  status: ('A' for Active; 'I' for Inactive)
REMARK    1  A    between atoms: C2_2  and  N1_4 
REMARK    2  A    between atoms: C2_2  and  C4_8 
REMARK    3  A    between atoms: C4_8  and  C5_9 
REMARK    4  A    between atoms: C6_10  and  O1_11 
REMARK    5  A    between atoms: N2_13  and  C7_14 
REMARK    6  A    between atoms: C7_14  and  C8_15 
REMARK       I    between atoms: C8_15  and  N3_17 
REMARK    7  A    between atoms: N3_17  and  C9_19 
REMARK    8  A    between atoms: C9_19  and  C11_24 
REMARK    9  A    between atoms: C12_27  and  N7_28 
REMARK       I    between atoms: N7_28  and  C13_30 
REMARK   10  A    between atoms: N10_35  and  C15_36 
REMARK   11  A    between atoms: N11_44  and  N12_45 
ROOT
HETATM    1  C9  UNL     1     -38.093  71.506 101.532  1.00  0.00     0.162 C 
HETATM    2  N4  UNL     1     -37.538  71.609 102.689  1.00  0.00    -0.276 N 
ATOM      3  H4  UNL     1     -38.000  71.223 103.513  1.00  0.00     0.179 HD
HETATM    4  C10 UNL     1     -36.311  72.244 102.813  1.00  0.00     0.183 C 
HETATM    5  N5  UNL     1     -35.277  72.795 102.941  1.00  0.00    -0.172 NA
ENDROOT
BRANCH   1   6
HETATM    6  N3  UNL     1     -39.365  70.833 101.509  1.00  0.00    -0.308 N 
HETATM    7  C8  UNL     1     -40.420  71.065 102.396  1.00  0.00     0.241 C 
HETATM    8  O2  UNL     1     -40.437  71.884 103.341  1.00  0.00    -0.271 OA
ATOM      9  H3  UNL     1     -39.507  70.128 100.787  1.00  0.00     0.170 HD
BRANCH   7  10
HETATM   10  C7  UNL     1     -41.682  70.268 102.225  1.00  0.00     0.239 C 
BRANCH  10  11
HETATM   11  N2  UNL     1     -42.713  71.015 101.535  1.00  0.00    -0.268 N 
HETATM   12  C6  UNL     1     -43.602  71.884 102.061  1.00  0.00     0.172 A 
HETATM   13  C5  UNL     1     -44.425  72.395 101.083  1.00  0.00     0.092 A 
HETATM   14  N11 UNL     1     -44.007  71.803  99.922  1.00  0.00    -0.212 N 
HETATM   15  C21 UNL     1     -42.986  70.986 100.220  1.00  0.00     0.350 A 
HETATM   16  O4  UNL     1     -42.402  70.302  99.317  1.00  0.00    -0.244 OA
BRANCH  12  17
HETATM   17  O1  UNL     1     -43.633  72.179 103.407  1.00  0.00    -0.344 OA
ATOM     18  H1  UNL     1     -44.113  71.714 104.084  1.00  0.00     0.219 HD
ENDBRANCH  12  17
BRANCH  13  19
HETATM   19  C4  UNL     1     -45.528  73.375 101.147  1.00  0.00     0.101 C 
BRANCH  19  20
HETATM   20  C2  UNL     1     -45.104  74.808 101.128  1.00  0.00     0.122 C 
HETATM   21  C1  UNL     1     -46.171  75.715 101.706  1.00  0.00     0.046 C 
HETATM   22  C3  UNL     1     -44.714  75.311  99.762  1.00  0.00     0.046 C 
BRANCH  20  23
HETATM   23  N1  UNL     1     -43.945  74.958 102.029  1.00  0.00    -0.071 N 
ATOM     24  H13 UNL     1     -44.189  75.272 102.968  1.00  0.00     0.275 HD
ATOM     25  H12 UNL     1     -43.521  74.073 102.308  1.00  0.00     0.275 HD
ATOM     26  H11 UNL     1     -43.307  75.584 101.537  1.00  0.00     0.275 HD
ENDBRANCH  20  23
ENDBRANCH  19  20
ENDBRANCH  13  19
BRANCH  14  27
HETATM   27  N12 UNL     1     -44.574  72.037  98.665  1.00  0.00    -0.334 N 
ATOM     28 2H12 UNL     1     -44.397  72.822  98.039  1.00  0.00     0.177 HD
ATOM     29 1H12 UNL     1     -45.255  71.424  98.215  1.00  0.00     0.177 HD
ENDBRANCH  14  27
ENDBRANCH  10  11
ENDBRANCH   7  10
ENDBRANCH   1   6
BRANCH   1  30
HETATM   30  C11 UNL     1     -37.447  72.022 100.330  1.00  0.00     0.161 A 
HETATM   31  N6  UNL     1     -36.502  71.330  99.625  1.00  0.00    -0.322 N 
HETATM   32  C12 UNL     1     -36.072  72.060  98.578  1.00  0.00     0.153 A 
ATOM     33  H6  UNL     1     -36.171  70.393  99.859  1.00  0.00     0.169 HD
HETATM   34  C14 UNL     1     -36.764  73.248  98.626  1.00  0.00     0.169 A 
HETATM   35  N9  UNL     1     -36.596  74.302  97.683  1.00  0.00    -0.078 NA
HETATM   36  N10 UNL     1     -37.589  73.198  99.696  1.00  0.00    -0.279 N 
BRANCH  32  37
HETATM   37  N7  UNL     1     -35.089  71.687  97.606  1.00  0.00    -0.294 N 
HETATM   38  C13 UNL     1     -33.793  71.283  97.976  1.00  0.00     0.334 C 
HETATM   39  N8  UNL     1     -33.422  71.236  99.338  1.00  0.00    -0.040 NA
HETATM   40  O3  UNL     1     -32.964  70.965  97.099  1.00  0.00    -0.251 OA
ATOM     41  H7  UNL     1     -35.337  71.715  96.617  1.00  0.00     0.172 HD
ENDBRANCH  32  37
BRANCH  36  42
HETATM   42  C15 UNL     1     -38.447  74.259 100.065  1.00  0.00     0.042 A 
HETATM   43  C16 UNL     1     -39.793  74.218  99.761  1.00  0.00     0.030 A 
HETATM   44  C17 UNL     1     -40.607  75.264 100.127  1.00  0.00     0.002 A 
HETATM   45  C18 UNL     1     -40.110  76.372 100.799  1.00  0.00     0.000 A 
HETATM   46  C19 UNL     1     -38.765  76.403 101.097  1.00  0.00     0.002 A 
HETATM   47  C20 UNL     1     -37.930  75.350 100.732  1.00  0.00     0.030 A 
ENDBRANCH  36  42
ENDBRANCH   1  30
TORSDOF 11
ENDMDL
