MODEL 1
REMARK VINA RESULT: -5.017253313      0.000      0.000
REMARK  2 active torsions:
REMARK  status: ('A' for Active; 'I' for Inactive)
REMARK    1  A    between atoms: O1_1  and  C1_3 
REMARK    2  A    between atoms: C6_9  and  O3_10 
ROOT
HETATM    1  C1  UNL     1      70.683  46.447  53.098  1.00  0.00     0.155 C 
HETATM    2  C2  UNL     1      71.842  46.988  52.297  1.00  0.00     0.043 C 
HETATM    3  C3  UNL     1      71.469  46.839  50.839  1.00  0.00     0.175 C 
HETATM    4  O2  UNL     1      71.474  45.479  50.578  1.00  0.00    -0.383 OA
HETATM    5  C4  UNL     1      71.808  44.817  51.760  1.00  0.00     0.153 C 
HETATM    6  C5  UNL     1      72.812  45.798  52.397  1.00  0.00     0.044 C 
HETATM    7  C6  UNL     1      70.688  44.945  52.773  1.00  0.00     0.176 C 
ENDROOT
BRANCH   1   8
HETATM    8  O1  UNL     1      70.934  46.650  54.431  1.00  0.00    -0.392 OA
ATOM      9  H1  UNL     1      70.677  45.873  54.914  1.00  0.00     0.210 HD
ENDBRANCH   1   8
BRANCH   7  10
HETATM   10  O3  UNL     1      69.476  44.509  52.310  1.00  0.00    -0.390 OA
ATOM     11  H3  UNL     1      69.373  43.568  52.397  1.00  0.00     0.210 HD
ENDBRANCH   7  10
TORSDOF 2
ENDMDL
MODEL 2
REMARK VINA RESULT: -4.861898075      1.229      2.993
REMARK  2 active torsions:
REMARK  status: ('A' for Active; 'I' for Inactive)
REMARK    1  A    between atoms: O1_1  and  C1_3 
REMARK    2  A    between atoms: C6_9  and  O3_10 
ROOT
HETATM    1  C1  UNL     1      72.171  45.262  50.793  1.00  0.00     0.155 C 
HETATM    2  C2  UNL     1      72.029  44.691  52.182  1.00  0.00     0.043 C 
HETATM    3  C3  UNL     1      70.569  44.810  52.554  1.00  0.00     0.175 C 
HETATM    4  O2  UNL     1      70.321  46.163  52.711  1.00  0.00    -0.383 OA
HETATM    5  C4  UNL     1      71.508  46.849  52.453  1.00  0.00     0.153 C 
HETATM    6  C5  UNL     1      72.562  45.873  53.011  1.00  0.00     0.044 C 
HETATM    7  C6  UNL     1      71.865  46.756  50.983  1.00  0.00     0.176 C 
ENDROOT
BRANCH   1   8
HETATM    8  O1  UNL     1      73.465  45.088  50.372  1.00  0.00    -0.392 OA
ATOM      9  H1  UNL     1      73.467  44.509  49.618  1.00  0.00     0.210 HD
ENDBRANCH   1   8
BRANCH   7  10
HETATM   10  O3  UNL     1      70.872  47.194  50.148  1.00  0.00    -0.390 OA
ATOM     11  H3  UNL     1      71.126  47.969  49.661  1.00  0.00     0.210 HD
ENDBRANCH   7  10
TORSDOF 2
ENDMDL
MODEL 3
REMARK VINA RESULT: -4.803241396      1.490      2.386
REMARK  2 active torsions:
REMARK  status: ('A' for Active; 'I' for Inactive)
REMARK    1  A    between atoms: O1_1  and  C1_3 
REMARK    2  A    between atoms: C6_9  and  O3_10 
ROOT
HETATM    1  C1  UNL     1      71.466  45.506  51.053  1.00  0.00     0.155 C 
HETATM    2  C2  UNL     1      72.935  45.196  51.205  1.00  0.00     0.043 C 
HETATM    3  C3  UNL     1      73.035  43.730  51.559  1.00  0.00     0.175 C 
HETATM    4  O2  UNL     1      72.522  43.607  52.839  1.00  0.00    -0.383 OA
HETATM    5  C4  UNL     1      72.120  44.873  53.263  1.00  0.00     0.153 C 
HETATM    6  C5  UNL     1      73.184  45.776  52.608  1.00  0.00     0.044 C 
HETATM    7  C6  UNL     1      70.911  45.337  52.476  1.00  0.00     0.176 C 
ENDROOT
BRANCH   1   8
HETATM    8  O1  UNL     1      71.328  46.805  50.636  1.00  0.00    -0.392 OA
ATOM      9  H1  UNL     1      71.638  46.874  49.740  1.00  0.00     0.210 HD
ENDBRANCH   1   8
BRANCH   7  10
HETATM   10  O3  UNL     1      69.857  44.464  52.523  1.00  0.00    -0.390 OA
ATOM     11  H3  UNL     1      69.334  44.571  53.309  1.00  0.00     0.210 HD
ENDBRANCH   7  10
TORSDOF 2
ENDMDL
MODEL 4
REMARK VINA RESULT: -4.774451260      1.428      2.305
REMARK  2 active torsions:
REMARK  status: ('A' for Active; 'I' for Inactive)
REMARK    1  A    between atoms: O1_1  and  C1_3 
REMARK    2  A    between atoms: C6_9  and  O3_10 
ROOT
HETATM    1  C1  UNL     1      71.280  46.298  54.094  1.00  0.00     0.155 C 
HETATM    2  C2  UNL     1      72.020  45.081  53.596  1.00  0.00     0.043 C 
HETATM    3  C3  UNL     1      73.248  45.584  52.874  1.00  0.00     0.175 C 
HETATM    4  O2  UNL     1      72.791  46.205  51.723  1.00  0.00    -0.383 OA
HETATM    5  C4  UNL     1      71.399  46.117  51.714  1.00  0.00     0.153 C 
HETATM    6  C5  UNL     1      71.167  44.738  52.363  1.00  0.00     0.044 C 
HETATM    7  C6  UNL     1      70.805  46.986  52.804  1.00  0.00     0.176 C 
ENDROOT
BRANCH   1   8
HETATM    8  O1  UNL     1      70.206  45.889  54.842  1.00  0.00    -0.392 OA
ATOM      9  H1  UNL     1      69.669  46.645  55.048  1.00  0.00     0.210 HD
ENDBRANCH   1   8
BRANCH   7  10
HETATM   10  O3  UNL     1      71.200  48.296  52.738  1.00  0.00    -0.390 OA
ATOM     11  H3  UNL     1      71.838  48.515  53.407  1.00  0.00     0.210 HD
ENDBRANCH   7  10
TORSDOF 2
ENDMDL
MODEL 5
REMARK VINA RESULT: -4.709173291      1.402      1.505
REMARK  2 active torsions:
REMARK  status: ('A' for Active; 'I' for Inactive)
REMARK    1  A    between atoms: O1_1  and  C1_3 
REMARK    2  A    between atoms: C6_9  and  O3_10 
ROOT
HETATM    1  C1  UNL     1      70.545  45.430  53.567  1.00  0.00     0.155 C 
HETATM    2  C2  UNL     1      71.703  46.081  52.851  1.00  0.00     0.043 C 
HETATM    3  C3  UNL     1      71.835  45.386  51.516  1.00  0.00     0.175 C 
HETATM    4  O2  UNL     1      72.276  44.103  51.791  1.00  0.00    -0.383 OA
HETATM    5  C4  UNL     1      72.405  43.982  53.175  1.00  0.00     0.153 C 
HETATM    6  C5  UNL     1      72.878  45.395  53.571  1.00  0.00     0.044 C 
HETATM    7  C6  UNL     1      71.043  44.002  53.838  1.00  0.00     0.176 C 
ENDROOT
BRANCH   1   8
HETATM    8  O1  UNL     1      70.324  46.094  54.747  1.00  0.00    -0.392 OA
ATOM      9  H1  UNL     1      69.761  45.562  55.297  1.00  0.00     0.210 HD
ENDBRANCH   1   8
BRANCH   7  10
HETATM   10  O3  UNL     1      70.183  43.051  53.357  1.00  0.00    -0.390 OA
ATOM     11  H3  UNL     1      70.408  42.774  52.476  1.00  0.00     0.210 HD
ENDBRANCH   7  10
TORSDOF 2
ENDMDL
