MODEL 1
REMARK VINA RESULT: -7.394367711      0.000      0.000
REMARK  11 active torsions:
REMARK  status: ('A' for Active; 'I' for Inactive)
REMARK    1  A    between atoms: C1_2  and  C2_4 
REMARK    2  A    between atoms: C2_4  and  O3_5 
REMARK    3  A    between atoms: O3_5  and  C3_6 
REMARK    4  A    between atoms: C6_9  and  O4_10 
REMARK    5  A    between atoms: C10_15  and  O5_16 
REMARK    6  A    between atoms: C10_15  and  C11_18 
REMARK    7  A    between atoms: C12_21  and  O8_22 
REMARK    8  A    between atoms: C13_24  and  C14_25 
REMARK    9  A    between atoms: C15_26  and  N1_27 
REMARK   10  A    between atoms: N1_27  and  O9_28 
REMARK   11  A    between atoms: N1_27  and  C16_30 
ROOT
HETATM    1  C2  UNL     1      87.666  36.790  60.569  1.00  0.00     0.264 C 
HETATM    2  C9  UNL     1      88.415  37.952  60.004  1.00  0.00     0.133 C 
HETATM    3  C10 UNL     1      87.838  38.530  58.764  1.00  0.00     0.179 C 
HETATM    4  C12 UNL     1      87.155  37.511  57.902  1.00  0.00     0.196 C 
HETATM    5  C13 UNL     1      87.500  36.102  58.322  1.00  0.00     0.182 C 
HETATM    6  O12 UNL     1      87.263  35.837  59.617  1.00  0.00    -0.334 OA
ENDROOT
BRANCH   1   7
HETATM    7  C1  UNL     1      86.474  37.307  61.259  1.00  0.00     0.239 C 
HETATM    8  O1  UNL     1      85.372  36.656  61.298  1.00  0.00    -0.644 OA
HETATM    9  O2  UNL     1      86.453  38.508  61.903  1.00  0.00    -0.644 OA
ENDBRANCH   1   7
BRANCH   1  10
HETATM   10  O3  UNL     1      88.485  36.052  61.442  1.00  0.00    -0.304 OA
BRANCH  10  11
HETATM   11  C3  UNL     1      89.667  35.475  61.452  1.00  0.00     0.073 A 
HETATM   12  C4  UNL     1      90.251  34.716  60.461  1.00  0.00     0.039 A 
HETATM   13  C5  UNL     1      91.493  34.137  60.541  1.00  0.00     0.039 A 
HETATM   14  C6  UNL     1      92.237  34.309  61.681  1.00  0.00     0.065 A 
HETATM   15  C7  UNL     1      91.713  35.057  62.710  1.00  0.00     0.039 A 
HETATM   16  C8  UNL     1      90.466  35.626  62.604  1.00  0.00     0.039 A 
BRANCH  14  17
HETATM   17  O4  UNL     1      93.510  33.742  61.821  1.00  0.00    -0.361 OA
ATOM     18  H4  UNL     1      94.262  34.082  61.352  1.00  0.00     0.217 HD
ENDBRANCH  14  17
ENDBRANCH  10  11
ENDBRANCH   1  10
BRANCH   3  19
HETATM   19  O5  UNL     1      86.932  39.576  58.972  1.00  0.00    -0.376 OA
ATOM     20  H5  UNL     1      86.526  39.913  58.183  1.00  0.00     0.211 HD
ENDBRANCH   3  19
BRANCH   3  21
HETATM   21  C11 UNL     1      88.956  39.191  57.956  1.00  0.00     0.212 C 
HETATM   22  O6  UNL     1      90.091  38.658  57.947  1.00  0.00    -0.646 OA
HETATM   23  O7  UNL     1      88.746  40.344  57.249  1.00  0.00    -0.646 OA
ENDBRANCH   3  21
BRANCH   5  24
HETATM   24  C14 UNL     1      86.675  35.189  57.491  1.00  0.00     0.027 C 
HETATM   25  C15 UNL     1      85.364  35.192  57.626  1.00  0.00     0.118 C 
BRANCH  25  26
HETATM   26  N1  UNL     1      84.519  34.332  56.851  1.00  0.00    -0.241 N 
BRANCH  26  27
HETATM   27  O9  UNL     1      84.915  33.099  56.553  1.00  0.00    -0.285 OA
ATOM     28  H9  UNL     1      84.645  32.366  57.095  1.00  0.00     0.245 HD
ENDBRANCH  26  27
BRANCH  26  29
HETATM   29  C16 UNL     1      83.248  34.880  56.428  1.00  0.00     0.268 C 
HETATM   30  C17 UNL     1      82.468  33.824  55.697  1.00  0.00     0.198 C 
HETATM   31  N2  UNL     1      82.979  33.729  54.343  1.00  0.00    -0.094 NA
HETATM   32  O10 UNL     1      82.808  34.957  53.782  1.00  0.00    -0.261 OA
HETATM   33  C18 UNL     1      83.624  35.906  54.386  1.00  0.00     0.367 C 
HETATM   34  O11 UNL     1      83.373  36.060  55.732  1.00  0.00    -0.337 OA
ENDBRANCH  26  29
ENDBRANCH  25  26
ENDBRANCH   5  24
BRANCH   4  35
HETATM   35  O8  UNL     1      87.639  37.653  56.595  1.00  0.00    -0.389 OA
ATOM     36  H8  UNL     1      88.120  36.865  56.371  1.00  0.00     0.210 HD
ENDBRANCH   4  35
TORSDOF 11
ENDMDL
MODEL 2
REMARK VINA RESULT: -7.135942307      1.020      1.324
REMARK  11 active torsions:
REMARK  status: ('A' for Active; 'I' for Inactive)
REMARK    1  A    between atoms: C1_2  and  C2_4 
REMARK    2  A    between atoms: C2_4  and  O3_5 
REMARK    3  A    between atoms: O3_5  and  C3_6 
REMARK    4  A    between atoms: C6_9  and  O4_10 
REMARK    5  A    between atoms: C10_15  and  O5_16 
REMARK    6  A    between atoms: C10_15  and  C11_18 
REMARK    7  A    between atoms: C12_21  and  O8_22 
REMARK    8  A    between atoms: C13_24  and  C14_25 
REMARK    9  A    between atoms: C15_26  and  N1_27 
REMARK   10  A    between atoms: N1_27  and  O9_28 
REMARK   11  A    between atoms: N1_27  and  C16_30 
ROOT
HETATM    1  C2  UNL     1      87.904  36.436  59.430  1.00  0.00     0.264 C 
HETATM    2  C9  UNL     1      88.560  37.739  59.112  1.00  0.00     0.133 C 
HETATM    3  C10 UNL     1      87.807  38.611  58.176  1.00  0.00     0.179 C 
HETATM    4  C12 UNL     1      87.007  37.841  57.169  1.00  0.00     0.196 C 
HETATM    5  C13 UNL     1      87.411  36.387  57.126  1.00  0.00     0.182 C 
HETATM    6  O12 UNL     1      87.368  35.766  58.316  1.00  0.00    -0.334 OA
ENDROOT
BRANCH   1   7
HETATM    7  C1  UNL     1      86.826  36.691  60.397  1.00  0.00     0.239 C 
HETATM    8  O1  UNL     1      85.810  35.919  60.508  1.00  0.00    -0.644 OA
HETATM    9  O2  UNL     1      86.824  37.762  61.240  1.00  0.00    -0.644 OA
ENDBRANCH   1   7
BRANCH   1  10
HETATM   10  O3  UNL     1      88.843  35.521  59.939  1.00  0.00    -0.304 OA
BRANCH  10  11
HETATM   11  C3  UNL     1      89.702  35.421  60.930  1.00  0.00     0.073 A 
HETATM   12  C4  UNL     1      89.633  36.004  62.176  1.00  0.00     0.039 A 
HETATM   13  C5  UNL     1      90.573  35.861  63.167  1.00  0.00     0.039 A 
HETATM   14  C6  UNL     1      91.678  35.083  62.929  1.00  0.00     0.065 A 
HETATM   15  C7  UNL     1      91.809  34.471  61.704  1.00  0.00     0.039 A 
HETATM   16  C8  UNL     1      90.853  34.631  60.730  1.00  0.00     0.039 A 
BRANCH  14  17
HETATM   17  O4  UNL     1      92.672  34.900  63.900  1.00  0.00    -0.361 OA
ATOM     18  H4  UNL     1      93.517  35.329  63.836  1.00  0.00     0.217 HD
ENDBRANCH  14  17
ENDBRANCH  10  11
ENDBRANCH   1  10
BRANCH   3  19
HETATM   19  O5  UNL     1      86.939  39.520  58.793  1.00  0.00    -0.376 OA
ATOM     20  H5  UNL     1      86.490  40.107  58.197  1.00  0.00     0.211 HD
ENDBRANCH   3  19
BRANCH   3  21
HETATM   21  C11 UNL     1      88.793  39.517  57.436  1.00  0.00     0.212 C 
HETATM   22  O6  UNL     1      89.923  39.062  57.139  1.00  0.00    -0.646 OA
HETATM   23  O7  UNL     1      88.471  40.802  57.094  1.00  0.00    -0.646 OA
ENDBRANCH   3  21
BRANCH   5  24
HETATM   24  C14 UNL     1      86.476  35.705  56.199  1.00  0.00     0.027 C 
HETATM   25  C15 UNL     1      85.672  34.766  56.658  1.00  0.00     0.118 C 
BRANCH  25  26
HETATM   26  N1  UNL     1      84.749  34.073  55.808  1.00  0.00    -0.241 N 
BRANCH  26  27
HETATM   27  O9  UNL     1      85.186  33.137  54.971  1.00  0.00    -0.285 OA
ATOM     28  H9  UNL     1      84.640  32.853  54.246  1.00  0.00     0.245 HD
ENDBRANCH  26  27
BRANCH  26  29
HETATM   29  C16 UNL     1      83.357  34.449  55.919  1.00  0.00     0.268 C 
HETATM   30  C17 UNL     1      82.509  33.445  55.192  1.00  0.00     0.198 C 
HETATM   31  N2  UNL     1      82.566  33.735  53.772  1.00  0.00    -0.094 NA
HETATM   32  O10 UNL     1      82.086  35.000  53.619  1.00  0.00    -0.261 OA
HETATM   33  C18 UNL     1      82.940  35.935  54.192  1.00  0.00     0.367 C 
HETATM   34  O11 UNL     1      83.117  35.752  55.545  1.00  0.00    -0.337 OA
ENDBRANCH  26  29
ENDBRANCH  25  26
ENDBRANCH   5  24
BRANCH   4  35
HETATM   35  O8  UNL     1      87.293  38.359  55.899  1.00  0.00    -0.389 OA
ATOM     36  H8  UNL     1      86.524  38.823  55.590  1.00  0.00     0.210 HD
ENDBRANCH   4  35
TORSDOF 11
ENDMDL
MODEL 3
REMARK VINA RESULT: -6.901948996      3.134      6.406
REMARK  11 active torsions:
REMARK  status: ('A' for Active; 'I' for Inactive)
REMARK    1  A    between atoms: C1_2  and  C2_4 
REMARK    2  A    between atoms: C2_4  and  O3_5 
REMARK    3  A    between atoms: O3_5  and  C3_6 
REMARK    4  A    between atoms: C6_9  and  O4_10 
REMARK    5  A    between atoms: C10_15  and  O5_16 
REMARK    6  A    between atoms: C10_15  and  C11_18 
REMARK    7  A    between atoms: C12_21  and  O8_22 
REMARK    8  A    between atoms: C13_24  and  C14_25 
REMARK    9  A    between atoms: C15_26  and  N1_27 
REMARK   10  A    between atoms: N1_27  and  O9_28 
REMARK   11  A    between atoms: N1_27  and  C16_30 
ROOT
HETATM    1  C2  UNL     1      85.075  34.401  56.209  1.00  0.00     0.264 C 
HETATM    2  C9  UNL     1      83.912  34.713  57.091  1.00  0.00     0.133 C 
HETATM    3  C10 UNL     1      82.605  34.819  56.395  1.00  0.00     0.179 C 
HETATM    4  C12 UNL     1      82.724  35.345  54.996  1.00  0.00     0.196 C 
HETATM    5  C13 UNL     1      84.082  35.953  54.740  1.00  0.00     0.182 C 
HETATM    6  O12 UNL     1      85.114  35.136  55.011  1.00  0.00    -0.334 OA
ENDROOT
BRANCH   1   7
HETATM    7  C1  UNL     1      85.032  32.966  55.886  1.00  0.00     0.239 C 
HETATM    8  O1  UNL     1      85.554  32.079  56.647  1.00  0.00    -0.644 OA
HETATM    9  O2  UNL     1      84.439  32.477  54.761  1.00  0.00    -0.644 OA
ENDBRANCH   1   7
BRANCH   1  10
HETATM   10  O3  UNL     1      86.283  34.747  56.842  1.00  0.00    -0.304 OA
BRANCH  10  11
HETATM   11  C3  UNL     1      86.701  35.267  57.975  1.00  0.00     0.073 A 
HETATM   12  C4  UNL     1      86.934  34.622  59.171  1.00  0.00     0.039 A 
HETATM   13  C5  UNL     1      87.367  35.231  60.323  1.00  0.00     0.039 A 
HETATM   14  C6  UNL     1      87.596  36.584  60.316  1.00  0.00     0.065 A 
HETATM   15  C7  UNL     1      87.384  37.288  59.154  1.00  0.00     0.039 A 
HETATM   16  C8  UNL     1      86.949  36.654  58.015  1.00  0.00     0.039 A 
BRANCH  14  17
HETATM   17  O4  UNL     1      88.038  37.261  61.461  1.00  0.00    -0.361 OA
ATOM     18  H4  UNL     1      87.517  37.942  61.870  1.00  0.00     0.217 HD
ENDBRANCH  14  17
ENDBRANCH  10  11
ENDBRANCH   1  10
BRANCH   3  19
HETATM   19  O5  UNL     1      81.877  33.626  56.333  1.00  0.00    -0.376 OA
ATOM     20  H5  UNL     1      81.166  33.626  55.702  1.00  0.00     0.211 HD
ENDBRANCH   3  19
BRANCH   3  21
HETATM   21  C11 UNL     1      81.688  35.746  57.195  1.00  0.00     0.212 C 
HETATM   22  O6  UNL     1      82.189  36.743  57.768  1.00  0.00    -0.646 OA
HETATM   23  O7  UNL     1      80.344  35.514  57.299  1.00  0.00    -0.646 OA
ENDBRANCH   3  21
BRANCH   5  24
HETATM   24  C14 UNL     1      84.129  36.318  53.303  1.00  0.00     0.027 C 
HETATM   25  C15 UNL     1      83.246  35.804  52.471  1.00  0.00     0.118 C 
BRANCH  25  26
HETATM   26  N1  UNL     1      83.244  36.121  51.073  1.00  0.00    -0.241 N 
BRANCH  26  27
HETATM   27  O9  UNL     1      84.067  35.487  50.244  1.00  0.00    -0.285 OA
ATOM     28  H9  UNL     1      83.862  34.609  49.946  1.00  0.00     0.245 HD
ENDBRANCH  26  27
BRANCH  26  29
HETATM   29  C16 UNL     1      82.317  37.144  50.641  1.00  0.00     0.268 C 
HETATM   30  C17 UNL     1      82.294  37.194  49.139  1.00  0.00     0.198 C 
HETATM   31  N2  UNL     1      83.457  37.930  48.684  1.00  0.00    -0.094 NA
HETATM   32  O10 UNL     1      83.360  39.174  49.228  1.00  0.00    -0.261 OA
HETATM   33  C18 UNL     1      83.504  39.133  50.610  1.00  0.00     0.367 C 
HETATM   34  O11 UNL     1      82.545  38.365  51.233  1.00  0.00    -0.337 OA
ENDBRANCH  26  29
ENDBRANCH  25  26
ENDBRANCH   5  24
BRANCH   4  35
HETATM   35  O8  UNL     1      81.800  36.387  54.844  1.00  0.00    -0.389 OA
ATOM     36  H8  UNL     1      81.998  36.841  54.033  1.00  0.00     0.210 HD
ENDBRANCH   4  35
TORSDOF 11
ENDMDL
MODEL 4
REMARK VINA RESULT: -6.898868952      1.315      1.822
REMARK  11 active torsions:
REMARK  status: ('A' for Active; 'I' for Inactive)
REMARK    1  A    between atoms: C1_2  and  C2_4 
REMARK    2  A    between atoms: C2_4  and  O3_5 
REMARK    3  A    between atoms: O3_5  and  C3_6 
REMARK    4  A    between atoms: C6_9  and  O4_10 
REMARK    5  A    between atoms: C10_15  and  O5_16 
REMARK    6  A    between atoms: C10_15  and  C11_18 
REMARK    7  A    between atoms: C12_21  and  O8_22 
REMARK    8  A    between atoms: C13_24  and  C14_25 
REMARK    9  A    between atoms: C15_26  and  N1_27 
REMARK   10  A    between atoms: N1_27  and  O9_28 
REMARK   11  A    between atoms: N1_27  and  C16_30 
ROOT
HETATM    1  C2  UNL     1      87.855  36.404  59.254  1.00  0.00     0.264 C 
HETATM    2  C9  UNL     1      88.542  37.706  59.007  1.00  0.00     0.133 C 
HETATM    3  C10 UNL     1      87.822  38.634  58.098  1.00  0.00     0.179 C 
HETATM    4  C12 UNL     1      87.026  37.926  57.044  1.00  0.00     0.196 C 
HETATM    5  C13 UNL     1      87.403  36.467  56.943  1.00  0.00     0.182 C 
HETATM    6  O12 UNL     1      87.326  35.794  58.103  1.00  0.00    -0.334 OA
ENDROOT
BRANCH   1   7
HETATM    7  C1  UNL     1      86.764  36.637  60.213  1.00  0.00     0.239 C 
HETATM    8  O1  UNL     1      85.734  35.879  60.273  1.00  0.00    -0.644 OA
HETATM    9  O2  UNL     1      86.767  37.670  61.103  1.00  0.00    -0.644 OA
ENDBRANCH   1   7
BRANCH   1  10
HETATM   10  O3  UNL     1      88.767  35.448  59.738  1.00  0.00    -0.304 OA
BRANCH  10  11
HETATM   11  C3  UNL     1      89.659  35.316  60.696  1.00  0.00     0.073 A 
HETATM   12  C4  UNL     1      89.648  35.885  61.950  1.00  0.00     0.039 A 
HETATM   13  C5  UNL     1      90.620  35.708  62.904  1.00  0.00     0.039 A 
HETATM   14  C6  UNL     1      91.697  34.908  62.618  1.00  0.00     0.065 A 
HETATM   15  C7  UNL     1      91.769  34.308  61.382  1.00  0.00     0.039 A 
HETATM   16  C8  UNL     1      90.782  34.502  60.445  1.00  0.00     0.039 A 
BRANCH  14  17
HETATM   17  O4  UNL     1      92.720  34.690  63.550  1.00  0.00    -0.361 OA
ATOM     18  H4  UNL     1      92.789  33.875  64.033  1.00  0.00     0.217 HD
ENDBRANCH  14  17
ENDBRANCH  10  11
ENDBRANCH   1  10
BRANCH   3  19
HETATM   19  O5  UNL     1      86.961  39.531  58.740  1.00  0.00    -0.376 OA
ATOM     20  H5  UNL     1      87.222  39.771  59.621  1.00  0.00     0.211 HD
ENDBRANCH   3  19
BRANCH   3  21
HETATM   21  C11 UNL     1      88.838  39.551  57.416  1.00  0.00     0.212 C 
HETATM   22  O6  UNL     1      88.542  40.758  57.244  1.00  0.00    -0.646 OA
HETATM   23  O7  UNL     1      90.054  39.088  56.992  1.00  0.00    -0.646 OA
ENDBRANCH   3  21
BRANCH   5  24
HETATM   24  C14 UNL     1      86.471  35.845  55.970  1.00  0.00     0.027 C 
HETATM   25  C15 UNL     1      85.197  35.713  56.281  1.00  0.00     0.118 C 
BRANCH  25  26
HETATM   26  N1  UNL     1      84.253  35.119  55.381  1.00  0.00    -0.241 N 
BRANCH  26  27
HETATM   27  O9  UNL     1      84.180  35.535  54.120  1.00  0.00    -0.285 OA
ATOM     28  H9  UNL     1      83.378  35.418  53.624  1.00  0.00     0.245 HD
ENDBRANCH  26  27
BRANCH  26  29
HETATM   29  C16 UNL     1      83.411  34.073  55.919  1.00  0.00     0.268 C 
HETATM   30  C17 UNL     1      82.530  33.531  54.830  1.00  0.00     0.198 C 
HETATM   31  N2  UNL     1      81.421  34.445  54.636  1.00  0.00    -0.094 NA
HETATM   32  O10 UNL     1      80.765  34.509  55.827  1.00  0.00    -0.261 OA
HETATM   33  C18 UNL     1      81.544  35.122  56.800  1.00  0.00     0.367 C 
HETATM   34  O11 UNL     1      82.725  34.458  57.048  1.00  0.00    -0.337 OA
ENDBRANCH  26  29
ENDBRANCH  25  26
ENDBRANCH   5  24
BRANCH   4  35
HETATM   35  O8  UNL     1      87.345  38.494  55.803  1.00  0.00    -0.389 OA
ATOM     36  H8  UNL     1      86.793  38.089  55.143  1.00  0.00     0.210 HD
ENDBRANCH   4  35
TORSDOF 11
ENDMDL
MODEL 5
REMARK VINA RESULT: -6.827926034      5.304      9.451
REMARK  11 active torsions:
REMARK  status: ('A' for Active; 'I' for Inactive)
REMARK    1  A    between atoms: C1_2  and  C2_4 
REMARK    2  A    between atoms: C2_4  and  O3_5 
REMARK    3  A    between atoms: O3_5  and  C3_6 
REMARK    4  A    between atoms: C6_9  and  O4_10 
REMARK    5  A    between atoms: C10_15  and  O5_16 
REMARK    6  A    between atoms: C10_15  and  C11_18 
REMARK    7  A    between atoms: C12_21  and  O8_22 
REMARK    8  A    between atoms: C13_24  and  C14_25 
REMARK    9  A    between atoms: C15_26  and  N1_27 
REMARK   10  A    between atoms: N1_27  and  O9_28 
REMARK   11  A    between atoms: N1_27  and  C16_30 
ROOT
HETATM    1  C2  UNL     1      83.007  35.453  54.378  1.00  0.00     0.264 C 
HETATM    2  C9  UNL     1      83.575  34.209  54.979  1.00  0.00     0.133 C 
HETATM    3  C10 UNL     1      84.488  34.426  56.129  1.00  0.00     0.179 C 
HETATM    4  C12 UNL     1      85.265  35.705  56.031  1.00  0.00     0.196 C 
HETATM    5  C13 UNL     1      85.189  36.301  54.646  1.00  0.00     0.182 C 
HETATM    6  O12 UNL     1      83.939  36.489  54.191  1.00  0.00    -0.334 OA
ENDROOT
BRANCH   1   7
HETATM    7  C1  UNL     1      81.929  35.933  55.256  1.00  0.00     0.239 C 
HETATM    8  O1  UNL     1      81.613  37.172  55.334  1.00  0.00    -0.644 OA
HETATM    9  O2  UNL     1      81.193  35.104  56.049  1.00  0.00    -0.644 OA
ENDBRANCH   1   7
BRANCH   1  10
HETATM   10  O3  UNL     1      82.535  35.202  53.077  1.00  0.00    -0.304 OA
BRANCH  10  11
HETATM   11  C3  UNL     1      82.404  35.826  51.926  1.00  0.00     0.073 A 
HETATM   12  C4  UNL     1      83.333  35.949  50.916  1.00  0.00     0.039 A 
HETATM   13  C5  UNL     1      83.130  36.623  49.737  1.00  0.00     0.039 A 
HETATM   14  C6  UNL     1      81.919  37.230  49.517  1.00  0.00     0.065 A 
HETATM   15  C7  UNL     1      80.946  37.145  50.485  1.00  0.00     0.039 A 
HETATM   16  C8  UNL     1      81.176  36.464  51.658  1.00  0.00     0.039 A 
BRANCH  14  17
HETATM   17  O4  UNL     1      81.653  37.933  48.334  1.00  0.00    -0.361 OA
ATOM     18  H4  UNL     1      80.799  38.309  48.159  1.00  0.00     0.217 HD
ENDBRANCH  14  17
ENDBRANCH  10  11
ENDBRANCH   1  10
BRANCH   3  19
HETATM   19  O5  UNL     1      83.865  34.411  57.382  1.00  0.00    -0.376 OA
ATOM     20  H5  UNL     1      83.615  35.265  57.713  1.00  0.00     0.211 HD
ENDBRANCH   3  19
BRANCH   3  21
HETATM   21  C11 UNL     1      85.471  33.257  56.212  1.00  0.00     0.212 C 
HETATM   22  O6  UNL     1      85.774  32.803  57.341  1.00  0.00    -0.646 OA
HETATM   23  O7  UNL     1      86.024  32.702  55.091  1.00  0.00    -0.646 OA
ENDBRANCH   3  21
BRANCH   5  24
HETATM   24  C14 UNL     1      85.878  37.614  54.701  1.00  0.00     0.027 C 
HETATM   25  C15 UNL     1      85.680  38.495  53.739  1.00  0.00     0.118 C 
BRANCH  25  26
HETATM   26  N1  UNL     1      86.318  39.777  53.741  1.00  0.00    -0.241 N 
BRANCH  26  27
HETATM   27  O9  UNL     1      85.599  40.882  53.565  1.00  0.00    -0.285 OA
ATOM     28  H9  UNL     1      85.906  41.711  53.912  1.00  0.00     0.245 HD
ENDBRANCH  26  27
BRANCH  26  29
HETATM   29  C16 UNL     1      87.751  39.789  53.939  1.00  0.00     0.268 C 
HETATM   30  C17 UNL     1      88.205  41.194  54.218  1.00  0.00     0.198 C 
HETATM   31  N2  UNL     1      88.284  41.911  52.960  1.00  0.00    -0.094 NA
HETATM   32  O10 UNL     1      89.182  41.238  52.190  1.00  0.00    -0.261 OA
HETATM   33  C18 UNL     1      88.702  39.983  51.835  1.00  0.00     0.367 C 
HETATM   34  O11 UNL     1      88.443  39.174  52.920  1.00  0.00    -0.337 OA
ENDBRANCH  26  29
ENDBRANCH  25  26
ENDBRANCH   5  24
BRANCH   4  35
HETATM   35  O8  UNL     1      86.617  35.411  56.251  1.00  0.00    -0.389 OA
ATOM     36  H8  UNL     1      87.063  35.430  55.413  1.00  0.00     0.210 HD
ENDBRANCH   4  35
TORSDOF 11
ENDMDL
