MODEL 1
REMARK VINA RESULT: -7.449873656      0.000      0.000
REMARK  11 active torsions:
REMARK  status: ('A' for Active; 'I' for Inactive)
REMARK    1  A    between atoms: N3_8  and  C4_10 
REMARK    2  A    between atoms: N4_13  and  C7_14 
REMARK    3  A    between atoms: C7_14  and  C8_15 
REMARK    4  A    between atoms: C8_15  and  O1_16 
REMARK    5  A    between atoms: C9_18  and  N5_19 
REMARK    6  A    between atoms: N5_19  and  N6_20 
REMARK       I    between atoms: N6_20  and  C10_22 
REMARK    7  A    between atoms: C10_22  and  C11_24 
REMARK    8  A    between atoms: C11_24  and  S1_25 
REMARK    9  A    between atoms: S1_25  and  C12_26 
REMARK   10  A    between atoms: C13_29  and  N8_30 
REMARK   11  A    between atoms: C14_35  and  N10_36 
ROOT
HETATM    1  N5  UNL     1      87.389  36.626  56.098  1.00  0.00    -0.284 NA
ENDROOT
BRANCH   1   2
HETATM    2  C9  UNL     1      87.150  35.953  57.078  1.00  0.00     0.284 A 
HETATM    3  N4  UNL     1      86.248  34.955  57.069  1.00  0.00    -0.314 N 
HETATM    4  C6  UNL     1      85.991  34.341  58.247  1.00  0.00     0.099 A 
HETATM    5  C5  UNL     1      86.605  34.688  59.424  1.00  0.00     0.066 A 
HETATM    6  C4  UNL     1      87.537  35.715  59.428  1.00  0.00     0.111 A 
HETATM    7  N12 UNL     1      87.775  36.308  58.258  1.00  0.00    -0.300 N 
ATOM      8  H12 UNL     1      88.456  37.066  58.232  1.00  0.00     0.171 HD
BRANCH   3   9
HETATM    9  C7  UNL     1      85.577  34.487  55.853  1.00  0.00     0.158 C 
BRANCH   9  10
HETATM   10  C8  UNL     1      85.423  32.978  55.890  1.00  0.00     0.184 C 
BRANCH  10  11
HETATM   11  O1  UNL     1      85.922  32.425  54.686  1.00  0.00    -0.399 OA
ATOM     12  H1  UNL     1      86.258  31.553  54.855  1.00  0.00     0.209 HD
ENDBRANCH  10  11
ENDBRANCH   9  10
ENDBRANCH   3   9
BRANCH   6  13
HETATM   13  N3  UNL     1      88.186  36.145  60.604  1.00  0.00    -0.321 N 
HETATM   14  C3  UNL     1      89.305  35.692  61.036  1.00  0.00     0.166 A 
HETATM   15  N2  UNL     1      89.951  36.090  62.164  1.00  0.00    -0.279 N 
HETATM   16  S2  UNL     1      90.384  34.497  60.459  1.00  0.00    -0.038 SA
HETATM   17  N1  UNL     1      91.041  35.542  62.453  1.00  0.00    -0.296 N 
ATOM     18  H2  UNL     1      89.558  36.818  62.761  1.00  0.00     0.189 HD
HETATM   19  C2  UNL     1      91.563  34.598  61.690  1.00  0.00     0.066 A 
ATOM     20  H1  UNL     1      91.536  35.832  63.296  1.00  0.00     0.187 HD
HETATM   21  C1  UNL     1      92.855  33.853  61.910  1.00  0.00     0.078 C 
ATOM     22  H3  UNL     1      87.730  36.872  61.154  1.00  0.00     0.169 HD
ENDBRANCH   6  13
ENDBRANCH   1   2
BRANCH   1  23
HETATM   23  N6  UNL     1      87.634  37.314  55.094  1.00  0.00    -0.199 N 
HETATM   24  C10 UNL     1      88.359  38.553  54.931  1.00  0.00     0.256 C 
HETATM   25  O2  UNL     1      88.881  39.137  55.865  1.00  0.00    -0.270 OA
ATOM     26  H6  UNL     1      87.255  36.936  54.226  1.00  0.00     0.205 HD
BRANCH  24  27
HETATM   27  C11 UNL     1      88.413  39.055  53.535  1.00  0.00     0.187 C 
BRANCH  27  28
HETATM   28  S1  UNL     1      89.309  40.612  53.537  1.00  0.00    -0.083 SA
BRANCH  28  29
HETATM   29  C12 UNL     1      91.063  40.296  53.690  1.00  0.00     0.174 A 
HETATM   30  N7  UNL     1      91.912  41.069  52.952  1.00  0.00    -0.170 N 
HETATM   31  C13 UNL     1      93.232  40.841  53.014  1.00  0.00     0.692 A 
ATOM     32  H7  UNL     1      91.546  41.814  52.359  1.00  0.00     0.186 HD
HETATM   33  N9  UNL     1      93.704  39.886  53.777  1.00  0.00    -0.023 N 
HETATM   34  C14 UNL     1      92.889  39.109  54.517  1.00  0.00     0.692 A 
ATOM     35  H9  UNL     1      94.711  39.727  53.811  1.00  0.00     0.203 HD
HETATM   36  N11 UNL     1      91.558  39.339  54.453  1.00  0.00    -0.170 N 
ATOM     37  H11 UNL     1      90.924  38.762  55.005  1.00  0.00     0.186 HD
BRANCH  31  38
HETATM   38  N8  UNL     1      94.031  41.588  52.286  1.00  0.00    -0.234 N 
ATOM     39  H82 UNL     1      94.738  41.172  51.680  1.00  0.00     0.174 HD
ATOM     40  H81 UNL     1      93.923  42.602  52.332  1.00  0.00     0.174 HD
ENDBRANCH  31  38
BRANCH  34  41
HETATM   41  N10 UNL     1      93.308  38.165  55.293  1.00  0.00    -0.234 N 
ATOM     42 2H10 UNL     1      94.310  38.097  55.469  1.00  0.00     0.174 HD
ATOM     43 1H10 UNL     1      92.694  37.479  55.732  1.00  0.00     0.174 HD
ENDBRANCH  34  41
ENDBRANCH  28  29
ENDBRANCH  27  28
ENDBRANCH  24  27
ENDBRANCH   1  23
TORSDOF 11
ENDMDL
MODEL 2
REMARK VINA RESULT: -7.427310500      0.970      1.778
REMARK  11 active torsions:
REMARK  status: ('A' for Active; 'I' for Inactive)
REMARK    1  A    between atoms: N3_8  and  C4_10 
REMARK    2  A    between atoms: N4_13  and  C7_14 
REMARK    3  A    between atoms: C7_14  and  C8_15 
REMARK    4  A    between atoms: C8_15  and  O1_16 
REMARK    5  A    between atoms: C9_18  and  N5_19 
REMARK    6  A    between atoms: N5_19  and  N6_20 
REMARK       I    between atoms: N6_20  and  C10_22 
REMARK    7  A    between atoms: C10_22  and  C11_24 
REMARK    8  A    between atoms: C11_24  and  S1_25 
REMARK    9  A    between atoms: S1_25  and  C12_26 
REMARK   10  A    between atoms: C13_29  and  N8_30 
REMARK   11  A    between atoms: C14_35  and  N10_36 
ROOT
HETATM    1  N5  UNL     1      87.267  36.790  56.125  1.00  0.00    -0.284 NA
ENDROOT
BRANCH   1   2
HETATM    2  C9  UNL     1      87.124  36.047  57.071  1.00  0.00     0.284 A 
HETATM    3  N4  UNL     1      86.314  34.973  57.034  1.00  0.00    -0.314 N 
HETATM    4  C6  UNL     1      86.156  34.276  58.182  1.00  0.00     0.099 A 
HETATM    5  C5  UNL     1      86.778  34.613  59.358  1.00  0.00     0.066 A 
HETATM    6  C4  UNL     1      87.614  35.719  59.392  1.00  0.00     0.111 A 
HETATM    7  N12 UNL     1      87.756  36.393  58.251  1.00  0.00    -0.300 N 
ATOM      8  H12 UNL     1      88.366  37.210  58.247  1.00  0.00     0.171 HD
BRANCH   3   9
HETATM    9  C7  UNL     1      85.645  34.513  55.814  1.00  0.00     0.158 C 
BRANCH   9  10
HETATM   10  C8  UNL     1      85.428  33.012  55.872  1.00  0.00     0.184 C 
BRANCH  10  11
HETATM   11  O1  UNL     1      85.915  32.421  54.681  1.00  0.00    -0.399 OA
ATOM     12  H1  UNL     1      86.631  31.833  54.891  1.00  0.00     0.209 HD
ENDBRANCH  10  11
ENDBRANCH   9  10
ENDBRANCH   3   9
BRANCH   6  13
HETATM   13  N3  UNL     1      88.264  36.141  60.569  1.00  0.00    -0.321 N 
HETATM   14  C3  UNL     1      89.371  35.667  61.012  1.00  0.00     0.166 A 
HETATM   15  N2  UNL     1      90.017  36.059  62.142  1.00  0.00    -0.279 N 
HETATM   16  S2  UNL     1      90.428  34.447  60.449  1.00  0.00    -0.038 SA
HETATM   17  N1  UNL     1      91.094  35.489  62.441  1.00  0.00    -0.296 N 
ATOM     18  H2  UNL     1      89.635  36.797  62.732  1.00  0.00     0.189 HD
HETATM   19  C2  UNL     1      91.601  34.531  61.687  1.00  0.00     0.066 A 
ATOM     20  H1  UNL     1      91.589  35.774  63.286  1.00  0.00     0.187 HD
HETATM   21  C1  UNL     1      92.876  33.761  61.919  1.00  0.00     0.078 C 
ATOM     22  H3  UNL     1      87.819  36.881  61.112  1.00  0.00     0.169 HD
ENDBRANCH   6  13
ENDBRANCH   1   2
BRANCH   1  23
HETATM   23  N6  UNL     1      87.415  37.552  55.156  1.00  0.00    -0.199 N 
HETATM   24  C10 UNL     1      88.587  38.194  54.607  1.00  0.00     0.256 C 
HETATM   25  O2  UNL     1      89.700  38.045  55.079  1.00  0.00    -0.270 OA
ATOM     26  H6  UNL     1      86.552  37.764  54.656  1.00  0.00     0.205 HD
BRANCH  24  27
HETATM   27  C11 UNL     1      88.322  39.050  53.422  1.00  0.00     0.187 C 
BRANCH  27  28
HETATM   28  S1  UNL     1      88.977  40.688  53.760  1.00  0.00    -0.083 SA
BRANCH  28  29
HETATM   29  C12 UNL     1      90.522  40.909  52.885  1.00  0.00     0.174 A 
HETATM   30  N7  UNL     1      91.672  40.567  53.534  1.00  0.00    -0.170 N 
HETATM   31  C13 UNL     1      92.853  40.750  52.923  1.00  0.00     0.692 A 
ATOM     32  H7  UNL     1      91.635  40.176  54.475  1.00  0.00     0.186 HD
HETATM   33  N9  UNL     1      92.902  41.250  51.714  1.00  0.00    -0.023 N 
HETATM   34  C14 UNL     1      91.781  41.594  51.048  1.00  0.00     0.692 A 
ATOM     35  H9  UNL     1      93.808  41.382  51.265  1.00  0.00     0.203 HD
HETATM   36  N11 UNL     1      90.591  41.411  51.666  1.00  0.00    -0.170 N 
ATOM     37  H11 UNL     1      89.732  41.666  51.180  1.00  0.00     0.186 HD
BRANCH  31  38
HETATM   38  N8  UNL     1      93.949  40.426  53.571  1.00  0.00    -0.234 N 
ATOM     39  H82 UNL     1      93.992  40.468  54.590  1.00  0.00     0.174 HD
ATOM     40  H81 UNL     1      94.760  40.122  53.032  1.00  0.00     0.174 HD
ENDBRANCH  31  38
BRANCH  34  41
HETATM   41  N10 UNL     1      91.778  42.079  49.851  1.00  0.00    -0.234 N 
ATOM     42 2H10 UNL     1      91.500  43.053  49.726  1.00  0.00     0.174 HD
ATOM     43 1H10 UNL     1      92.031  41.541  49.022  1.00  0.00     0.174 HD
ENDBRANCH  34  41
ENDBRANCH  28  29
ENDBRANCH  27  28
ENDBRANCH  24  27
ENDBRANCH   1  23
TORSDOF 11
ENDMDL
MODEL 3
REMARK VINA RESULT: -7.350441649      3.205      4.878
REMARK  11 active torsions:
REMARK  status: ('A' for Active; 'I' for Inactive)
REMARK    1  A    between atoms: N3_8  and  C4_10 
REMARK    2  A    between atoms: N4_13  and  C7_14 
REMARK    3  A    between atoms: C7_14  and  C8_15 
REMARK    4  A    between atoms: C8_15  and  O1_16 
REMARK    5  A    between atoms: C9_18  and  N5_19 
REMARK    6  A    between atoms: N5_19  and  N6_20 
REMARK       I    between atoms: N6_20  and  C10_22 
REMARK    7  A    between atoms: C10_22  and  C11_24 
REMARK    8  A    between atoms: C11_24  and  S1_25 
REMARK    9  A    between atoms: S1_25  and  C12_26 
REMARK   10  A    between atoms: C13_29  and  N8_30 
REMARK   11  A    between atoms: C14_35  and  N10_36 
ROOT
HETATM    1  N5  UNL     1      87.130  36.930  56.516  1.00  0.00    -0.284 NA
ENDROOT
BRANCH   1   2
HETATM    2  C9  UNL     1      87.077  36.139  57.433  1.00  0.00     0.284 A 
HETATM    3  N4  UNL     1      86.319  35.029  57.390  1.00  0.00    -0.314 N 
HETATM    4  C6  UNL     1      86.260  34.273  58.510  1.00  0.00     0.099 A 
HETATM    5  C5  UNL     1      86.932  34.589  59.665  1.00  0.00     0.066 A 
HETATM    6  C4  UNL     1      87.714  35.733  59.705  1.00  0.00     0.111 A 
HETATM    7  N12 UNL     1      87.758  36.464  58.591  1.00  0.00    -0.300 N 
ATOM      8  H12 UNL     1      88.327  37.310  58.592  1.00  0.00     0.171 HD
BRANCH   3   9
HETATM    9  C7  UNL     1      85.604  34.589  56.188  1.00  0.00     0.158 C 
BRANCH   9  10
HETATM   10  C8  UNL     1      85.555  33.073  56.134  1.00  0.00     0.184 C 
BRANCH  10  11
HETATM   11  O1  UNL     1      86.029  32.632  54.875  1.00  0.00    -0.399 OA
ATOM     12  H1  UNL     1      85.957  31.686  54.826  1.00  0.00     0.209 HD
ENDBRANCH  10  11
ENDBRANCH   9  10
ENDBRANCH   3   9
BRANCH   6  13
HETATM   13  N3  UNL     1      88.410  36.135  60.863  1.00  0.00    -0.321 N 
HETATM   14  C3  UNL     1      89.530  35.651  61.257  1.00  0.00     0.166 A 
HETATM   15  N2  UNL     1      90.219  36.023  62.368  1.00  0.00    -0.279 N 
HETATM   16  S2  UNL     1      90.561  34.437  60.636  1.00  0.00    -0.038 SA
HETATM   17  N1  UNL     1      91.304  35.446  62.617  1.00  0.00    -0.296 N 
ATOM     18  H2  UNL     1      89.863  36.754  62.984  1.00  0.00     0.189 HD
HETATM   19  C2  UNL     1      91.779  34.498  61.831  1.00  0.00     0.066 A 
ATOM     20  H1  UNL     1      91.832  35.715  63.448  1.00  0.00     0.187 HD
HETATM   21  C1  UNL     1      93.059  33.719  62.003  1.00  0.00     0.078 C 
ATOM     22  H3  UNL     1      87.988  36.868  61.434  1.00  0.00     0.169 HD
ENDBRANCH   6  13
ENDBRANCH   1   2
BRANCH   1  23
HETATM   23  N6  UNL     1      87.185  37.740  55.577  1.00  0.00    -0.199 N 
HETATM   24  C10 UNL     1      88.246  38.072  54.655  1.00  0.00     0.256 C 
HETATM   25  O2  UNL     1      89.339  37.533  54.687  1.00  0.00    -0.270 OA
ATOM     26  H6  UNL     1      86.325  38.267  55.429  1.00  0.00     0.205 HD
BRANCH  24  27
HETATM   27  C11 UNL     1      87.896  39.124  53.666  1.00  0.00     0.187 C 
BRANCH  27  28
HETATM   28  S1  UNL     1      86.186  39.600  53.941  1.00  0.00    -0.083 SA
BRANCH  28  29
HETATM   29  C12 UNL     1      85.146  38.853  52.691  1.00  0.00     0.174 A 
HETATM   30  N7  UNL     1      84.137  39.610  52.171  1.00  0.00    -0.170 N 
HETATM   31  C13 UNL     1      83.315  39.074  51.256  1.00  0.00     0.692 A 
ATOM     32  H7  UNL     1      84.009  40.576  52.476  1.00  0.00     0.186 HD
HETATM   33  N9  UNL     1      83.480  37.836  50.863  1.00  0.00    -0.023 N 
HETATM   34  C14 UNL     1      84.470  37.066  51.358  1.00  0.00     0.692 A 
ATOM     35  H9  UNL     1      82.845  37.445  50.167  1.00  0.00     0.203 HD
HETATM   36  N11 UNL     1      85.297  37.607  52.281  1.00  0.00    -0.170 N 
ATOM     37  H11 UNL     1      86.051  37.041  52.669  1.00  0.00     0.186 HD
BRANCH  31  38
HETATM   38  N8  UNL     1      82.342  39.817  50.779  1.00  0.00    -0.234 N 
ATOM     39  H82 UNL     1      81.403  39.779  51.177  1.00  0.00     0.174 HD
ATOM     40  H81 UNL     1      82.548  40.445  50.001  1.00  0.00     0.174 HD
ENDBRANCH  31  38
BRANCH  34  41
HETATM   41  N10 UNL     1      84.679  35.845  50.992  1.00  0.00    -0.234 N 
ATOM     42 2H10 UNL     1      84.230  35.099  51.524  1.00  0.00     0.174 HD
ATOM     43 1H10 UNL     1      85.274  35.584  50.207  1.00  0.00     0.174 HD
ENDBRANCH  34  41
ENDBRANCH  28  29
ENDBRANCH  27  28
ENDBRANCH  24  27
ENDBRANCH   1  23
TORSDOF 11
ENDMDL
MODEL 4
REMARK VINA RESULT: -7.320708180      4.076      8.743
REMARK  11 active torsions:
REMARK  status: ('A' for Active; 'I' for Inactive)
REMARK    1  A    between atoms: N3_8  and  C4_10 
REMARK    2  A    between atoms: N4_13  and  C7_14 
REMARK    3  A    between atoms: C7_14  and  C8_15 
REMARK    4  A    between atoms: C8_15  and  O1_16 
REMARK    5  A    between atoms: C9_18  and  N5_19 
REMARK    6  A    between atoms: N5_19  and  N6_20 
REMARK       I    between atoms: N6_20  and  C10_22 
REMARK    7  A    between atoms: C10_22  and  C11_24 
REMARK    8  A    between atoms: C11_24  and  S1_25 
REMARK    9  A    between atoms: S1_25  and  C12_26 
REMARK   10  A    between atoms: C13_29  and  N8_30 
REMARK   11  A    between atoms: C14_35  and  N10_36 
ROOT
HETATM    1  N5  UNL     1      87.236  36.471  57.760  1.00  0.00    -0.284 NA
ENDROOT
BRANCH   1   2
HETATM    2  C9  UNL     1      86.590  36.399  56.737  1.00  0.00     0.284 A 
HETATM    3  N4  UNL     1      86.592  37.372  55.809  1.00  0.00    -0.314 N 
HETATM    4  C6  UNL     1      85.755  37.228  54.756  1.00  0.00     0.099 A 
HETATM    5  C5  UNL     1      84.923  36.147  54.602  1.00  0.00     0.066 A 
HETATM    6  C4  UNL     1      84.925  35.145  55.560  1.00  0.00     0.111 A 
HETATM    7  N12 UNL     1      85.757  35.306  56.589  1.00  0.00    -0.300 N 
ATOM      8  H12 UNL     1      85.779  34.583  57.308  1.00  0.00     0.171 HD
BRANCH   3   9
HETATM    9  C7  UNL     1      87.479  38.538  55.867  1.00  0.00     0.158 C 
BRANCH   9  10
HETATM   10  C8  UNL     1      88.403  38.553  54.663  1.00  0.00     0.184 C 
BRANCH  10  11
HETATM   11  O1  UNL     1      89.333  37.492  54.773  1.00  0.00    -0.399 OA
ATOM     12  H1  UNL     1      88.974  36.714  54.362  1.00  0.00     0.209 HD
ENDBRANCH  10  11
ENDBRANCH   9  10
ENDBRANCH   3   9
BRANCH   6  13
HETATM   13  N3  UNL     1      84.078  34.021  55.482  1.00  0.00    -0.321 N 
HETATM   14  C3  UNL     1      82.854  34.044  55.099  1.00  0.00     0.166 A 
HETATM   15  N2  UNL     1      82.018  32.976  55.014  1.00  0.00    -0.279 N 
HETATM   16  S2  UNL     1      81.815  35.300  54.583  1.00  0.00    -0.038 SA
HETATM   17  N1  UNL     1      80.842  33.168  54.624  1.00  0.00    -0.296 N 
ATOM     18  H2  UNL     1      82.340  32.040  55.262  1.00  0.00     0.189 HD
HETATM   19  C2  UNL     1      80.409  34.373  54.301  1.00  0.00     0.066 A 
ATOM     20  H1  UNL     1      80.204  32.374  54.556  1.00  0.00     0.187 HD
HETATM   21  C1  UNL     1      79.032  34.754  53.821  1.00  0.00     0.078 C 
ATOM     22  H3  UNL     1      84.468  33.118  55.751  1.00  0.00     0.169 HD
ENDBRANCH   6  13
ENDBRANCH   1   2
BRANCH   1  23
HETATM   23  N6  UNL     1      87.897  36.545  58.809  1.00  0.00    -0.199 N 
HETATM   24  C10 UNL     1      88.176  37.651  59.693  1.00  0.00     0.256 C 
HETATM   25  O2  UNL     1      87.742  38.774  59.499  1.00  0.00    -0.270 OA
ATOM     26  H6  UNL     1      88.321  35.663  59.097  1.00  0.00     0.205 HD
BRANCH  24  27
HETATM   27  C11 UNL     1      89.034  37.309  60.857  1.00  0.00     0.187 C 
BRANCH  27  28
HETATM   28  S1  UNL     1      89.462  35.569  60.740  1.00  0.00    -0.083 SA
BRANCH  28  29
HETATM   29  C12 UNL     1      90.734  35.181  61.937  1.00  0.00     0.174 A 
HETATM   30  N7  UNL     1      90.682  35.816  63.144  1.00  0.00    -0.170 N 
HETATM   31  C13 UNL     1      91.637  35.577  64.055  1.00  0.00     0.692 A 
ATOM     32  H7  UNL     1      89.923  36.466  63.351  1.00  0.00     0.186 HD
HETATM   33  N9  UNL     1      92.610  34.741  63.792  1.00  0.00    -0.023 N 
HETATM   34  C14 UNL     1      92.684  34.099  62.608  1.00  0.00     0.692 A 
ATOM     35  H9  UNL     1      93.327  34.572  64.496  1.00  0.00     0.203 HD
HETATM   36  N11 UNL     1      91.722  34.341  61.690  1.00  0.00    -0.170 N 
ATOM     37  H11 UNL     1      91.761  33.866  60.788  1.00  0.00     0.186 HD
BRANCH  31  38
HETATM   38  N8  UNL     1      91.575  36.209  65.206  1.00  0.00    -0.234 N 
ATOM     39  H82 UNL     1      90.712  36.232  65.751  1.00  0.00     0.174 HD
ATOM     40  H81 UNL     1      92.416  36.673  65.551  1.00  0.00     0.174 HD
ENDBRANCH  31  38
BRANCH  34  41
HETATM   41  N10 UNL     1      93.617  33.257  62.308  1.00  0.00    -0.234 N 
ATOM     42 2H10 UNL     1      94.329  33.056  63.010  1.00  0.00     0.174 HD
ATOM     43 1H10 UNL     1      93.686  32.788  61.405  1.00  0.00     0.174 HD
ENDBRANCH  34  41
ENDBRANCH  28  29
ENDBRANCH  27  28
ENDBRANCH  24  27
ENDBRANCH   1  23
TORSDOF 11
ENDMDL
MODEL 5
REMARK VINA RESULT: -7.301920956      3.230      5.001
REMARK  11 active torsions:
REMARK  status: ('A' for Active; 'I' for Inactive)
REMARK    1  A    between atoms: N3_8  and  C4_10 
REMARK    2  A    between atoms: N4_13  and  C7_14 
REMARK    3  A    between atoms: C7_14  and  C8_15 
REMARK    4  A    between atoms: C8_15  and  O1_16 
REMARK    5  A    between atoms: C9_18  and  N5_19 
REMARK    6  A    between atoms: N5_19  and  N6_20 
REMARK       I    between atoms: N6_20  and  C10_22 
REMARK    7  A    between atoms: C10_22  and  C11_24 
REMARK    8  A    between atoms: C11_24  and  S1_25 
REMARK    9  A    between atoms: S1_25  and  C12_26 
REMARK   10  A    between atoms: C13_29  and  N8_30 
REMARK   11  A    between atoms: C14_35  and  N10_36 
ROOT
HETATM    1  N5  UNL     1      87.108  36.927  56.542  1.00  0.00    -0.284 NA
ENDROOT
BRANCH   1   2
HETATM    2  C9  UNL     1      87.065  36.141  57.465  1.00  0.00     0.284 A 
HETATM    3  N4  UNL     1      86.304  35.033  57.438  1.00  0.00    -0.314 N 
HETATM    4  C6  UNL     1      86.259  34.285  58.564  1.00  0.00     0.099 A 
HETATM    5  C5  UNL     1      86.947  34.605  59.707  1.00  0.00     0.066 A 
HETATM    6  C4  UNL     1      87.734  35.747  59.730  1.00  0.00     0.111 A 
HETATM    7  N12 UNL     1      87.764  36.471  58.611  1.00  0.00    -0.300 N 
ATOM      8  H12 UNL     1      88.335  37.316  58.599  1.00  0.00     0.171 HD
BRANCH   3   9
HETATM    9  C7  UNL     1      85.570  34.589  56.249  1.00  0.00     0.158 C 
BRANCH   9  10
HETATM   10  C8  UNL     1      85.567  33.073  56.174  1.00  0.00     0.184 C 
BRANCH  10  11
HETATM   11  O1  UNL     1      86.038  32.665  54.903  1.00  0.00    -0.399 OA
ATOM     12  H1  UNL     1      86.605  31.909  55.006  1.00  0.00     0.209 HD
ENDBRANCH  10  11
ENDBRANCH   9  10
ENDBRANCH   3   9
BRANCH   6  13
HETATM   13  N3  UNL     1      88.446  36.154  60.876  1.00  0.00    -0.321 N 
HETATM   14  C3  UNL     1      89.564  35.660  61.263  1.00  0.00     0.166 A 
HETATM   15  N2  UNL     1      90.271  36.036  62.363  1.00  0.00    -0.279 N 
HETATM   16  S2  UNL     1      90.573  34.424  60.647  1.00  0.00    -0.038 SA
HETATM   17  N1  UNL     1      91.350  35.447  62.608  1.00  0.00    -0.296 N 
ATOM     18  H2  UNL     1      89.930  36.778  62.973  1.00  0.00     0.189 HD
HETATM   19  C2  UNL     1      91.805  34.483  61.828  1.00  0.00     0.066 A 
ATOM     20  H1  UNL     1      91.891  35.720  63.429  1.00  0.00     0.187 HD
HETATM   21  C1  UNL     1      93.076  33.690  61.996  1.00  0.00     0.078 C 
ATOM     22  H3  UNL     1      88.041  36.899  61.442  1.00  0.00     0.169 HD
ENDBRANCH   6  13
ENDBRANCH   1   2
BRANCH   1  23
HETATM   23  N6  UNL     1      87.152  37.731  55.597  1.00  0.00    -0.199 N 
HETATM   24  C10 UNL     1      88.203  38.064  54.665  1.00  0.00     0.256 C 
HETATM   25  O2  UNL     1      89.299  37.531  54.693  1.00  0.00    -0.270 OA
ATOM     26  H6  UNL     1      86.287  38.252  55.453  1.00  0.00     0.205 HD
BRANCH  24  27
HETATM   27  C11 UNL     1      87.839  39.107  53.673  1.00  0.00     0.187 C 
BRANCH  27  28
HETATM   28  S1  UNL     1      86.153  39.628  54.004  1.00  0.00    -0.083 SA
BRANCH  28  29
HETATM   29  C12 UNL     1      85.059  38.948  52.763  1.00  0.00     0.174 A 
HETATM   30  N7  UNL     1      85.275  37.661  52.365  1.00  0.00    -0.170 N 
HETATM   31  C13 UNL     1      84.496  37.126  51.412  1.00  0.00     0.692 A 
ATOM     32  H7  UNL     1      86.021  37.110  52.789  1.00  0.00     0.186 HD
HETATM   33  N9  UNL     1      83.536  37.832  50.869  1.00  0.00    -0.023 N 
HETATM   34  C14 UNL     1      83.299  39.105  51.245  1.00  0.00     0.692 A 
ATOM     35  H9  UNL     1      82.954  37.410  50.146  1.00  0.00     0.203 HD
HETATM   36  N11 UNL     1      84.085  39.643  52.204  1.00  0.00    -0.170 N 
ATOM     37  H11 UNL     1      83.923  40.605  52.502  1.00  0.00     0.186 HD
BRANCH  31  38
HETATM   38  N8  UNL     1      84.730  35.890  51.035  1.00  0.00    -0.234 N 
ATOM     39  H82 UNL     1      85.388  35.682  50.283  1.00  0.00     0.174 HD
ATOM     40  H81 UNL     1      84.243  35.134  51.518  1.00  0.00     0.174 HD
ENDBRANCH  31  38
BRANCH  34  41
HETATM   41  N10 UNL     1      82.357  39.836  50.747  1.00  0.00    -0.234 N 
ATOM     42 2H10 UNL     1      81.953  39.557  49.853  1.00  0.00     0.174 HD
ATOM     43 1H10 UNL     1      81.999  40.680  51.194  1.00  0.00     0.174 HD
ENDBRANCH  34  41
ENDBRANCH  28  29
ENDBRANCH  27  28
ENDBRANCH  24  27
ENDBRANCH   1  23
TORSDOF 11
ENDMDL
