MODEL 1
REMARK VINA RESULT: -8.264435050      0.000      0.000
REMARK  4 active torsions:
REMARK  status: ('A' for Active; 'I' for Inactive)
REMARK    1  A    between atoms: N2_10  and  C8_11 
REMARK    2  A    between atoms: C8_11  and  C9_12 
REMARK    3  A    between atoms: C11_14  and  O1_15 
REMARK    4  A    between atoms: C12_17  and  O2_18 
ROOT
HETATM    1  C1  UNL     1      18.881  69.769   7.385  1.00  0.00     0.310 C 
HETATM    2  N1  UNL     1      18.959  69.424   5.978  1.00  0.00     0.086 N 
HETATM    3  C2  UNL     1      20.302  69.009   5.680  1.00  0.00     0.282 C 
HETATM    4  C3  UNL     1      20.569  68.901   4.208  1.00  0.00     0.104 C 
HETATM    5  S1  UNL     1      19.343  69.854   3.240  1.00  0.00    -0.167 SA
HETATM    6  C4  UNL     1      18.714  68.791   1.918  1.00  0.00     0.074 C 
HETATM    7  C5  UNL     1      17.231  68.980   1.702  1.00  0.00     0.012 C 
HETATM    8  C6  UNL     1      16.482  69.194   3.001  1.00  0.00     0.031 C 
HETATM    9  C7  UNL     1      16.131  67.879   3.626  1.00  0.00     0.273 C 
HETATM   10  N2  UNL     1      15.789  67.948   5.007  1.00  0.00     0.096 N 
HETATM   11  C13 UNL     1      16.661  68.764   5.800  1.00  0.00     0.303 C 
HETATM   12  C14 UNL     1      18.087  68.277   5.774  1.00  0.00     0.302 C 
ENDROOT
BRANCH  10  13
HETATM   13  C8  UNL     1      15.749  66.632   5.577  1.00  0.00     0.337 C 
BRANCH  13  14
HETATM   14  C9  UNL     1      14.667  65.784   4.967  1.00  0.00     0.087 A 
HETATM   15  C10 UNL     1      14.840  64.865   3.953  1.00  0.00     0.076 A 
HETATM   16  C11 UNL     1      13.618  64.280   3.658  1.00  0.00     0.126 A 
HETATM   17  C12 UNL     1      12.735  64.896   4.538  1.00  0.00     0.217 A 
HETATM   18  O3  UNL     1      13.400  65.757   5.272  1.00  0.00    -0.288 OA
BRANCH  16  19
HETATM   19  O1  UNL     1      13.344  63.308   2.705  1.00  0.00    -0.356 OA
ATOM     20  H1  UNL     1      12.631  62.680   2.698  1.00  0.00     0.218 HD
ENDBRANCH  16  19
BRANCH  17  21
HETATM   21  O2  UNL     1      11.360  64.617   4.606  1.00  0.00    -0.339 OA
ATOM     22  H2  UNL     1      10.699  65.244   4.873  1.00  0.00     0.220 HD
ENDBRANCH  17  21
ENDBRANCH  13  14
ENDBRANCH  10  13
TORSDOF 4
ENDMDL
MODEL 2
REMARK VINA RESULT: -8.064123415      1.365      2.088
REMARK  4 active torsions:
REMARK  status: ('A' for Active; 'I' for Inactive)
REMARK    1  A    between atoms: N2_10  and  C8_11 
REMARK    2  A    between atoms: C8_11  and  C9_12 
REMARK    3  A    between atoms: C11_14  and  O1_15 
REMARK    4  A    between atoms: C12_17  and  O2_18 
ROOT
HETATM    1  C1  UNL     1      16.598  70.064   8.693  1.00  0.00     0.310 C 
HETATM    2  N1  UNL     1      17.434  69.534   7.632  1.00  0.00     0.086 N 
HETATM    3  C2  UNL     1      18.722  69.209   8.181  1.00  0.00     0.282 C 
HETATM    4  C3  UNL     1      19.751  68.922   7.129  1.00  0.00     0.104 C 
HETATM    5  S1  UNL     1      19.254  69.611   5.509  1.00  0.00    -0.167 SA
HETATM    6  C4  UNL     1      19.453  68.320   4.257  1.00  0.00     0.074 C 
HETATM    7  C5  UNL     1      18.330  68.338   3.246  1.00  0.00     0.012 C 
HETATM    8  C6  UNL     1      16.992  68.660   3.878  1.00  0.00     0.031 C 
HETATM    9  C7  UNL     1      16.359  67.417   4.426  1.00  0.00     0.273 C 
HETATM   10  N2  UNL     1      15.316  67.647   5.370  1.00  0.00     0.096 N 
HETATM   11  C13 UNL     1      15.610  68.643   6.357  1.00  0.00     0.303 C 
HETATM   12  C14 UNL     1      16.818  68.293   7.186  1.00  0.00     0.302 C 
ENDROOT
BRANCH  10  13
HETATM   13  C8  UNL     1      14.972  66.426   6.039  1.00  0.00     0.337 C 
BRANCH  13  14
HETATM   14  C9  UNL     1      14.073  65.555   5.204  1.00  0.00     0.087 A 
HETATM   15  C10 UNL     1      12.732  65.330   5.432  1.00  0.00     0.076 A 
HETATM   16  C11 UNL     1      12.243  64.476   4.455  1.00  0.00     0.126 A 
HETATM   17  C12 UNL     1      13.352  64.219   3.656  1.00  0.00     0.217 A 
HETATM   18  O3  UNL     1      14.383  64.872   4.138  1.00  0.00    -0.288 OA
BRANCH  16  19
HETATM   19  O1  UNL     1      10.950  63.994   4.312  1.00  0.00    -0.356 OA
ATOM     20  H1  UNL     1      10.256  64.333   3.758  1.00  0.00     0.218 HD
ENDBRANCH  16  19
BRANCH  17  21
HETATM   21  O2  UNL     1      13.336  63.390   2.521  1.00  0.00    -0.339 OA
ATOM     22  H2  UNL     1      12.569  63.236   1.981  1.00  0.00     0.220 HD
ENDBRANCH  17  21
ENDBRANCH  13  14
ENDBRANCH  10  13
TORSDOF 4
ENDMDL
MODEL 3
REMARK VINA RESULT: -8.007760456      1.204      1.576
REMARK  4 active torsions:
REMARK  status: ('A' for Active; 'I' for Inactive)
REMARK    1  A    between atoms: N2_10  and  C8_11 
REMARK    2  A    between atoms: C8_11  and  C9_12 
REMARK    3  A    between atoms: C11_14  and  O1_15 
REMARK    4  A    between atoms: C12_17  and  O2_18 
ROOT
HETATM    1  C1  UNL     1      18.500  69.278   7.452  1.00  0.00     0.310 C 
HETATM    2  N1  UNL     1      18.746  69.123   6.031  1.00  0.00     0.086 N 
HETATM    3  C2  UNL     1      20.111  68.715   5.843  1.00  0.00     0.282 C 
HETATM    4  C3  UNL     1      20.555  68.799   4.413  1.00  0.00     0.104 C 
HETATM    5  S1  UNL     1      19.468  69.907   3.444  1.00  0.00    -0.167 SA
HETATM    6  C4  UNL     1      18.995  69.049   1.923  1.00  0.00     0.074 C 
HETATM    7  C5  UNL     1      17.552  69.307   1.558  1.00  0.00     0.012 C 
HETATM    8  C6  UNL     1      16.651  69.364   2.774  1.00  0.00     0.031 C 
HETATM    9  C7  UNL     1      16.212  67.986   3.167  1.00  0.00     0.273 C 
HETATM   10  N2  UNL     1      15.704  67.879   4.494  1.00  0.00     0.096 N 
HETATM   11  C13 UNL     1      16.481  68.556   5.490  1.00  0.00     0.303 C 
HETATM   12  C14 UNL     1      17.893  68.038   5.569  1.00  0.00     0.302 C 
ENDROOT
BRANCH  10  13
HETATM   13  C8  UNL     1      15.579  66.500   4.869  1.00  0.00     0.337 C 
BRANCH  13  14
HETATM   14  C9  UNL     1      14.216  66.184   5.422  1.00  0.00     0.087 A 
HETATM   15  C10 UNL     1      13.463  65.070   5.120  1.00  0.00     0.076 A 
HETATM   16  C11 UNL     1      12.268  65.126   5.821  1.00  0.00     0.126 A 
HETATM   17  C12 UNL     1      12.361  66.314   6.538  1.00  0.00     0.217 A 
HETATM   18  O3  UNL     1      13.512  66.883   6.267  1.00  0.00    -0.288 OA
BRANCH  16  19
HETATM   19  O1  UNL     1      11.225  64.210   5.807  1.00  0.00    -0.356 OA
ATOM     20  H1  UNL     1      10.470  64.193   5.231  1.00  0.00     0.218 HD
ENDBRANCH  16  19
BRANCH  17  21
HETATM   21  O2  UNL     1      11.366  66.797   7.404  1.00  0.00    -0.339 OA
ATOM     22  H2  UNL     1      10.621  67.317   7.127  1.00  0.00     0.220 HD
ENDBRANCH  17  21
ENDBRANCH  13  14
ENDBRANCH  10  13
TORSDOF 4
ENDMDL
MODEL 4
REMARK VINA RESULT: -7.945003964      1.234      1.672
REMARK  4 active torsions:
REMARK  status: ('A' for Active; 'I' for Inactive)
REMARK    1  A    between atoms: N2_10  and  C8_11 
REMARK    2  A    between atoms: C8_11  and  C9_12 
REMARK    3  A    between atoms: C11_14  and  O1_15 
REMARK    4  A    between atoms: C12_17  and  O2_18 
ROOT
HETATM    1  C1  UNL     1      16.649  70.258   8.634  1.00  0.00     0.310 C 
HETATM    2  N1  UNL     1      17.521  69.704   7.615  1.00  0.00     0.086 N 
HETATM    3  C2  UNL     1      18.795  69.410   8.211  1.00  0.00     0.282 C 
HETATM    4  C3  UNL     1      19.858  69.101   7.198  1.00  0.00     0.104 C 
HETATM    5  S1  UNL     1      19.402  69.735   5.544  1.00  0.00    -0.167 SA
HETATM    6  C4  UNL     1      19.650  68.407   4.340  1.00  0.00     0.074 C 
HETATM    7  C5  UNL     1      18.557  68.383   3.296  1.00  0.00     0.012 C 
HETATM    8  C6  UNL     1      17.198  68.710   3.878  1.00  0.00     0.031 C 
HETATM    9  C7  UNL     1      16.561  67.479   4.446  1.00  0.00     0.273 C 
HETATM   10  N2  UNL     1      15.488  67.726   5.351  1.00  0.00     0.096 N 
HETATM   11  C13 UNL     1      15.744  68.756   6.315  1.00  0.00     0.303 C 
HETATM   12  C14 UNL     1      16.930  68.444   7.190  1.00  0.00     0.302 C 
ENDROOT
BRANCH  10  13
HETATM   13  C8  UNL     1      15.137  66.523   6.048  1.00  0.00     0.337 C 
BRANCH  13  14
HETATM   14  C9  UNL     1      14.201  65.658   5.248  1.00  0.00     0.087 A 
HETATM   15  C10 UNL     1      14.545  64.903   4.147  1.00  0.00     0.076 A 
HETATM   16  C11 UNL     1      13.419  64.243   3.680  1.00  0.00     0.126 A 
HETATM   17  C12 UNL     1      12.414  64.645   4.553  1.00  0.00     0.217 A 
HETATM   18  O3  UNL     1      12.927  65.464   5.441  1.00  0.00    -0.288 OA
BRANCH  16  19
HETATM   19  O1  UNL     1      13.322  63.383   2.594  1.00  0.00    -0.356 OA
ATOM     20  H1  UNL     1      13.347  62.434   2.596  1.00  0.00     0.218 HD
ENDBRANCH  16  19
BRANCH  17  21
HETATM   21  O2  UNL     1      11.077  64.223   4.470  1.00  0.00    -0.339 OA
ATOM     22  H2  UNL     1      10.750  63.601   3.829  1.00  0.00     0.220 HD
ENDBRANCH  17  21
ENDBRANCH  13  14
ENDBRANCH  10  13
TORSDOF 4
ENDMDL
MODEL 5
REMARK VINA RESULT: -7.406976199      3.679      6.181
REMARK  4 active torsions:
REMARK  status: ('A' for Active; 'I' for Inactive)
REMARK    1  A    between atoms: N2_10  and  C8_11 
REMARK    2  A    between atoms: C8_11  and  C9_12 
REMARK    3  A    between atoms: C11_14  and  O1_15 
REMARK    4  A    between atoms: C12_17  and  O2_18 
ROOT
HETATM    1  C1  UNL     1      15.543  66.780   4.528  1.00  0.00     0.310 C 
HETATM    2  N1  UNL     1      16.396  67.748   3.866  1.00  0.00     0.086 N 
HETATM    3  C2  UNL     1      15.587  68.552   2.993  1.00  0.00     0.282 C 
HETATM    4  C3  UNL     1      16.398  69.392   2.051  1.00  0.00     0.104 C 
HETATM    5  S1  UNL     1      18.101  68.745   1.884  1.00  0.00    -0.167 SA
HETATM    6  C4  UNL     1      19.255  70.123   2.096  1.00  0.00     0.074 C 
HETATM    7  C5  UNL     1      20.475  69.717   2.889  1.00  0.00     0.012 C 
HETATM    8  C6  UNL     1      20.140  68.756   4.011  1.00  0.00     0.031 C 
HETATM    9  C7  UNL     1      19.706  69.507   5.232  1.00  0.00     0.273 C 
HETATM   10  N2  UNL     1      19.003  68.725   6.194  1.00  0.00     0.096 N 
HETATM   11  C13 UNL     1      17.999  67.862   5.645  1.00  0.00     0.303 C 
HETATM   12  C14 UNL     1      16.931  68.620   4.901  1.00  0.00     0.302 C 
ENDROOT
BRANCH  10  13
HETATM   13  C8  UNL     1      18.391  69.574   7.175  1.00  0.00     0.337 C 
BRANCH  13  14
HETATM   14  C9  UNL     1      18.618  69.076   8.576  1.00  0.00     0.087 A 
HETATM   15  C10 UNL     1      19.835  68.720   9.117  1.00  0.00     0.076 A 
HETATM   16  C11 UNL     1      19.647  68.312  10.428  1.00  0.00     0.126 A 
HETATM   17  C12 UNL     1      18.277  68.445  10.623  1.00  0.00     0.217 A 
HETATM   18  O3  UNL     1      17.733  68.893   9.515  1.00  0.00    -0.288 OA
BRANCH  16  19
HETATM   19  O1  UNL     1      20.605  67.872  11.332  1.00  0.00    -0.356 OA
ATOM     20  H1  UNL     1      20.582  67.095  11.877  1.00  0.00     0.218 HD
ENDBRANCH  16  19
BRANCH  17  21
HETATM   21  O2  UNL     1      17.614  68.143  11.824  1.00  0.00    -0.339 OA
ATOM     22  H2  UNL     1      17.107  68.769  12.328  1.00  0.00     0.220 HD
ENDBRANCH  17  21
ENDBRANCH  13  14
ENDBRANCH  10  13
TORSDOF 4
ENDMDL
