MODEL 1
REMARK VINA RESULT: -7.437654655      0.000      0.000
REMARK  4 active torsions:
REMARK  status: ('A' for Active; 'I' for Inactive)
REMARK    1  A    between atoms: C2_2  and  S1_3 
REMARK    2  A    between atoms: C7_9  and  O1_10 
REMARK    3  A    between atoms: N2_12  and  C8_13 
REMARK    4  A    between atoms: C14_19  and  O2_20 
ROOT
HETATM    1  S1  UNL     1      18.783  69.179   4.165  1.00  0.00    -0.131 SA
HETATM    2  C3  UNL     1      19.203  68.096   5.760  1.00  0.00     0.345 C 
HETATM    3  N1  UNL     1      18.698  69.195   6.583  1.00  0.00     0.119 N 
HETATM    4  C4  UNL     1      18.058  68.625   7.757  1.00  0.00     0.319 C 
HETATM    5  C5  UNL     1      16.889  67.932   7.135  1.00  0.00     0.035 A 
HETATM    6  C6  UNL     1      16.648  68.465   5.890  1.00  0.00     0.048 A 
HETATM    7  C7  UNL     1      15.578  67.798   5.371  1.00  0.00     0.154 A 
HETATM    8  N2  UNL     1      15.177  66.889   6.266  1.00  0.00    -0.303 N 
HETATM    9  C14 UNL     1      15.963  66.945   7.363  1.00  0.00     0.153 A 
HETATM   10  C15 UNL     1      17.637  69.512   5.659  1.00  0.00     0.320 C 
ENDROOT
BRANCH   8  11
HETATM   11  C8  UNL     1      14.059  65.973   6.088  1.00  0.00     0.094 C 
HETATM   12  C9  UNL     1      12.775  66.549   6.660  1.00  0.00     0.026 C 
HETATM   13  C10 UNL     1      11.599  65.792   6.093  1.00  0.00     0.002 C 
HETATM   14  C11 UNL     1      11.975  64.368   5.718  1.00  0.00     0.000 C 
HETATM   15  C12 UNL     1      12.980  64.385   4.587  1.00  0.00     0.002 C 
HETATM   16  C13 UNL     1      13.799  65.682   4.629  1.00  0.00     0.026 C 
ENDBRANCH   8  11
BRANCH   7  17
HETATM   17  O1  UNL     1      15.002  68.019   4.138  1.00  0.00    -0.345 OA
ATOM     18  H1  UNL     1      14.111  67.803   3.889  1.00  0.00     0.219 HD
ENDBRANCH   7  17
BRANCH   9  19
HETATM   19  O2  UNL     1      15.876  66.173   8.507  1.00  0.00    -0.345 OA
ATOM     20  H2  UNL     1      15.481  66.443   9.327  1.00  0.00     0.219 HD
ENDBRANCH   9  19
BRANCH   1  21
HETATM   21  C2  UNL     1      18.298  68.376   2.462  1.00  0.00     0.028 C 
HETATM   22  C1  UNL     1      17.589  69.050   1.577  1.00  0.00     0.018 C 
ENDBRANCH   1  21
TORSDOF 4
ENDMDL
MODEL 2
REMARK VINA RESULT: -7.250899612      3.337      5.729
REMARK  4 active torsions:
REMARK  status: ('A' for Active; 'I' for Inactive)
REMARK    1  A    between atoms: C2_2  and  S1_3 
REMARK    2  A    between atoms: C7_9  and  O1_10 
REMARK    3  A    between atoms: N2_12  and  C8_13 
REMARK    4  A    between atoms: C14_19  and  O2_20 
ROOT
HETATM    1  S1  UNL     1      19.208  69.414   1.591  1.00  0.00    -0.131 SA
HETATM    2  C3  UNL     1      17.549  70.141   2.373  1.00  0.00     0.345 C 
HETATM    3  N1  UNL     1      16.976  68.798   2.292  1.00  0.00     0.119 N 
HETATM    4  C4  UNL     1      16.094  68.612   3.432  1.00  0.00     0.319 C 
HETATM    5  C5  UNL     1      17.075  68.634   4.558  1.00  0.00     0.035 A 
HETATM    6  C6  UNL     1      18.335  68.362   4.076  1.00  0.00     0.048 A 
HETATM    7  C7  UNL     1      19.186  68.397   5.140  1.00  0.00     0.154 A 
HETATM    8  N2  UNL     1      18.473  68.679   6.236  1.00  0.00    -0.303 N 
HETATM    9  C14 UNL     1      17.171  68.831   5.913  1.00  0.00     0.153 A 
HETATM   10  C15 UNL     1      18.221  68.154   2.636  1.00  0.00     0.320 C 
ENDROOT
BRANCH   8  11
HETATM   11  C8  UNL     1      19.018  68.804   7.581  1.00  0.00     0.094 C 
HETATM   12  C9  UNL     1      19.447  67.455   8.133  1.00  0.00     0.026 C 
HETATM   13  C10 UNL     1      20.369  67.673   9.307  1.00  0.00     0.002 C 
HETATM   14  C11 UNL     1      20.089  68.994  10.005  1.00  0.00     0.000 C 
HETATM   15  C12 UNL     1      20.407  70.142   9.072  1.00  0.00     0.002 C 
HETATM   16  C13 UNL     1      20.235  69.699   7.613  1.00  0.00     0.026 C 
ENDBRANCH   8  11
BRANCH   7  17
HETATM   17  O1  UNL     1      20.547  68.178   5.101  1.00  0.00    -0.345 OA
ATOM     18  H1  UNL     1      20.987  67.357   5.288  1.00  0.00     0.219 HD
ENDBRANCH   7  17
BRANCH   9  19
HETATM   19  O2  UNL     1      16.118  69.127   6.759  1.00  0.00    -0.345 OA
ATOM     20  H2  UNL     1      16.185  69.606   7.576  1.00  0.00     0.219 HD
ENDBRANCH   9  19
BRANCH   1  21
HETATM   21  C2  UNL     1      20.958  70.162   1.988  1.00  0.00     0.028 C 
HETATM   22  C1  UNL     1      22.058  69.548   1.596  1.00  0.00     0.018 C 
ENDBRANCH   1  21
TORSDOF 4
ENDMDL
MODEL 3
REMARK VINA RESULT: -7.207829480      3.473      5.444
REMARK  4 active torsions:
REMARK  status: ('A' for Active; 'I' for Inactive)
REMARK    1  A    between atoms: C2_2  and  S1_3 
REMARK    2  A    between atoms: C7_9  and  O1_10 
REMARK    3  A    between atoms: N2_12  and  C8_13 
REMARK    4  A    between atoms: C14_19  and  O2_20 
ROOT
HETATM    1  S1  UNL     1      19.497  69.604   1.538  1.00  0.00    -0.131 SA
HETATM    2  C3  UNL     1      17.908  70.375   2.418  1.00  0.00     0.345 C 
HETATM    3  N1  UNL     1      17.207  69.119   2.152  1.00  0.00     0.119 N 
HETATM    4  C4  UNL     1      16.299  68.864   3.258  1.00  0.00     0.319 C 
HETATM    5  C5  UNL     1      17.265  68.633   4.373  1.00  0.00     0.035 A 
HETATM    6  C6  UNL     1      18.497  68.308   3.854  1.00  0.00     0.048 A 
HETATM    7  C7  UNL     1      19.335  68.110   4.910  1.00  0.00     0.154 A 
HETATM    8  N2  UNL     1      18.642  68.305   6.037  1.00  0.00    -0.303 N 
HETATM    9  C14 UNL     1      17.365  68.628   5.741  1.00  0.00     0.153 A 
HETATM   10  C15 UNL     1      18.379  68.314   2.400  1.00  0.00     0.320 C 
ENDROOT
BRANCH   8  11
HETATM   11  C8  UNL     1      19.181  68.188   7.384  1.00  0.00     0.094 C 
HETATM   12  C9  UNL     1      19.470  69.552   7.987  1.00  0.00     0.026 C 
HETATM   13  C10 UNL     1      19.612  69.412   9.482  1.00  0.00     0.002 C 
HETATM   14  C11 UNL     1      20.096  68.025   9.873  1.00  0.00     0.000 C 
HETATM   15  C12 UNL     1      19.050  66.995   9.507  1.00  0.00     0.002 C 
HETATM   16  C13 UNL     1      18.218  67.490   8.317  1.00  0.00     0.026 C 
ENDBRANCH   8  11
BRANCH   7  17
HETATM   17  O1  UNL     1      20.669  67.765   4.837  1.00  0.00    -0.345 OA
ATOM     18  H1  UNL     1      21.083  67.281   4.132  1.00  0.00     0.219 HD
ENDBRANCH   7  17
BRANCH   9  19
HETATM   19  O2  UNL     1      16.337  68.906   6.623  1.00  0.00    -0.345 OA
ATOM     20  H2  UNL     1      15.747  69.649   6.569  1.00  0.00     0.219 HD
ENDBRANCH   9  19
BRANCH   1  21
HETATM   21  C2  UNL     1      21.307  70.114   2.031  1.00  0.00     0.028 C 
HETATM   22  C1  UNL     1      22.310  69.935   1.192  1.00  0.00     0.018 C 
ENDBRANCH   1  21
TORSDOF 4
ENDMDL
MODEL 4
REMARK VINA RESULT: -7.167537867      2.008      3.917
REMARK  4 active torsions:
REMARK  status: ('A' for Active; 'I' for Inactive)
REMARK    1  A    between atoms: C2_2  and  S1_3 
REMARK    2  A    between atoms: C7_9  and  O1_10 
REMARK    3  A    between atoms: N2_12  and  C8_13 
REMARK    4  A    between atoms: C14_19  and  O2_20 
ROOT
HETATM    1  S1  UNL     1      20.246  70.184   4.435  1.00  0.00    -0.131 SA
HETATM    2  C3  UNL     1      18.910  70.792   3.116  1.00  0.00     0.345 C 
HETATM    3  N1  UNL     1      19.305  69.668   2.266  1.00  0.00     0.119 N 
HETATM    4  C4  UNL     1      18.125  69.196   1.561  1.00  0.00     0.319 C 
HETATM    5  C5  UNL     1      17.311  68.662   2.694  1.00  0.00     0.035 A 
HETATM    6  C6  UNL     1      18.129  68.416   3.773  1.00  0.00     0.048 A 
HETATM    7  C7  UNL     1      17.338  67.934   4.772  1.00  0.00     0.154 A 
HETATM    8  N2  UNL     1      16.080  67.885   4.323  1.00  0.00    -0.303 N 
HETATM    9  C14 UNL     1      16.029  68.325   3.047  1.00  0.00     0.153 A 
HETATM   10  C15 UNL     1      19.489  68.776   3.385  1.00  0.00     0.320 C 
ENDROOT
BRANCH   8  11
HETATM   11  C8  UNL     1      14.932  67.424   5.092  1.00  0.00     0.094 C 
HETATM   12  C9  UNL     1      14.421  66.089   4.578  1.00  0.00     0.026 C 
HETATM   13  C10 UNL     1      13.541  65.459   5.630  1.00  0.00     0.002 C 
HETATM   14  C11 UNL     1      12.885  66.507   6.514  1.00  0.00     0.000 C 
HETATM   15  C12 UNL     1      13.942  67.239   7.311  1.00  0.00     0.002 C 
HETATM   16  C13 UNL     1      15.274  67.232   6.551  1.00  0.00     0.026 C 
ENDBRANCH   8  11
BRANCH   7  17
HETATM   17  O1  UNL     1      17.757  67.558   6.031  1.00  0.00    -0.345 OA
ATOM     18  H1  UNL     1      18.534  67.052   6.234  1.00  0.00     0.219 HD
ENDBRANCH   7  17
BRANCH   9  19
HETATM   19  O2  UNL     1      14.917  68.429   2.232  1.00  0.00    -0.345 OA
ATOM     20  H2  UNL     1      14.931  68.514   1.286  1.00  0.00     0.219 HD
ENDBRANCH   9  19
BRANCH   1  21
HETATM   21  C2  UNL     1      20.029  70.480   6.344  1.00  0.00     0.028 C 
HETATM   22  C1  UNL     1      20.453  69.585   7.217  1.00  0.00     0.018 C 
ENDBRANCH   1  21
TORSDOF 4
ENDMDL
MODEL 5
REMARK VINA RESULT: -7.164732698      1.546      1.870
REMARK  4 active torsions:
REMARK  status: ('A' for Active; 'I' for Inactive)
REMARK    1  A    between atoms: C2_2  and  S1_3 
REMARK    2  A    between atoms: C7_9  and  O1_10 
REMARK    3  A    between atoms: N2_12  and  C8_13 
REMARK    4  A    between atoms: C14_19  and  O2_20 
ROOT
HETATM    1  S1  UNL     1      20.456  69.909   5.550  1.00  0.00    -0.131 SA
HETATM    2  C3  UNL     1      20.631  68.647   7.057  1.00  0.00     0.345 C 
HETATM    3  N1  UNL     1      20.058  69.675   7.925  1.00  0.00     0.119 N 
HETATM    4  C4  UNL     1      19.252  69.015   8.939  1.00  0.00     0.319 C 
HETATM    5  C5  UNL     1      18.154  68.444   8.103  1.00  0.00     0.035 A 
HETATM    6  C6  UNL     1      18.093  69.115   6.903  1.00  0.00     0.048 A 
HETATM    7  C7  UNL     1      17.080  68.555   6.184  1.00  0.00     0.154 A 
HETATM    8  N2  UNL     1      16.538  67.576   6.916  1.00  0.00    -0.303 N 
HETATM    9  C14 UNL     1      17.175  67.482   8.103  1.00  0.00     0.153 A 
HETATM   10  C15 UNL     1      19.136  70.135   6.915  1.00  0.00     0.320 C 
ENDROOT
BRANCH   8  11
HETATM   11  C8  UNL     1      15.425  66.735   6.499  1.00  0.00     0.094 C 
HETATM   12  C9  UNL     1      14.129  67.158   7.170  1.00  0.00     0.026 C 
HETATM   13  C10 UNL     1      12.965  66.567   6.414  1.00  0.00     0.002 C 
HETATM   14  C11 UNL     1      13.350  65.276   5.710  1.00  0.00     0.000 C 
HETATM   15  C12 UNL     1      14.376  65.565   4.636  1.00  0.00     0.002 C 
HETATM   16  C13 UNL     1      15.192  66.809   5.008  1.00  0.00     0.026 C 
ENDBRANCH   8  11
BRANCH   7  17
HETATM   17  O1  UNL     1      16.677  68.930   4.919  1.00  0.00    -0.345 OA
ATOM     18  H1  UNL     1      17.142  68.754   4.109  1.00  0.00     0.219 HD
ENDBRANCH   7  17
BRANCH   9  19
HETATM   19  O2  UNL     1      16.916  66.599   9.135  1.00  0.00    -0.345 OA
ATOM     20  H2  UNL     1      16.088  66.162   9.293  1.00  0.00     0.219 HD
ENDBRANCH   9  19
BRANCH   1  21
HETATM   21  C2  UNL     1      20.172  69.311   3.722  1.00  0.00     0.028 C 
HETATM   22  C1  UNL     1      19.363  69.970   2.915  1.00  0.00     0.018 C 
ENDBRANCH   1  21
TORSDOF 4
ENDMDL
