MODEL 1
REMARK VINA RESULT: -8.368030925      0.000      0.000
REMARK  13 active torsions:
REMARK  status: ('A' for Active; 'I' for Inactive)
REMARK    1  A    between atoms: C3_3  and  C4_4 
REMARK    2  A    between atoms: C6_6  and  N1_7 
REMARK    3  A    between atoms: C7_11  and  O1_12 
REMARK    4  A    between atoms: O1_12  and  C8_13 
REMARK    5  A    between atoms: C10_16  and  O3_17 
REMARK    6  A    between atoms: C11_19  and  C12_20 
REMARK    7  A    between atoms: C12_20  and  O4_21 
REMARK    8  A    between atoms: C12_20  and  O5_23 
REMARK    9  A    between atoms: O5_23  and  C14_24 
REMARK   10  A    between atoms: C19_29  and  O6_30 
REMARK   11  A    between atoms: C20_32  and  O7_33 
REMARK   12  A    between atoms: C21_35  and  O8_36 
REMARK   13  A    between atoms: C22_38  and  O9_39 
ROOT
HETATM    1  C8  UNL     1      24.272  10.499  27.891  1.00  0.00     0.291 C 
HETATM    2  O2  UNL     1      23.914  11.364  28.915  1.00  0.00    -0.356 OA
HETATM    3  C9  UNL     1      24.539  12.587  28.864  1.00  0.00     0.203 C 
HETATM    4  C10 UNL     1      25.808  12.715  29.629  1.00  0.00     0.153 C 
HETATM    5  C11 UNL     1      26.972  12.126  28.918  1.00  0.00     0.103 C 
HETATM    6  C19 UNL     1      26.640  11.189  27.822  1.00  0.00     0.163 C 
HETATM    7  C20 UNL     1      25.699  10.065  28.142  1.00  0.00     0.202 C 
ENDROOT
BRANCH   1   8
HETATM    8  O1  UNL     1      23.992  10.883  26.634  1.00  0.00    -0.349 OA
BRANCH   8   9
HETATM    9  C7  UNL     1      23.247  10.095  25.838  1.00  0.00     0.186 C 
HETATM   10  C6  UNL     1      22.768  10.902  24.649  1.00  0.00     0.215 C 
HETATM   11  C5  UNL     1      23.789  10.956  23.546  1.00  0.00     0.046 C 
HETATM   12  C4  UNL     1      25.170  10.613  23.994  1.00  0.00     0.041 C 
HETATM   13  C22 UNL     1      25.162   9.184  24.493  1.00  0.00     0.157 C 
HETATM   14  C21 UNL     1      23.944   8.858  25.320  1.00  0.00     0.178 C 
BRANCH  10  15
HETATM   15  N1  UNL     1      22.432  12.251  25.048  1.00  0.00    -0.072 N 
ATOM     16  H13 UNL     1      21.779  12.695  24.402  1.00  0.00     0.274 HD
ATOM     17  H12 UNL     1      21.846  12.274  25.883  1.00  0.00     0.274 HD
ATOM     18  H11 UNL     1      23.291  12.789  25.161  1.00  0.00     0.274 HD
ENDBRANCH  10  15
BRANCH  12  19
HETATM   19  C3  UNL     1      26.071  10.628  22.796  1.00  0.00    -0.024 C 
HETATM   20  C2  UNL     1      27.347  10.977  22.863  1.00  0.00    -0.034 C 
HETATM   21  C1  UNL     1      28.180  10.970  21.642  1.00  0.00     0.036 C 
ENDBRANCH  12  19
BRANCH  13  22
HETATM   22  O9  UNL     1      25.225   8.358  23.371  1.00  0.00    -0.392 OA
ATOM     23  H9  UNL     1      25.134   8.915  22.607  1.00  0.00     0.210 HD
ENDBRANCH  13  22
BRANCH  14  24
HETATM   24  O8  UNL     1      23.030   8.222  24.464  1.00  0.00    -0.390 OA
ATOM     25  H8  UNL     1      23.393   7.364  24.278  1.00  0.00     0.210 HD
ENDBRANCH  14  24
ENDBRANCH   8   9
ENDBRANCH   1   8
BRANCH   7  26
HETATM   26  O7  UNL     1      25.809   9.583  29.454  1.00  0.00    -0.388 OA
ATOM     27  H7  UNL     1      24.965   9.251  29.736  1.00  0.00     0.210 HD
ENDBRANCH   7  26
BRANCH   6  28
HETATM   28  O6  UNL     1      27.756  10.721  27.129  1.00  0.00    -0.392 OA
ATOM     29  H6  UNL     1      28.552  11.204  27.318  1.00  0.00     0.210 HD
ENDBRANCH   6  28
BRANCH   4  30
HETATM   30  O3  UNL     1      25.979  14.119  29.790  1.00  0.00    -0.393 OA
ATOM     31  H3  UNL     1      25.119  14.481  29.612  1.00  0.00     0.210 HD
ENDBRANCH   4  30
BRANCH   5  32
HETATM   32  C12 UNL     1      28.059  11.656  29.867  1.00  0.00     0.268 C 
BRANCH  32  33
HETATM   33  O4  UNL     1      27.758  10.429  30.456  1.00  0.00    -0.366 OA
HETATM   34  C13 UNL     1      27.702  10.415  31.819  1.00  0.00     0.204 C 
ENDBRANCH  32  33
BRANCH  32  35
HETATM   35  O5  UNL     1      29.266  11.450  29.224  1.00  0.00    -0.355 OA
BRANCH  35  36
HETATM   36  C14 UNL     1      30.392  11.865  29.838  1.00  0.00     0.124 C 
HETATM   37  C15 UNL     1      30.118  13.202  30.530  1.00  0.00     0.032 C 
HETATM   38  C16 UNL     1      30.361  12.971  32.000  1.00  0.00     0.002 C 
HETATM   39  C17 UNL     1      31.135  11.698  32.140  1.00  0.00     0.002 C 
HETATM   40  C18 UNL     1      31.112  11.015  30.785  1.00  0.00     0.032 C 
ENDBRANCH  35  36
ENDBRANCH  32  35
ENDBRANCH   5  32
TORSDOF 13
ENDMDL
MODEL 2
REMARK VINA RESULT: -8.208445125      1.474      1.966
REMARK  13 active torsions:
REMARK  status: ('A' for Active; 'I' for Inactive)
REMARK    1  A    between atoms: C3_3  and  C4_4 
REMARK    2  A    between atoms: C6_6  and  N1_7 
REMARK    3  A    between atoms: C7_11  and  O1_12 
REMARK    4  A    between atoms: O1_12  and  C8_13 
REMARK    5  A    between atoms: C10_16  and  O3_17 
REMARK    6  A    between atoms: C11_19  and  C12_20 
REMARK    7  A    between atoms: C12_20  and  O4_21 
REMARK    8  A    between atoms: C12_20  and  O5_23 
REMARK    9  A    between atoms: O5_23  and  C14_24 
REMARK   10  A    between atoms: C19_29  and  O6_30 
REMARK   11  A    between atoms: C20_32  and  O7_33 
REMARK   12  A    between atoms: C21_35  and  O8_36 
REMARK   13  A    between atoms: C22_38  and  O9_39 
ROOT
HETATM    1  C8  UNL     1      22.791  10.410  26.385  1.00  0.00     0.291 C 
HETATM    2  O2  UNL     1      22.169  11.276  27.274  1.00  0.00    -0.356 OA
HETATM    3  C9  UNL     1      22.899  12.404  27.564  1.00  0.00     0.203 C 
HETATM    4  C10 UNL     1      23.788  12.330  28.753  1.00  0.00     0.153 C 
HETATM    5  C11 UNL     1      25.063  11.618  28.477  1.00  0.00     0.103 C 
HETATM    6  C19 UNL     1      25.069  10.778  27.259  1.00  0.00     0.163 C 
HETATM    7  C20 UNL     1      23.960   9.779  27.109  1.00  0.00     0.202 C 
ENDROOT
BRANCH   1   8
HETATM    8  O1  UNL     1      23.053  10.877  25.152  1.00  0.00    -0.349 OA
BRANCH   8   9
HETATM    9  C7  UNL     1      22.472  10.310  24.079  1.00  0.00     0.186 C 
HETATM   10  C6  UNL     1      22.679  11.205  22.873  1.00  0.00     0.215 C 
HETATM   11  C5  UNL     1      24.008  10.970  22.208  1.00  0.00     0.046 C 
HETATM   12  C4  UNL     1      24.996  10.272  23.081  1.00  0.00     0.041 C 
HETATM   13  C22 UNL     1      24.444   8.904  23.418  1.00  0.00     0.157 C 
HETATM   14  C21 UNL     1      22.969   8.926  23.732  1.00  0.00     0.178 C 
BRANCH  10  15
HETATM   15  N1  UNL     1      22.576  12.599  23.245  1.00  0.00    -0.072 N 
ATOM     16  H13 UNL     1      23.308  12.881  23.896  1.00  0.00     0.274 HD
ATOM     17  H12 UNL     1      22.818  13.224  22.476  1.00  0.00     0.274 HD
ATOM     18  H11 UNL     1      21.641  12.777  23.612  1.00  0.00     0.274 HD
ENDBRANCH  10  15
BRANCH  12  19
HETATM   19  C3  UNL     1      26.241  10.031  22.282  1.00  0.00    -0.024 C 
HETATM   20  C2  UNL     1      27.263  10.876  22.275  1.00  0.00    -0.034 C 
HETATM   21  C1  UNL     1      28.461  10.576  21.463  1.00  0.00     0.036 C 
ENDBRANCH  12  19
BRANCH  13  22
HETATM   22  O9  UNL     1      24.696   8.079  22.322  1.00  0.00    -0.392 OA
ATOM     23  H9  UNL     1      23.866   7.933  21.884  1.00  0.00     0.210 HD
ENDBRANCH  13  22
BRANCH  14  24
HETATM   24  O8  UNL     1      22.298   8.551  22.557  1.00  0.00    -0.390 OA
ATOM     25  H8  UNL     1      22.935   8.092  22.022  1.00  0.00     0.210 HD
ENDBRANCH  14  24
ENDBRANCH   8   9
ENDBRANCH   1   8
BRANCH   7  26
HETATM   26  O7  UNL     1      23.511   9.236  28.320  1.00  0.00    -0.388 OA
ATOM     27  H7  UNL     1      23.986   9.640  29.037  1.00  0.00     0.210 HD
ENDBRANCH   7  26
BRANCH   6  28
HETATM   28  O6  UNL     1      26.306  10.191  26.991  1.00  0.00    -0.392 OA
ATOM     29  H6  UNL     1      26.258   9.256  26.831  1.00  0.00     0.210 HD
ENDBRANCH   6  28
BRANCH   4  30
HETATM   30  O3  UNL     1      24.039  13.692  29.087  1.00  0.00    -0.393 OA
ATOM     31  H3  UNL     1      24.944  13.697  29.379  1.00  0.00     0.210 HD
ENDBRANCH   4  30
BRANCH   5  32
HETATM   32  C12 UNL     1      25.650  10.969  29.717  1.00  0.00     0.268 C 
BRANCH  32  33
HETATM   33  O4  UNL     1      26.214   9.723  29.449  1.00  0.00    -0.366 OA
HETATM   34  C13 UNL     1      25.793   8.692  30.237  1.00  0.00     0.204 C 
ENDBRANCH  32  33
BRANCH  32  35
HETATM   35  O5  UNL     1      26.682  11.712  30.260  1.00  0.00    -0.355 OA
BRANCH  35  36
HETATM   36  C14 UNL     1      27.877  11.112  30.429  1.00  0.00     0.124 C 
HETATM   37  C15 UNL     1      28.941  11.895  29.659  1.00  0.00     0.032 C 
HETATM   38  C16 UNL     1      29.938  12.369  30.686  1.00  0.00     0.002 C 
HETATM   39  C17 UNL     1      29.722  11.573  31.935  1.00  0.00     0.002 C 
HETATM   40  C18 UNL     1      28.413  10.823  31.758  1.00  0.00     0.032 C 
ENDBRANCH  35  36
ENDBRANCH  32  35
ENDBRANCH   5  32
TORSDOF 13
ENDMDL
MODEL 3
REMARK VINA RESULT: -8.118198547      3.287      8.689
REMARK  13 active torsions:
REMARK  status: ('A' for Active; 'I' for Inactive)
REMARK    1  A    between atoms: C3_3  and  C4_4 
REMARK    2  A    between atoms: C6_6  and  N1_7 
REMARK    3  A    between atoms: C7_11  and  O1_12 
REMARK    4  A    between atoms: O1_12  and  C8_13 
REMARK    5  A    between atoms: C10_16  and  O3_17 
REMARK    6  A    between atoms: C11_19  and  C12_20 
REMARK    7  A    between atoms: C12_20  and  O4_21 
REMARK    8  A    between atoms: C12_20  and  O5_23 
REMARK    9  A    between atoms: O5_23  and  C14_24 
REMARK   10  A    between atoms: C19_29  and  O6_30 
REMARK   11  A    between atoms: C20_32  and  O7_33 
REMARK   12  A    between atoms: C21_35  and  O8_36 
REMARK   13  A    between atoms: C22_38  and  O9_39 
ROOT
HETATM    1  C8  UNL     1      24.236   9.476  25.472  1.00  0.00     0.291 C 
HETATM    2  O2  UNL     1      25.260   9.205  24.576  1.00  0.00    -0.356 OA
HETATM    3  C9  UNL     1      25.759  10.316  23.938  1.00  0.00     0.203 C 
HETATM    4  C10 UNL     1      25.138  10.664  22.633  1.00  0.00     0.153 C 
HETATM    5  C11 UNL     1      23.841  11.373  22.782  1.00  0.00     0.103 C 
HETATM    6  C19 UNL     1      23.202  11.256  24.111  1.00  0.00     0.163 C 
HETATM    7  C20 UNL     1      23.020   9.873  24.665  1.00  0.00     0.202 C 
ENDROOT
BRANCH   1   8
HETATM    8  O1  UNL     1      24.526  10.270  26.518  1.00  0.00    -0.349 OA
BRANCH   8   9
HETATM    9  C7  UNL     1      24.409   9.802  27.773  1.00  0.00     0.186 C 
HETATM   10  C6  UNL     1      25.563  10.321  28.606  1.00  0.00     0.215 C 
HETATM   11  C5  UNL     1      25.298  11.697  29.154  1.00  0.00     0.046 C 
HETATM   12  C4  UNL     1      24.213  12.426  28.436  1.00  0.00     0.041 C 
HETATM   13  C22 UNL     1      22.927  11.648  28.610  1.00  0.00     0.157 C 
HETATM   14  C21 UNL     1      23.119  10.158  28.476  1.00  0.00     0.178 C 
BRANCH  10  15
HETATM   15  N1  UNL     1      26.783  10.348  27.831  1.00  0.00    -0.072 N 
ATOM     16  H13 UNL     1      27.215  11.271  27.818  1.00  0.00     0.274 HD
ATOM     17  H12 UNL     1      27.543   9.841  28.286  1.00  0.00     0.274 HD
ATOM     18  H11 UNL     1      26.589   9.997  26.893  1.00  0.00     0.274 HD
ENDBRANCH  10  15
BRANCH  12  19
HETATM   19  C3  UNL     1      23.997  13.741  29.122  1.00  0.00    -0.024 C 
HETATM   20  C2  UNL     1      24.989  14.453  29.637  1.00  0.00    -0.034 C 
HETATM   21  C1  UNL     1      24.705  15.743  30.301  1.00  0.00     0.036 C 
ENDBRANCH  12  19
BRANCH  13  22
HETATM   22  O9  UNL     1      22.425  11.962  29.873  1.00  0.00    -0.392 OA
ATOM     23  H9  UNL     1      22.392  11.153  30.371  1.00  0.00     0.210 HD
ENDBRANCH  13  22
BRANCH  14  24
HETATM   24  O8  UNL     1      23.227   9.644  29.779  1.00  0.00    -0.390 OA
ATOM     25  H8  UNL     1      23.119  10.383  30.366  1.00  0.00     0.210 HD
ENDBRANCH  14  24
ENDBRANCH   8   9
ENDBRANCH   1   8
BRANCH   7  26
HETATM   26  O7  UNL     1      22.775   8.895  23.692  1.00  0.00    -0.388 OA
ATOM     27  H7  UNL     1      21.915   9.039  23.315  1.00  0.00     0.210 HD
ENDBRANCH   7  26
BRANCH   6  28
HETATM   28  O6  UNL     1      22.029  12.000  24.235  1.00  0.00    -0.392 OA
ATOM     29  H6  UNL     1      21.387  11.605  24.815  1.00  0.00     0.210 HD
ENDBRANCH   6  28
BRANCH   4  30
HETATM   30  O3  UNL     1      26.098  11.507  22.003  1.00  0.00    -0.393 OA
ATOM     31  H3  UNL     1      25.945  11.382  21.074  1.00  0.00     0.210 HD
ENDBRANCH   4  30
BRANCH   5  32
HETATM   32  C12 UNL     1      22.918  11.157  21.596  1.00  0.00     0.268 C 
BRANCH  32  33
HETATM   33  O4  UNL     1      22.056  12.233  21.391  1.00  0.00    -0.366 OA
HETATM   34  C13 UNL     1      20.780  11.919  21.026  1.00  0.00     0.204 C 
ENDBRANCH  32  33
BRANCH  32  35
HETATM   35  O5  UNL     1      23.611  11.029  20.407  1.00  0.00    -0.355 OA
BRANCH  35  36
HETATM   36  C14 UNL     1      23.476   9.881  19.714  1.00  0.00     0.124 C 
HETATM   37  C15 UNL     1      22.708   8.871  20.568  1.00  0.00     0.032 C 
HETATM   38  C16 UNL     1      21.453   8.541  19.800  1.00  0.00     0.002 C 
HETATM   39  C17 UNL     1      21.648   8.997  18.387  1.00  0.00     0.002 C 
HETATM   40  C18 UNL     1      22.900   9.855  18.370  1.00  0.00     0.032 C 
ENDBRANCH  35  36
ENDBRANCH  32  35
ENDBRANCH   5  32
TORSDOF 13
ENDMDL
MODEL 4
REMARK VINA RESULT: -8.098945241      3.445      8.987
REMARK  13 active torsions:
REMARK  status: ('A' for Active; 'I' for Inactive)
REMARK    1  A    between atoms: C3_3  and  C4_4 
REMARK    2  A    between atoms: C6_6  and  N1_7 
REMARK    3  A    between atoms: C7_11  and  O1_12 
REMARK    4  A    between atoms: O1_12  and  C8_13 
REMARK    5  A    between atoms: C10_16  and  O3_17 
REMARK    6  A    between atoms: C11_19  and  C12_20 
REMARK    7  A    between atoms: C12_20  and  O4_21 
REMARK    8  A    between atoms: C12_20  and  O5_23 
REMARK    9  A    between atoms: O5_23  and  C14_24 
REMARK   10  A    between atoms: C19_29  and  O6_30 
REMARK   11  A    between atoms: C20_32  and  O7_33 
REMARK   12  A    between atoms: C21_35  and  O8_36 
REMARK   13  A    between atoms: C22_38  and  O9_39 
ROOT
HETATM    1  C8  UNL     1      23.641   9.419  24.263  1.00  0.00     0.291 C 
HETATM    2  O2  UNL     1      24.488   9.610  23.180  1.00  0.00    -0.356 OA
HETATM    3  C9  UNL     1      24.678  10.928  22.838  1.00  0.00     0.203 C 
HETATM    4  C10 UNL     1      23.759  11.484  21.811  1.00  0.00     0.153 C 
HETATM    5  C11 UNL     1      22.430  11.853  22.364  1.00  0.00     0.103 C 
HETATM    6  C19 UNL     1      22.102  11.257  23.678  1.00  0.00     0.163 C 
HETATM    7  C20 UNL     1      22.241   9.769  23.810  1.00  0.00     0.202 C 
ENDROOT
BRANCH   1   8
HETATM    8  O1  UNL     1      24.020   9.943  25.441  1.00  0.00    -0.349 OA
BRANCH   8   9
HETATM    9  C7  UNL     1      23.464   9.505  26.584  1.00  0.00     0.186 C 
HETATM   10  C6  UNL     1      24.487   8.696  27.356  1.00  0.00     0.215 C 
HETATM   11  C5  UNL     1      25.388   9.563  28.192  1.00  0.00     0.046 C 
HETATM   12  C4  UNL     1      25.398  10.994  27.771  1.00  0.00     0.041 C 
HETATM   13  C22 UNL     1      24.000  11.546  27.944  1.00  0.00     0.157 C 
HETATM   14  C21 UNL     1      22.928  10.584  27.496  1.00  0.00     0.178 C 
BRANCH  10  15
HETATM   15  N1  UNL     1      25.296   7.902  26.457  1.00  0.00    -0.072 N 
ATOM     16  H13 UNL     1      26.164   8.371  26.201  1.00  0.00     0.274 HD
ATOM     17  H12 UNL     1      25.703   7.088  26.918  1.00  0.00     0.274 HD
ATOM     18  H11 UNL     1      24.737   7.648  25.643  1.00  0.00     0.274 HD
ENDBRANCH  10  15
BRANCH  12  19
HETATM   19  C3  UNL     1      26.266  11.758  28.723  1.00  0.00    -0.024 C 
HETATM   20  C2  UNL     1      27.524  11.424  28.973  1.00  0.00    -0.034 C 
HETATM   21  C1  UNL     1      28.325  12.222  29.926  1.00  0.00     0.036 C 
ENDBRANCH  12  19
BRANCH  13  22
HETATM   22  O9  UNL     1      23.845  11.853  29.296  1.00  0.00    -0.392 OA
ATOM     23  H9  UNL     1      24.050  12.776  29.398  1.00  0.00     0.210 HD
ENDBRANCH  13  22
BRANCH  14  24
HETATM   24  O8  UNL     1      22.464   9.929  28.648  1.00  0.00    -0.390 OA
ATOM     25  H8  UNL     1      21.608  10.298  28.837  1.00  0.00     0.210 HD
ENDBRANCH  14  24
ENDBRANCH   8   9
ENDBRANCH   1   8
BRANCH   7  26
HETATM   26  O7  UNL     1      21.947   9.061  22.636  1.00  0.00    -0.388 OA
ATOM     27  H7  UNL     1      21.084   8.672  22.715  1.00  0.00     0.210 HD
ENDBRANCH   7  26
BRANCH   6  28
HETATM   28  O6  UNL     1      20.883  11.690  24.200  1.00  0.00    -0.392 OA
ATOM     29  H6  UNL     1      20.341  10.986  24.537  1.00  0.00     0.210 HD
ENDBRANCH   6  28
BRANCH   4  30
HETATM   30  O3  UNL     1      24.436  12.639  21.325  1.00  0.00    -0.393 OA
ATOM     31  H3  UNL     1      23.740  13.264  21.156  1.00  0.00     0.210 HD
ENDBRANCH   4  30
BRANCH   5  32
HETATM   32  C12 UNL     1      21.325  11.785  21.326  1.00  0.00     0.268 C 
BRANCH  32  33
HETATM   33  O4  UNL     1      20.249  12.613  21.640  1.00  0.00    -0.366 OA
HETATM   34  C13 UNL     1      20.497  13.954  21.623  1.00  0.00     0.204 C 
ENDBRANCH  32  33
BRANCH  32  35
HETATM   35  O5  UNL     1      21.747  12.214  20.081  1.00  0.00    -0.355 OA
BRANCH  35  36
HETATM   36  C14 UNL     1      21.491  11.426  19.017  1.00  0.00     0.124 C 
HETATM   37  C15 UNL     1      22.026  12.104  17.755  1.00  0.00     0.032 C 
HETATM   38  C16 UNL     1      23.062  11.169  17.183  1.00  0.00     0.002 C 
HETATM   39  C17 UNL     1      22.867   9.828  17.819  1.00  0.00     0.002 C 
HETATM   40  C18 UNL     1      21.907  10.025  18.979  1.00  0.00     0.032 C 
ENDBRANCH  35  36
ENDBRANCH  32  35
ENDBRANCH   5  32
TORSDOF 13
ENDMDL
MODEL 5
REMARK VINA RESULT: -7.883683292      2.955      8.476
REMARK  13 active torsions:
REMARK  status: ('A' for Active; 'I' for Inactive)
REMARK    1  A    between atoms: C3_3  and  C4_4 
REMARK    2  A    between atoms: C6_6  and  N1_7 
REMARK    3  A    between atoms: C7_11  and  O1_12 
REMARK    4  A    between atoms: O1_12  and  C8_13 
REMARK    5  A    between atoms: C10_16  and  O3_17 
REMARK    6  A    between atoms: C11_19  and  C12_20 
REMARK    7  A    between atoms: C12_20  and  O4_21 
REMARK    8  A    between atoms: C12_20  and  O5_23 
REMARK    9  A    between atoms: O5_23  and  C14_24 
REMARK   10  A    between atoms: C19_29  and  O6_30 
REMARK   11  A    between atoms: C20_32  and  O7_33 
REMARK   12  A    between atoms: C21_35  and  O8_36 
REMARK   13  A    between atoms: C22_38  and  O9_39 
ROOT
HETATM    1  C8  UNL     1      24.556   9.475  25.397  1.00  0.00     0.291 C 
HETATM    2  O2  UNL     1      25.066   9.264  24.124  1.00  0.00    -0.356 OA
HETATM    3  C9  UNL     1      25.329  10.417  23.425  1.00  0.00     0.203 C 
HETATM    4  C10 UNL     1      24.236  10.930  22.557  1.00  0.00     0.153 C 
HETATM    5  C11 UNL     1      23.194  11.667  23.316  1.00  0.00     0.103 C 
HETATM    6  C19 UNL     1      23.186  11.431  24.777  1.00  0.00     0.163 C 
HETATM    7  C20 UNL     1      23.148  10.005  25.240  1.00  0.00     0.202 C 
ENDROOT
BRANCH   1   8
HETATM    8  O1  UNL     1      25.334  10.139  26.270  1.00  0.00    -0.349 OA
BRANCH   8   9
HETATM    9  C7  UNL     1      25.624   9.593  27.465  1.00  0.00     0.186 C 
HETATM   10  C6  UNL     1      26.678  10.437  28.152  1.00  0.00     0.215 C 
HETATM   11  C5  UNL     1      26.083  11.603  28.893  1.00  0.00     0.046 C 
HETATM   12  C4  UNL     1      24.699  11.946  28.452  1.00  0.00     0.041 C 
HETATM   13  C22 UNL     1      23.805  10.760  28.743  1.00  0.00     0.157 C 
HETATM   14  C21 UNL     1      24.452   9.440  28.406  1.00  0.00     0.178 C 
BRANCH  10  15
HETATM   15  N1  UNL     1      27.646  10.928  27.196  1.00  0.00    -0.072 N 
ATOM     16  H13 UNL     1      28.396  10.260  27.026  1.00  0.00     0.274 HD
ATOM     17  H12 UNL     1      27.270  10.966  26.248  1.00  0.00     0.274 HD
ATOM     18  H11 UNL     1      27.995  11.833  27.511  1.00  0.00     0.274 HD
ENDBRANCH  10  15
BRANCH  12  19
HETATM   19  C3  UNL     1      24.196  13.065  29.313  1.00  0.00    -0.024 C 
HETATM   20  C2  UNL     1      24.839  14.216  29.440  1.00  0.00    -0.034 C 
HETATM   21  C1  UNL     1      24.286  15.279  30.307  1.00  0.00     0.036 C 
ENDBRANCH  12  19
BRANCH  13  22
HETATM   22  O9  UNL     1      23.482  10.813  30.098  1.00  0.00    -0.392 OA
ATOM     23  H9  UNL     1      24.238  10.496  30.579  1.00  0.00     0.210 HD
ENDBRANCH  13  22
BRANCH  14  24
HETATM   24  O8  UNL     1      24.975   8.927  29.604  1.00  0.00    -0.390 OA
ATOM     25  H8  UNL     1      24.833   7.989  29.576  1.00  0.00     0.210 HD
ENDBRANCH  14  24
ENDBRANCH   8   9
ENDBRANCH   1   8
BRANCH   7  26
HETATM   26  O7  UNL     1      22.426   9.148  24.397  1.00  0.00    -0.388 OA
ATOM     27  H7  UNL     1      22.097   9.644  23.657  1.00  0.00     0.210 HD
ENDBRANCH   7  26
BRANCH   6  28
HETATM   28  O6  UNL     1      22.247  12.202  25.463  1.00  0.00    -0.392 OA
ATOM     29  H6  UNL     1      21.367  11.843  25.437  1.00  0.00     0.210 HD
ENDBRANCH   6  28
BRANCH   4  30
HETATM   30  O3  UNL     1      24.895  11.798  21.640  1.00  0.00    -0.393 OA
ATOM     31  H3  UNL     1      24.641  11.472  20.785  1.00  0.00     0.210 HD
ENDBRANCH   4  30
BRANCH   5  32
HETATM   32  C12 UNL     1      21.835  11.618  22.642  1.00  0.00     0.268 C 
BRANCH  32  33
HETATM   33  O4  UNL     1      21.218  12.867  22.597  1.00  0.00    -0.366 OA
HETATM   34  C13 UNL     1      19.937  12.922  23.063  1.00  0.00     0.204 C 
ENDBRANCH  32  33
BRANCH  32  35
HETATM   35  O5  UNL     1      21.917  11.218  21.321  1.00  0.00    -0.355 OA
BRANCH  35  36
HETATM   36  C14 UNL     1      21.082  10.249  20.898  1.00  0.00     0.124 C 
HETATM   37  C15 UNL     1      21.901   9.136  20.242  1.00  0.00     0.032 C 
HETATM   38  C16 UNL     1      21.643   7.891  21.052  1.00  0.00     0.002 C 
HETATM   39  C17 UNL     1      20.424   8.134  21.887  1.00  0.00     0.002 C 
HETATM   40  C18 UNL     1      20.115   9.618  21.796  1.00  0.00     0.032 C 
ENDBRANCH  35  36
ENDBRANCH  32  35
ENDBRANCH   5  32
TORSDOF 13
ENDMDL
