MODEL 1
REMARK VINA RESULT: -8.642033788      0.000      0.000
REMARK  13 active torsions:
REMARK  status: ('A' for Active; 'I' for Inactive)
REMARK    1  A    between atoms: C2_2  and  C3_3 
REMARK    2  A    between atoms: C3_3  and  C4_4 
REMARK    3  A    between atoms: C8_8  and  O1_9 
REMARK    4  A    between atoms: O1_9  and  C9_10 
REMARK    5  A    between atoms: C10_12  and  O3_13 
REMARK    6  A    between atoms: C11_15  and  O4_16 
REMARK    7  A    between atoms: C12_18  and  O5_19 
REMARK    8  A    between atoms: O5_19  and  C13_20 
REMARK    9  A    between atoms: C14_22  and  C15_23 
REMARK   10  A    between atoms: C15_23  and  N1_24 
REMARK   11  A    between atoms: C16_28  and  O7_29 
REMARK   12  A    between atoms: C17_31  and  O8_32 
REMARK   13  A    between atoms: C18_34  and  O9_35 
ROOT
HETATM    1  C9  UNL     1      22.391  11.653  24.670  1.00  0.00     0.295 C 
HETATM    2  O2  UNL     1      21.389  12.372  25.324  1.00  0.00    -0.326 OA
HETATM    3  C10 UNL     1      20.350  12.551  24.468  1.00  0.00     0.291 C 
HETATM    4  C11 UNL     1      20.992  12.605  23.096  1.00  0.00     0.207 C 
HETATM    5  C12 UNL     1      21.960  11.374  23.286  1.00  0.00     0.213 C 
ENDROOT
BRANCH   5   6
HETATM    6  O5  UNL     1      21.133  10.282  23.219  1.00  0.00    -0.346 OA
BRANCH   6   7
HETATM    7  C13 UNL     1      21.494   9.331  22.263  1.00  0.00     0.292 C 
HETATM    8  O6  UNL     1      21.623  10.038  21.058  1.00  0.00    -0.349 OA
HETATM    9  C14 UNL     1      21.852   9.237  19.962  1.00  0.00     0.181 C 
HETATM   10  C16 UNL     1      20.743   8.220  19.764  1.00  0.00     0.180 C 
HETATM   11  C17 UNL     1      20.542   7.378  20.999  1.00  0.00     0.183 C 
HETATM   12  C18 UNL     1      20.402   8.305  22.180  1.00  0.00     0.204 C 
BRANCH   9  13
HETATM   13  C15 UNL     1      21.844  10.150  18.754  1.00  0.00     0.264 C 
BRANCH  13  14
HETATM   14  N1  UNL     1      20.754  11.072  18.723  1.00  0.00    -0.077 N 
ATOM     15  H13 UNL     1      19.887  10.609  18.996  1.00  0.00     0.274 HD
ATOM     16  H12 UNL     1      20.837  11.748  19.483  1.00  0.00     0.274 HD
ATOM     17  H11 UNL     1      20.636  11.551  17.830  1.00  0.00     0.274 HD
ENDBRANCH  13  14
ENDBRANCH   9  13
BRANCH  10  18
HETATM   18  O7  UNL     1      21.079   7.353  18.740  1.00  0.00    -0.390 OA
ATOM     19  H7  UNL     1      20.493   6.606  18.745  1.00  0.00     0.210 HD
ENDBRANCH  10  18
BRANCH  11  20
HETATM   20  O8  UNL     1      21.550   6.448  21.146  1.00  0.00    -0.390 OA
ATOM     21  H8  UNL     1      21.264   5.581  20.883  1.00  0.00     0.210 HD
ENDBRANCH  11  20
BRANCH  12  22
HETATM   22  O9  UNL     1      20.354   7.592  23.377  1.00  0.00    -0.388 OA
ATOM     23  H9  UNL     1      20.653   6.703  23.221  1.00  0.00     0.210 HD
ENDBRANCH  12  22
ENDBRANCH   6   7
ENDBRANCH   5   6
BRANCH   1  24
HETATM   24  O1  UNL     1      22.737  10.597  25.467  1.00  0.00    -0.353 OA
BRANCH  24  25
HETATM   25  C8  UNL     1      23.280  11.051  26.640  1.00  0.00     0.126 C 
HETATM   26  C7  UNL     1      22.716  10.297  27.853  1.00  0.00     0.041 C 
HETATM   27  C6  UNL     1      23.222  11.033  29.093  1.00  0.00     0.017 C 
HETATM   28  C5  UNL     1      24.199  10.078  29.796  1.00  0.00     0.014 C 
HETATM   29  C21 UNL     1      24.170  12.123  28.722  1.00  0.00    -0.080 C 
HETATM   30  C4  UNL     1      25.457  10.199  28.979  1.00  0.00    -0.002 C 
HETATM   31  C20 UNL     1      25.288  11.388  28.050  1.00  0.00     0.021 C 
HETATM   32  C19 UNL     1      24.776  10.882  26.715  1.00  0.00     0.041 C 
HETATM   33  C22 UNL     1      24.054  13.427  28.934  1.00  0.00     0.015 C 
BRANCH  30  34
HETATM   34  C3  UNL     1      26.682  10.378  29.865  1.00  0.00     0.031 C 
BRANCH  34  35
HETATM   35  C2  UNL     1      27.615  11.306  29.144  1.00  0.00    -0.037 C 
HETATM   36  C1  UNL     1      28.653  11.798  29.773  1.00  0.00     0.007 C 
ENDBRANCH  34  35
ENDBRANCH  30  34
ENDBRANCH  24  25
ENDBRANCH   1  24
BRANCH   4  37
HETATM   37  O4  UNL     1      20.031  12.312  22.157  1.00  0.00    -0.388 OA
ATOM     38  H4  UNL     1      19.837  11.384  22.207  1.00  0.00     0.210 HD
ENDBRANCH   4  37
BRANCH   3  39
HETATM   39  O3  UNL     1      19.610  13.701  24.724  1.00  0.00    -0.368 OA
ATOM     40  H3  UNL     1      19.649  14.341  24.024  1.00  0.00     0.212 HD
ENDBRANCH   3  39
TORSDOF 13
ENDMDL
MODEL 2
REMARK VINA RESULT: -8.536738106      3.847      6.377
REMARK  13 active torsions:
REMARK  status: ('A' for Active; 'I' for Inactive)
REMARK    1  A    between atoms: C2_2  and  C3_3 
REMARK    2  A    between atoms: C3_3  and  C4_4 
REMARK    3  A    between atoms: C8_8  and  O1_9 
REMARK    4  A    between atoms: O1_9  and  C9_10 
REMARK    5  A    between atoms: C10_12  and  O3_13 
REMARK    6  A    between atoms: C11_15  and  O4_16 
REMARK    7  A    between atoms: C12_18  and  O5_19 
REMARK    8  A    between atoms: O5_19  and  C13_20 
REMARK    9  A    between atoms: C14_22  and  C15_23 
REMARK   10  A    between atoms: C15_23  and  N1_24 
REMARK   11  A    between atoms: C16_28  and  O7_29 
REMARK   12  A    between atoms: C17_31  and  O8_32 
REMARK   13  A    between atoms: C18_34  and  O9_35 
ROOT
HETATM    1  C9  UNL     1      23.786   8.109  22.718  1.00  0.00     0.295 C 
HETATM    2  O2  UNL     1      23.580   6.885  22.080  1.00  0.00    -0.326 OA
HETATM    3  C10 UNL     1      22.293   6.500  22.279  1.00  0.00     0.291 C 
HETATM    4  C11 UNL     1      21.925   7.085  23.629  1.00  0.00     0.207 C 
HETATM    5  C12 UNL     1      22.538   8.519  23.392  1.00  0.00     0.213 C 
ENDROOT
BRANCH   5   6
HETATM    6  O5  UNL     1      21.663   9.120  22.523  1.00  0.00    -0.346 OA
BRANCH   6   7
HETATM    7  C13 UNL     1      21.601  10.511  22.623  1.00  0.00     0.292 C 
HETATM    8  O6  UNL     1      22.055  10.817  23.915  1.00  0.00    -0.349 OA
HETATM    9  C14 UNL     1      21.942  12.149  24.245  1.00  0.00     0.181 C 
HETATM   10  C16 UNL     1      20.508  12.636  24.151  1.00  0.00     0.180 C 
HETATM   11  C17 UNL     1      19.930  12.383  22.780  1.00  0.00     0.183 C 
HETATM   12  C18 UNL     1      20.175  10.937  22.430  1.00  0.00     0.204 C 
BRANCH   9  13
HETATM   13  C15 UNL     1      22.362  12.269  25.695  1.00  0.00     0.264 C 
BRANCH  13  14
HETATM   14  N1  UNL     1      21.288  12.547  26.595  1.00  0.00    -0.077 N 
ATOM     15  H13 UNL     1      20.448  12.807  26.078  1.00  0.00     0.274 HD
ATOM     16  H12 UNL     1      20.962  11.688  27.037  1.00  0.00     0.274 HD
ATOM     17  H11 UNL     1      21.505  13.252  27.300  1.00  0.00     0.274 HD
ENDBRANCH  13  14
ENDBRANCH   9  13
BRANCH  10  18
HETATM   18  O7  UNL     1      20.462  14.002  24.357  1.00  0.00    -0.390 OA
ATOM     19  H7  UNL     1      20.082  14.430  23.599  1.00  0.00     0.210 HD
ENDBRANCH  10  18
BRANCH  11  20
HETATM   20  O8  UNL     1      20.432  13.268  21.849  1.00  0.00    -0.390 OA
ATOM     21  H8  UNL     1      21.042  12.842  21.258  1.00  0.00     0.210 HD
ENDBRANCH  11  20
BRANCH  12  22
HETATM   22  O9  UNL     1      19.793  10.665  21.116  1.00  0.00    -0.388 OA
ATOM     23  H9  UNL     1      18.870  10.436  21.103  1.00  0.00     0.210 HD
ENDBRANCH  12  22
ENDBRANCH   6   7
ENDBRANCH   5   6
BRANCH   1  24
HETATM   24  O1  UNL     1      24.345   8.966  21.811  1.00  0.00    -0.353 OA
BRANCH  24  25
HETATM   25  C8  UNL     1      25.362   9.674  22.397  1.00  0.00     0.126 C 
HETATM   26  C7  UNL     1      26.730   9.271  21.829  1.00  0.00     0.041 C 
HETATM   27  C6  UNL     1      27.780   9.956  22.703  1.00  0.00     0.017 C 
HETATM   28  C5  UNL     1      28.466  11.006  21.817  1.00  0.00     0.014 C 
HETATM   29  C21 UNL     1      27.140  10.860  23.701  1.00  0.00    -0.080 C 
HETATM   30  C4  UNL     1      27.479  12.140  21.786  1.00  0.00    -0.002 C 
HETATM   31  C20 UNL     1      26.429  11.863  22.847  1.00  0.00     0.021 C 
HETATM   32  C19 UNL     1      25.256  11.163  22.188  1.00  0.00     0.041 C 
HETATM   33  C22 UNL     1      27.187  10.796  25.025  1.00  0.00     0.015 C 
BRANCH  30  34
HETATM   34  C3  UNL     1      28.158  13.479  22.037  1.00  0.00     0.031 C 
BRANCH  34  35
HETATM   35  C2  UNL     1      27.923  14.327  20.821  1.00  0.00    -0.037 C 
HETATM   36  C1  UNL     1      28.644  15.404  20.635  1.00  0.00     0.007 C 
ENDBRANCH  34  35
ENDBRANCH  30  34
ENDBRANCH  24  25
ENDBRANCH   1  24
BRANCH   4  37
HETATM   37  O4  UNL     1      20.554   7.163  23.708  1.00  0.00    -0.388 OA
ATOM     38  H4  UNL     1      20.295   6.973  24.602  1.00  0.00     0.210 HD
ENDBRANCH   4  37
BRANCH   3  39
HETATM   39  O3  UNL     1      22.116   5.120  22.264  1.00  0.00    -0.368 OA
ATOM     40  H3  UNL     1      21.253   4.844  22.549  1.00  0.00     0.212 HD
ENDBRANCH   3  39
TORSDOF 13
ENDMDL
MODEL 3
REMARK VINA RESULT: -8.236359097      2.258      2.979
REMARK  13 active torsions:
REMARK  status: ('A' for Active; 'I' for Inactive)
REMARK    1  A    between atoms: C2_2  and  C3_3 
REMARK    2  A    between atoms: C3_3  and  C4_4 
REMARK    3  A    between atoms: C8_8  and  O1_9 
REMARK    4  A    between atoms: O1_9  and  C9_10 
REMARK    5  A    between atoms: C10_12  and  O3_13 
REMARK    6  A    between atoms: C11_15  and  O4_16 
REMARK    7  A    between atoms: C12_18  and  O5_19 
REMARK    8  A    between atoms: O5_19  and  C13_20 
REMARK    9  A    between atoms: C14_22  and  C15_23 
REMARK   10  A    between atoms: C15_23  and  N1_24 
REMARK   11  A    between atoms: C16_28  and  O7_29 
REMARK   12  A    between atoms: C17_31  and  O8_32 
REMARK   13  A    between atoms: C18_34  and  O9_35 
ROOT
HETATM    1  C9  UNL     1      22.161  12.148  26.063  1.00  0.00     0.295 C 
HETATM    2  O2  UNL     1      20.867  12.666  26.142  1.00  0.00    -0.326 OA
HETATM    3  C10 UNL     1      20.338  12.712  24.892  1.00  0.00     0.291 C 
HETATM    4  C11 UNL     1      21.530  12.930  23.981  1.00  0.00     0.207 C 
HETATM    5  C12 UNL     1      22.482  11.865  24.650  1.00  0.00     0.213 C 
ENDROOT
BRANCH   5   6
HETATM    6  O5  UNL     1      21.975  10.658  24.243  1.00  0.00    -0.346 OA
BRANCH   6   7
HETATM    7  C13 UNL     1      22.930   9.737  23.807  1.00  0.00     0.292 C 
HETATM    8  O6  UNL     1      24.132  10.455  23.718  1.00  0.00    -0.349 OA
HETATM    9  C14 UNL     1      25.172   9.735  23.174  1.00  0.00     0.181 C 
HETATM   10  C16 UNL     1      24.848   9.238  21.779  1.00  0.00     0.180 C 
HETATM   11  C17 UNL     1      23.580   8.420  21.766  1.00  0.00     0.183 C 
HETATM   12  C18 UNL     1      22.505   9.214  22.465  1.00  0.00     0.204 C 
BRANCH   9  13
HETATM   13  C15 UNL     1      26.337  10.694  23.049  1.00  0.00     0.264 C 
BRANCH  13  14
HETATM   14  N1  UNL     1      26.390  11.393  21.805  1.00  0.00    -0.077 N 
ATOM     15  H13 UNL     1      25.519  11.900  21.642  1.00  0.00     0.274 HD
ATOM     16  H12 UNL     1      27.039  12.178  21.864  1.00  0.00     0.274 HD
ATOM     17  H11 UNL     1      26.614  10.804  21.002  1.00  0.00     0.274 HD
ENDBRANCH  13  14
ENDBRANCH   9  13
BRANCH  10  18
HETATM   18  O7  UNL     1      25.860   8.411  21.327  1.00  0.00    -0.390 OA
ATOM     19  H7  UNL     1      25.521   7.816  20.669  1.00  0.00     0.210 HD
ENDBRANCH  10  18
BRANCH  11  20
HETATM   20  O8  UNL     1      23.782   7.169  22.310  1.00  0.00    -0.390 OA
ATOM     21  H8  UNL     1      23.379   6.491  21.780  1.00  0.00     0.210 HD
ENDBRANCH  11  20
BRANCH  12  22
HETATM   22  O9  UNL     1      21.341   8.461  22.617  1.00  0.00    -0.388 OA
ATOM     23  H9  UNL     1      21.278   8.166  23.519  1.00  0.00     0.210 HD
ENDBRANCH  12  22
ENDBRANCH   6   7
ENDBRANCH   5   6
BRANCH   1  24
HETATM   24  O1  UNL     1      22.260  11.127  26.967  1.00  0.00    -0.353 OA
BRANCH  24  25
HETATM   25  C8  UNL     1      23.570  10.941  27.324  1.00  0.00     0.126 C 
HETATM   26  C7  UNL     1      24.122  12.148  28.096  1.00  0.00     0.041 C 
HETATM   27  C6  UNL     1      25.626  11.918  28.240  1.00  0.00     0.017 C 
HETATM   28  C5  UNL     1      25.889  11.686  29.735  1.00  0.00     0.014 C 
HETATM   29  C21 UNL     1      26.018  10.579  27.713  1.00  0.00    -0.080 C 
HETATM   30  C4  UNL     1      25.460  10.260  29.952  1.00  0.00    -0.002 C 
HETATM   31  C20 UNL     1      25.253   9.632  28.585  1.00  0.00     0.021 C 
HETATM   32  C19 UNL     1      23.785   9.749  28.222  1.00  0.00     0.041 C 
HETATM   33  C22 UNL     1      26.843  10.291  26.716  1.00  0.00     0.015 C 
BRANCH  30  34
HETATM   34  C3  UNL     1      26.494   9.482  30.752  1.00  0.00     0.031 C 
BRANCH  34  35
HETATM   35  C2  UNL     1      27.553  10.459  31.171  1.00  0.00    -0.037 C 
HETATM   36  C1  UNL     1      28.085  10.364  32.365  1.00  0.00     0.007 C 
ENDBRANCH  34  35
ENDBRANCH  30  34
ENDBRANCH  24  25
ENDBRANCH   1  24
BRANCH   4  37
HETATM   37  O4  UNL     1      21.184  12.528  22.713  1.00  0.00    -0.388 OA
ATOM     38  H4  UNL     1      21.979  12.307  22.242  1.00  0.00     0.210 HD
ENDBRANCH   4  37
BRANCH   3  39
HETATM   39  O3  UNL     1      19.387  13.715  24.727  1.00  0.00    -0.368 OA
ATOM     40  H3  UNL     1      19.327  14.038  23.837  1.00  0.00     0.212 HD
ENDBRANCH   3  39
TORSDOF 13
ENDMDL
MODEL 4
REMARK VINA RESULT: -8.230350566      0.940      1.396
REMARK  13 active torsions:
REMARK  status: ('A' for Active; 'I' for Inactive)
REMARK    1  A    between atoms: C2_2  and  C3_3 
REMARK    2  A    between atoms: C3_3  and  C4_4 
REMARK    3  A    between atoms: C8_8  and  O1_9 
REMARK    4  A    between atoms: O1_9  and  C9_10 
REMARK    5  A    between atoms: C10_12  and  O3_13 
REMARK    6  A    between atoms: C11_15  and  O4_16 
REMARK    7  A    between atoms: C12_18  and  O5_19 
REMARK    8  A    between atoms: O5_19  and  C13_20 
REMARK    9  A    between atoms: C14_22  and  C15_23 
REMARK   10  A    between atoms: C15_23  and  N1_24 
REMARK   11  A    between atoms: C16_28  and  O7_29 
REMARK   12  A    between atoms: C17_31  and  O8_32 
REMARK   13  A    between atoms: C18_34  and  O9_35 
ROOT
HETATM    1  C9  UNL     1      22.388  11.459  24.866  1.00  0.00     0.295 C 
HETATM    2  O2  UNL     1      21.398  12.228  25.479  1.00  0.00    -0.326 OA
HETATM    3  C10 UNL     1      20.443  12.524  24.560  1.00  0.00     0.291 C 
HETATM    4  C11 UNL     1      21.189  12.585  23.242  1.00  0.00     0.207 C 
HETATM    5  C12 UNL     1      22.044  11.275  23.442  1.00  0.00     0.213 C 
ENDROOT
BRANCH   5   6
HETATM    6  O5  UNL     1      21.144  10.255  23.263  1.00  0.00    -0.346 OA
BRANCH   6   7
HETATM    7  C13 UNL     1      21.508   9.314  22.298  1.00  0.00     0.292 C 
HETATM    8  O6  UNL     1      21.615  10.029  21.096  1.00  0.00    -0.349 OA
HETATM    9  C14 UNL     1      21.844   9.237  19.994  1.00  0.00     0.181 C 
HETATM   10  C16 UNL     1      20.747   8.206  19.801  1.00  0.00     0.180 C 
HETATM   11  C17 UNL     1      20.570   7.354  21.034  1.00  0.00     0.183 C 
HETATM   12  C18 UNL     1      20.429   8.274  22.221  1.00  0.00     0.204 C 
BRANCH   9  13
HETATM   13  C15 UNL     1      21.812  10.156  18.791  1.00  0.00     0.264 C 
BRANCH  13  14
HETATM   14  N1  UNL     1      20.737  11.096  18.800  1.00  0.00    -0.077 N 
ATOM     15  H13 UNL     1      20.916  11.836  19.480  1.00  0.00     0.274 HD
ATOM     16  H12 UNL     1      20.736  11.645  17.941  1.00  0.00     0.274 HD
ATOM     17  H11 UNL     1      19.818  10.682  18.960  1.00  0.00     0.274 HD
ENDBRANCH  13  14
ENDBRANCH   9  13
BRANCH  10  18
HETATM   18  O7  UNL     1      21.084   7.349  18.770  1.00  0.00    -0.390 OA
ATOM     19  H7  UNL     1      20.580   6.547  18.839  1.00  0.00     0.210 HD
ENDBRANCH  10  18
BRANCH  11  20
HETATM   20  O8  UNL     1      21.592   6.437  21.166  1.00  0.00    -0.390 OA
ATOM     21  H8  UNL     1      22.366   6.833  21.548  1.00  0.00     0.210 HD
ENDBRANCH  11  20
BRANCH  12  22
HETATM   22  O9  UNL     1      20.403   7.554  23.415  1.00  0.00    -0.388 OA
ATOM     23  H9  UNL     1      19.638   7.811  23.916  1.00  0.00     0.210 HD
ENDBRANCH  12  22
ENDBRANCH   6   7
ENDBRANCH   5   6
BRANCH   1  24
HETATM   24  O1  UNL     1      22.591  10.347  25.634  1.00  0.00    -0.353 OA
BRANCH  24  25
HETATM   25  C8  UNL     1      23.767  10.463  26.329  1.00  0.00     0.126 C 
HETATM   26  C7  UNL     1      23.710  11.609  27.348  1.00  0.00     0.041 C 
HETATM   27  C6  UNL     1      25.129  11.777  27.891  1.00  0.00     0.017 C 
HETATM   28  C5  UNL     1      25.083  11.353  29.366  1.00  0.00     0.014 C 
HETATM   29  C21 UNL     1      26.035  10.718  27.360  1.00  0.00    -0.080 C 
HETATM   30  C4  UNL     1      25.084   9.850  29.300  1.00  0.00    -0.002 C 
HETATM   31  C20 UNL     1      25.420   9.454  27.873  1.00  0.00     0.021 C 
HETATM   32  C19 UNL     1      24.122   9.230  27.121  1.00  0.00     0.041 C 
HETATM   33  C22 UNL     1      27.124  10.858  26.615  1.00  0.00     0.015 C 
BRANCH  30  34
HETATM   34  C3  UNL     1      26.085   9.249  30.276  1.00  0.00     0.031 C 
BRANCH  34  35
HETATM   35  C2  UNL     1      26.945  10.374  30.773  1.00  0.00    -0.037 C 
HETATM   36  C1  UNL     1      27.594  10.243  31.903  1.00  0.00     0.007 C 
ENDBRANCH  34  35
ENDBRANCH  30  34
ENDBRANCH  24  25
ENDBRANCH   1  24
BRANCH   4  37
HETATM   37  O4  UNL     1      20.283  12.409  22.222  1.00  0.00    -0.388 OA
ATOM     38  H4  UNL     1      20.429  11.554  21.837  1.00  0.00     0.210 HD
ENDBRANCH   4  37
BRANCH   3  39
HETATM   39  O3  UNL     1      19.775  13.718  24.816  1.00  0.00    -0.368 OA
ATOM     40  H3  UNL     1      18.968  13.814  24.326  1.00  0.00     0.212 HD
ENDBRANCH   3  39
TORSDOF 13
ENDMDL
MODEL 5
REMARK VINA RESULT: -8.151937399      1.700      2.330
REMARK  13 active torsions:
REMARK  status: ('A' for Active; 'I' for Inactive)
REMARK    1  A    between atoms: C2_2  and  C3_3 
REMARK    2  A    between atoms: C3_3  and  C4_4 
REMARK    3  A    between atoms: C8_8  and  O1_9 
REMARK    4  A    between atoms: O1_9  and  C9_10 
REMARK    5  A    between atoms: C10_12  and  O3_13 
REMARK    6  A    between atoms: C11_15  and  O4_16 
REMARK    7  A    between atoms: C12_18  and  O5_19 
REMARK    8  A    between atoms: O5_19  and  C13_20 
REMARK    9  A    between atoms: C14_22  and  C15_23 
REMARK   10  A    between atoms: C15_23  and  N1_24 
REMARK   11  A    between atoms: C16_28  and  O7_29 
REMARK   12  A    between atoms: C17_31  and  O8_32 
REMARK   13  A    between atoms: C18_34  and  O9_35 
ROOT
HETATM    1  C9  UNL     1      22.698  11.806  24.390  1.00  0.00     0.295 C 
HETATM    2  O2  UNL     1      22.242  13.010  24.929  1.00  0.00    -0.326 OA
HETATM    3  C10 UNL     1      21.383  13.585  24.047  1.00  0.00     0.291 C 
HETATM    4  C11 UNL     1      21.875  13.133  22.686  1.00  0.00     0.207 C 
HETATM    5  C12 UNL     1      22.098  11.616  23.055  1.00  0.00     0.213 C 
ENDROOT
BRANCH   5   6
HETATM    6  O5  UNL     1      20.830  11.099  23.135  1.00  0.00    -0.346 OA
BRANCH   6   7
HETATM    7  C13 UNL     1      20.681   9.823  22.588  1.00  0.00     0.292 C 
HETATM    8  O6  UNL     1      21.262   8.945  23.516  1.00  0.00    -0.349 OA
HETATM    9  C14 UNL     1      21.325   7.639  23.084  1.00  0.00     0.181 C 
HETATM   10  C16 UNL     1      22.114   7.507  21.795  1.00  0.00     0.180 C 
HETATM   11  C17 UNL     1      21.549   8.393  20.711  1.00  0.00     0.183 C 
HETATM   12  C18 UNL     1      21.405   9.785  21.273  1.00  0.00     0.204 C 
BRANCH   9  13
HETATM   13  C15 UNL     1      22.077   6.871  24.150  1.00  0.00     0.264 C 
BRANCH  13  14
HETATM   14  N1  UNL     1      22.949   7.675  24.947  1.00  0.00    -0.077 N 
ATOM     15  H13 UNL     1      23.474   8.322  24.358  1.00  0.00     0.274 HD
ATOM     16  H12 UNL     1      22.412   8.340  25.501  1.00  0.00     0.274 HD
ATOM     17  H11 UNL     1      23.582   7.142  25.543  1.00  0.00     0.274 HD
ENDBRANCH  13  14
ENDBRANCH   9  13
BRANCH  10  18
HETATM   18  O7  UNL     1      22.037   6.208  21.328  1.00  0.00    -0.390 OA
ATOM     19  H7  UNL     1      22.341   6.170  20.428  1.00  0.00     0.210 HD
ENDBRANCH  10  18
BRANCH  11  20
HETATM   20  O8  UNL     1      20.375   7.880  20.201  1.00  0.00    -0.390 OA
ATOM     21  H8  UNL     1      19.772   8.572  19.953  1.00  0.00     0.210 HD
ENDBRANCH  11  20
BRANCH  12  22
HETATM   22  O9  UNL     1      20.755  10.627  20.371  1.00  0.00    -0.388 OA
ATOM     23  H9  UNL     1      19.845  10.714  20.628  1.00  0.00     0.210 HD
ENDBRANCH  12  22
ENDBRANCH   6   7
ENDBRANCH   5   6
BRANCH   1  24
HETATM   24  O1  UNL     1      22.513  10.830  25.330  1.00  0.00    -0.353 OA
BRANCH  24  25
HETATM   25  C8  UNL     1      23.096  11.201  26.514  1.00  0.00     0.126 C 
HETATM   26  C7  UNL     1      22.513  10.419  27.699  1.00  0.00     0.041 C 
HETATM   27  C6  UNL     1      23.074  11.069  28.964  1.00  0.00     0.017 C 
HETATM   28  C5  UNL     1      24.012  10.035  29.604  1.00  0.00     0.014 C 
HETATM   29  C21 UNL     1      24.070  12.127  28.627  1.00  0.00    -0.080 C 
HETATM   30  C4  UNL     1      25.262  10.132  28.773  1.00  0.00    -0.002 C 
HETATM   31  C20 UNL     1      25.140  11.371  27.903  1.00  0.00     0.021 C 
HETATM   32  C19 UNL     1      24.583  10.955  26.555  1.00  0.00     0.041 C 
HETATM   33  C22 UNL     1      24.023  13.424  28.902  1.00  0.00     0.015 C 
BRANCH  30  34
HETATM   34  C3  UNL     1      26.508  10.207  29.645  1.00  0.00     0.031 C 
BRANCH  34  35
HETATM   35  C2  UNL     1      27.468  11.137  28.961  1.00  0.00    -0.037 C 
HETATM   36  C1  UNL     1      28.403  11.730  29.660  1.00  0.00     0.007 C 
ENDBRANCH  34  35
ENDBRANCH  30  34
ENDBRANCH  24  25
ENDBRANCH   1  24
BRANCH   4  37
HETATM   37  O4  UNL     1      20.840  13.256  21.790  1.00  0.00    -0.388 OA
ATOM     38  H4  UNL     1      20.057  12.889  22.184  1.00  0.00     0.210 HD
ENDBRANCH   4  37
BRANCH   3  39
HETATM   39  O3  UNL     1      21.345  14.974  24.133  1.00  0.00    -0.368 OA
ATOM     40  H3  UNL     1      20.475  15.337  24.014  1.00  0.00     0.212 HD
ENDBRANCH   3  39
TORSDOF 13
ENDMDL
