MODEL 1
REMARK VINA RESULT: -7.396402009      0.000      0.000
REMARK  5 active torsions:
REMARK  status: ('A' for Active; 'I' for Inactive)
REMARK    1  A    between atoms: O1_2  and  N1_3 
REMARK       I    between atoms: C2_5  and  N3_7 
REMARK    2  A    between atoms: C5_10  and  N4_11 
REMARK       I    between atoms: N4_11  and  C6_13 
REMARK       I    between atoms: C6_13  and  N6_20 
REMARK    3  A    between atoms: N5_14  and  S1_16 
REMARK    4  A    between atoms: N7_23  and  C10_24 
REMARK    5  A    between atoms: C10_24  and  N8_26 
ROOT
HETATM    1  N4  UNL     1      15.879 -12.944  18.618  1.00  0.00    -0.219 N 
ATOM      2  H4  UNL     1      16.335 -13.795  18.287  1.00  0.00     0.178 HD
HETATM    3  C6  UNL     1      14.915 -13.051  19.654  1.00  0.00     0.686 C 
HETATM    4  N5  UNL     1      14.176 -12.095  19.980  1.00  0.00    -0.117 N 
ATOM      5  H5  UNL     1      14.334 -11.246  19.436  1.00  0.00     0.197 HD
HETATM    6  N6  UNL     1      14.808 -14.291  20.320  1.00  0.00    -0.214 N 
HETATM    7  C8  UNL     1      13.740 -15.202  19.981  1.00  0.00     0.161 C 
HETATM    8  C9  UNL     1      14.342 -16.602  19.836  1.00  0.00     0.145 C 
HETATM    9  N7  UNL     1      14.968 -16.930  21.094  1.00  0.00    -0.355 N 
HETATM   10  C12 UNL     1      15.253 -15.913  22.067  1.00  0.00     0.145 C 
HETATM   11  C13 UNL     1      15.750 -14.687  21.347  1.00  0.00     0.161 C 
ENDROOT
BRANCH   1  12
HETATM   12  C5  UNL     1      16.244 -11.685  18.011  1.00  0.00     0.119 C 
HETATM   13  C4  UNL     1      17.572 -11.806  17.304  1.00  0.00     0.047 C 
HETATM   14  C3  UNL     1      17.298 -11.803  15.829  1.00  0.00     0.127 C 
HETATM   15  N3  UNL     1      16.050 -11.085  15.728  1.00  0.00    -0.352 N 
HETATM   16  C2  UNL     1      15.629 -10.191  14.708  1.00  0.00     0.210 C 
HETATM   17  C14 UNL     1      15.259 -11.438  16.883  1.00  0.00     0.151 C 
HETATM   18  N1  UNL     1      15.990 -10.412  13.480  1.00  0.00    -0.239 N 
HETATM   19  N2  UNL     1      14.829  -9.093  15.086  1.00  0.00    -0.062 NA
ATOM     20  H1  UNL     1      15.692  -9.774  12.741  1.00  0.00     0.197 HD
BRANCH  18  21
HETATM   21  O1  UNL     1      16.766 -11.492  13.172  1.00  0.00    -0.283 OA
HETATM   22  C1  UNL     1      17.067 -11.884  11.852  1.00  0.00     0.237 C 
ENDBRANCH  18  21
ENDBRANCH   1  12
BRANCH   4  23
HETATM   23  S1  UNL     1      12.974 -11.943  21.144  1.00  0.00     0.240 S 
HETATM   24  C7  UNL     1      12.385 -10.283  21.361  1.00  0.00     0.186 C 
HETATM   25  O2  UNL     1      13.384 -12.440  22.507  1.00  0.00    -0.206 OA
HETATM   26  O3  UNL     1      11.788 -12.781  20.741  1.00  0.00    -0.206 OA
ENDBRANCH   4  23
BRANCH   9  27
HETATM   27  C10 UNL     1      15.296 -18.288  21.343  1.00  0.00     0.176 C 
HETATM   28  S2  UNL     1      15.798 -19.225  20.112  1.00  0.00    -0.041 SA
BRANCH  27  29
HETATM   29  N8  UNL     1      15.202 -18.863  22.639  1.00  0.00    -0.310 N 
HETATM   30  C11 UNL     1      14.112 -19.367  23.100  1.00  0.00     0.203 C 
HETATM   31  N9  UNL     1      12.960 -19.347  22.286  1.00  0.00    -0.066 NA
HETATM   32  N10 UNL     1      14.035 -19.937  24.392  1.00  0.00    -0.066 NA
ATOM     33  H8  UNL     1      16.035 -18.878  23.229  1.00  0.00     0.170 HD
ENDBRANCH  27  29
ENDBRANCH   9  27
TORSDOF 5
ENDMDL
MODEL 2
REMARK VINA RESULT: -7.261960899      1.143      1.215
REMARK  5 active torsions:
REMARK  status: ('A' for Active; 'I' for Inactive)
REMARK    1  A    between atoms: O1_2  and  N1_3 
REMARK       I    between atoms: C2_5  and  N3_7 
REMARK    2  A    between atoms: C5_10  and  N4_11 
REMARK       I    between atoms: N4_11  and  C6_13 
REMARK       I    between atoms: C6_13  and  N6_20 
REMARK    3  A    between atoms: N5_14  and  S1_16 
REMARK    4  A    between atoms: N7_23  and  C10_24 
REMARK    5  A    between atoms: C10_24  and  N8_26 
ROOT
HETATM    1  N4  UNL     1      15.050 -12.791  18.686  1.00  0.00    -0.219 N 
ATOM      2  H4  UNL     1      15.211 -13.676  18.205  1.00  0.00     0.178 HD
HETATM    3  C6  UNL     1      14.283 -12.798  19.880  1.00  0.00     0.686 C 
HETATM    4  N5  UNL     1      13.879 -11.744  20.421  1.00  0.00    -0.117 N 
ATOM      5  H5  UNL     1      14.150 -10.895  19.925  1.00  0.00     0.197 HD
HETATM    6  N6  UNL     1      13.983 -14.052  20.455  1.00  0.00    -0.214 N 
HETATM    7  C8  UNL     1      12.677 -14.639  20.264  1.00  0.00     0.161 C 
HETATM    8  C9  UNL     1      12.871 -16.111  19.892  1.00  0.00     0.145 C 
HETATM    9  N7  UNL     1      13.601 -16.731  20.971  1.00  0.00    -0.355 N 
HETATM   10  C12 UNL     1      14.298 -15.939  21.945  1.00  0.00     0.145 C 
HETATM   11  C13 UNL     1      14.957 -14.783  21.240  1.00  0.00     0.161 C 
ENDROOT
BRANCH   1  12
HETATM   12  C5  UNL     1      15.611 -11.586  18.120  1.00  0.00     0.119 C 
HETATM   13  C4  UNL     1      17.002 -11.848  17.595  1.00  0.00     0.047 C 
HETATM   14  C3  UNL     1      16.923 -11.853  16.096  1.00  0.00     0.127 C 
HETATM   15  N3  UNL     1      15.775 -11.023  15.825  1.00  0.00    -0.352 N 
HETATM   16  C2  UNL     1      15.579 -10.115  14.749  1.00  0.00     0.210 C 
HETATM   17  C14 UNL     1      14.810 -11.272  16.869  1.00  0.00     0.151 C 
HETATM   18  N1  UNL     1      16.073 -10.397  13.582  1.00  0.00    -0.239 N 
HETATM   19  N2  UNL     1      14.847  -8.938  15.008  1.00  0.00    -0.062 NA
ATOM     20  H1  UNL     1      15.937  -9.751  12.804  1.00  0.00     0.197 HD
BRANCH  18  21
HETATM   21  O1  UNL     1      16.774 -11.553  13.390  1.00  0.00    -0.283 OA
HETATM   22  C1  UNL     1      17.067 -12.083  12.117  1.00  0.00     0.237 C 
ENDBRANCH  18  21
ENDBRANCH   1  12
BRANCH   4  23
HETATM   23  S1  UNL     1      12.975 -11.463  21.808  1.00  0.00     0.240 S 
HETATM   24  C7  UNL     1      13.151  -9.823  22.466  1.00  0.00     0.186 C 
HETATM   25  O2  UNL     1      13.281 -12.416  22.936  1.00  0.00    -0.206 OA
HETATM   26  O3  UNL     1      11.514 -11.655  21.493  1.00  0.00    -0.206 OA
ENDBRANCH   4  23
BRANCH   9  27
HETATM   27  C10 UNL     1      13.612 -18.148  21.042  1.00  0.00     0.176 C 
HETATM   28  S2  UNL     1      12.261 -18.975  20.670  1.00  0.00    -0.041 SA
BRANCH  27  29
HETATM   29  N8  UNL     1      14.768 -18.878  21.430  1.00  0.00    -0.310 N 
HETATM   30  C11 UNL     1      14.874 -19.461  22.572  1.00  0.00     0.203 C 
HETATM   31  N9  UNL     1      13.796 -19.374  23.478  1.00  0.00    -0.066 NA
HETATM   32  N10 UNL     1      16.032 -20.184  22.942  1.00  0.00    -0.066 NA
ATOM     33  H8  UNL     1      15.548 -18.941  20.774  1.00  0.00     0.170 HD
ENDBRANCH  27  29
ENDBRANCH   9  27
TORSDOF 5
ENDMDL
MODEL 3
REMARK VINA RESULT: -7.144389709      5.224      7.565
REMARK  5 active torsions:
REMARK  status: ('A' for Active; 'I' for Inactive)
REMARK    1  A    between atoms: O1_2  and  N1_3 
REMARK       I    between atoms: C2_5  and  N3_7 
REMARK    2  A    between atoms: C5_10  and  N4_11 
REMARK       I    between atoms: N4_11  and  C6_13 
REMARK       I    between atoms: C6_13  and  N6_20 
REMARK    3  A    between atoms: N5_14  and  S1_16 
REMARK    4  A    between atoms: N7_23  and  C10_24 
REMARK    5  A    between atoms: C10_24  and  N8_26 
ROOT
HETATM    1  N4  UNL     1      16.388 -13.599  21.777  1.00  0.00    -0.219 N 
ATOM      2  H4  UNL     1      16.225 -14.003  22.700  1.00  0.00     0.178 HD
HETATM    3  C6  UNL     1      17.727 -13.455  21.328  1.00  0.00     0.686 C 
HETATM    4  N5  UNL     1      18.020 -12.799  20.303  1.00  0.00    -0.117 N 
ATOM      5  H5  UNL     1      17.215 -12.385  19.832  1.00  0.00     0.197 HD
HETATM    6  N6  UNL     1      18.740 -14.086  22.082  1.00  0.00    -0.214 N 
HETATM    7  C8  UNL     1      19.545 -13.310  22.998  1.00  0.00     0.161 C 
HETATM    8  C9  UNL     1      19.636 -14.084  24.315  1.00  0.00     0.145 C 
HETATM    9  N7  UNL     1      20.222 -15.368  24.017  1.00  0.00    -0.355 N 
HETATM   10  C12 UNL     1      20.287 -15.857  22.669  1.00  0.00     0.145 C 
HETATM   11  C13 UNL     1      19.001 -15.505  21.969  1.00  0.00     0.161 C 
ENDROOT
BRANCH   1  12
HETATM   12  C5  UNL     1      15.247 -13.198  20.988  1.00  0.00     0.119 C 
HETATM   13  C4  UNL     1      14.007 -13.927  21.447  1.00  0.00     0.047 C 
HETATM   14  C3  UNL     1      13.148 -12.936  22.178  1.00  0.00     0.127 C 
HETATM   15  N3  UNL     1      13.542 -11.673  21.604  1.00  0.00    -0.352 N 
HETATM   16  C2  UNL     1      12.733 -10.537  21.335  1.00  0.00     0.210 C 
HETATM   17  C14 UNL     1      14.959 -11.748  21.333  1.00  0.00     0.151 C 
HETATM   18  N1  UNL     1      11.754 -10.250  22.138  1.00  0.00    -0.239 N 
HETATM   19  N2  UNL     1      13.038  -9.767  20.193  1.00  0.00    -0.062 NA
ATOM     20  H1  UNL     1      11.167  -9.436  21.952  1.00  0.00     0.197 HD
BRANCH  18  21
HETATM   21  O1  UNL     1      11.504 -11.031  23.230  1.00  0.00    -0.283 OA
HETATM   22  C1  UNL     1      11.579 -10.561  24.556  1.00  0.00     0.237 C 
ENDBRANCH  18  21
ENDBRANCH   1  12
BRANCH   4  23
HETATM   23  S1  UNL     1      19.488 -12.471  19.555  1.00  0.00     0.240 S 
HETATM   24  C7  UNL     1      19.338 -11.960  17.861  1.00  0.00     0.186 C 
HETATM   25  O2  UNL     1      20.451 -13.631  19.573  1.00  0.00    -0.206 OA
HETATM   26  O3  UNL     1      20.179 -11.352  20.292  1.00  0.00    -0.206 OA
ENDBRANCH   4  23
BRANCH   9  27
HETATM   27  C10 UNL     1      20.732 -16.136  25.096  1.00  0.00     0.176 C 
HETATM   28  S2  UNL     1      19.728 -16.597  26.291  1.00  0.00    -0.041 SA
BRANCH  27  29
HETATM   29  N8  UNL     1      22.098 -16.521  25.171  1.00  0.00    -0.310 N 
HETATM   30  C11 UNL     1      23.029 -15.717  25.549  1.00  0.00     0.203 C 
HETATM   31  N9  UNL     1      22.680 -14.397  25.903  1.00  0.00    -0.066 NA
HETATM   32  N10 UNL     1      24.384 -16.116  25.619  1.00  0.00    -0.066 NA
ATOM     33  H8  UNL     1      22.351 -17.476  24.915  1.00  0.00     0.170 HD
ENDBRANCH  27  29
ENDBRANCH   9  27
TORSDOF 5
ENDMDL
MODEL 4
REMARK VINA RESULT: -7.060513738      5.429      7.714
REMARK  5 active torsions:
REMARK  status: ('A' for Active; 'I' for Inactive)
REMARK    1  A    between atoms: O1_2  and  N1_3 
REMARK       I    between atoms: C2_5  and  N3_7 
REMARK    2  A    between atoms: C5_10  and  N4_11 
REMARK       I    between atoms: N4_11  and  C6_13 
REMARK       I    between atoms: C6_13  and  N6_20 
REMARK    3  A    between atoms: N5_14  and  S1_16 
REMARK    4  A    between atoms: N7_23  and  C10_24 
REMARK    5  A    between atoms: C10_24  and  N8_26 
ROOT
HETATM    1  N4  UNL     1      16.964 -13.205  21.381  1.00  0.00    -0.219 N 
ATOM      2  H4  UNL     1      17.501 -12.384  21.660  1.00  0.00     0.178 HD
HETATM    3  C6  UNL     1      17.444 -14.487  21.753  1.00  0.00     0.686 C 
HETATM    4  N5  UNL     1      16.955 -15.543  21.292  1.00  0.00    -0.117 N 
ATOM      5  H5  UNL     1      16.192 -15.392  20.632  1.00  0.00     0.197 HD
HETATM    6  N6  UNL     1      18.509 -14.542  22.678  1.00  0.00    -0.214 N 
HETATM    7  C8  UNL     1      19.856 -14.778  22.213  1.00  0.00     0.161 C 
HETATM    8  C9  UNL     1      20.779 -13.777  22.912  1.00  0.00     0.145 C 
HETATM    9  N7  UNL     1      20.641 -13.988  24.332  1.00  0.00    -0.355 N 
HETATM   10  C12 UNL     1      19.536 -14.733  24.866  1.00  0.00     0.145 C 
HETATM   11  C13 UNL     1      18.293 -14.364  24.099  1.00  0.00     0.161 C 
ENDROOT
BRANCH   1  12
HETATM   12  C5  UNL     1      15.749 -13.010  20.625  1.00  0.00     0.119 C 
HETATM   13  C4  UNL     1      14.566 -13.576  21.372  1.00  0.00     0.047 C 
HETATM   14  C3  UNL     1      13.768 -12.418  21.895  1.00  0.00     0.127 C 
HETATM   15  N3  UNL     1      14.092 -11.354  20.976  1.00  0.00    -0.352 N 
HETATM   16  C2  UNL     1      13.248 -10.317  20.496  1.00  0.00     0.210 C 
HETATM   17  C14 UNL     1      15.478 -11.516  20.604  1.00  0.00     0.151 C 
HETATM   18  N1  UNL     1      12.344  -9.817  21.284  1.00  0.00    -0.239 N 
HETATM   19  N2  UNL     1      13.435  -9.877  19.169  1.00  0.00    -0.062 NA
ATOM     20  H1  UNL     1      11.734  -9.072  20.947  1.00  0.00     0.197 HD
BRANCH  18  21
HETATM   21  O1  UNL     1      12.208 -10.282  22.561  1.00  0.00    -0.283 OA
HETATM   22  C1  UNL     1      11.972  -9.448  23.672  1.00  0.00     0.237 C 
ENDBRANCH  18  21
ENDBRANCH   1  12
BRANCH   4  23
HETATM   23  S1  UNL     1      17.319 -17.162  21.552  1.00  0.00     0.240 S 
HETATM   24  C7  UNL     1      17.172 -17.672  23.246  1.00  0.00     0.186 C 
HETATM   25  O2  UNL     1      18.703 -17.554  21.101  1.00  0.00    -0.206 OA
HETATM   26  O3  UNL     1      16.369 -18.017  20.752  1.00  0.00    -0.206 OA
ENDBRANCH   4  23
BRANCH   9  27
HETATM   27  C10 UNL     1      21.629 -13.437  25.189  1.00  0.00     0.176 C 
HETATM   28  S2  UNL     1      21.173 -12.732  26.582  1.00  0.00    -0.041 SA
BRANCH  27  29
HETATM   29  N8  UNL     1      23.014 -13.480  24.872  1.00  0.00    -0.310 N 
HETATM   30  C11 UNL     1      23.752 -14.507  25.110  1.00  0.00     0.203 C 
HETATM   31  N9  UNL     1      23.162 -15.639  25.711  1.00  0.00    -0.066 NA
HETATM   32  N10 UNL     1      25.129 -14.534  24.788  1.00  0.00    -0.066 NA
ATOM     33  H8  UNL     1      23.441 -12.661  24.438  1.00  0.00     0.170 HD
ENDBRANCH  27  29
ENDBRANCH   9  27
TORSDOF 5
ENDMDL
MODEL 5
REMARK VINA RESULT: -7.035621471      5.394      6.783
REMARK  5 active torsions:
REMARK  status: ('A' for Active; 'I' for Inactive)
REMARK    1  A    between atoms: O1_2  and  N1_3 
REMARK       I    between atoms: C2_5  and  N3_7 
REMARK    2  A    between atoms: C5_10  and  N4_11 
REMARK       I    between atoms: N4_11  and  C6_13 
REMARK       I    between atoms: C6_13  and  N6_20 
REMARK    3  A    between atoms: N5_14  and  S1_16 
REMARK    4  A    between atoms: N7_23  and  C10_24 
REMARK    5  A    between atoms: C10_24  and  N8_26 
ROOT
HETATM    1  N4  UNL     1      17.617 -13.793  21.976  1.00  0.00    -0.219 N 
ATOM      2  H4  UNL     1      18.523 -13.337  21.866  1.00  0.00     0.178 HD
HETATM    3  C6  UNL     1      17.583 -15.122  22.471  1.00  0.00     0.686 C 
HETATM    4  N5  UNL     1      16.540 -15.815  22.453  1.00  0.00    -0.117 N 
ATOM      5  H5  UNL     1      15.733 -15.337  22.055  1.00  0.00     0.197 HD
HETATM    6  N6  UNL     1      18.781 -15.655  22.994  1.00  0.00    -0.214 N 
HETATM    7  C8  UNL     1      19.579 -16.556  22.195  1.00  0.00     0.161 C 
HETATM    8  C9  UNL     1      21.041 -16.115  22.304  1.00  0.00     0.145 C 
HETATM    9  N7  UNL     1      21.395 -16.156  23.702  1.00  0.00    -0.355 N 
HETATM   10  C12 UNL     1      20.386 -16.221  24.721  1.00  0.00     0.145 C 
HETATM   11  C13 UNL     1      19.246 -15.320  24.324  1.00  0.00     0.161 C 
ENDROOT
BRANCH   1  12
HETATM   12  C5  UNL     1      16.426 -13.056  21.622  1.00  0.00     0.119 C 
HETATM   13  C4  UNL     1      16.758 -11.604  21.376  1.00  0.00     0.047 C 
HETATM   14  C3  UNL     1      16.673 -11.368  19.896  1.00  0.00     0.127 C 
HETATM   15  N3  UNL     1      15.749 -12.383  19.454  1.00  0.00    -0.352 N 
HETATM   16  C2  UNL     1      14.771 -12.297  18.427  1.00  0.00     0.210 C 
HETATM   17  C14 UNL     1      15.986 -13.558  20.259  1.00  0.00     0.151 C 
HETATM   18  N1  UNL     1      15.022 -11.587  17.369  1.00  0.00    -0.239 N 
HETATM   19  N2  UNL     1      13.560 -12.996  18.612  1.00  0.00    -0.062 NA
ATOM     20  H1  UNL     1      14.325 -11.520  16.627  1.00  0.00     0.197 HD
BRANCH  18  21
HETATM   21  O1  UNL     1      16.213 -10.931  17.244  1.00  0.00    -0.283 OA
HETATM   22  C1  UNL     1      17.079 -11.092  16.144  1.00  0.00     0.237 C 
ENDBRANCH  18  21
ENDBRANCH   1  12
BRANCH   4  23
HETATM   23  S1  UNL     1      16.220 -17.384  22.962  1.00  0.00     0.240 S 
HETATM   24  C7  UNL     1      16.775 -17.736  24.611  1.00  0.00     0.186 C 
HETATM   25  O2  UNL     1      16.813 -18.444  22.070  1.00  0.00    -0.206 OA
HETATM   26  O3  UNL     1      14.731 -17.615  22.941  1.00  0.00    -0.206 OA
ENDBRANCH   4  23
BRANCH   9  27
HETATM   27  C10 UNL     1      22.773 -16.130  24.043  1.00  0.00     0.176 C 
HETATM   28  S2  UNL     1      23.483 -17.486  24.594  1.00  0.00    -0.041 SA
BRANCH  27  29
HETATM   29  N8  UNL     1      23.561 -14.954  23.920  1.00  0.00    -0.310 N 
HETATM   30  C11 UNL     1      23.663 -14.081  24.861  1.00  0.00     0.203 C 
HETATM   31  N9  UNL     1      22.962 -14.300  26.066  1.00  0.00    -0.066 NA
HETATM   32  N10 UNL     1      24.452 -12.916  24.722  1.00  0.00    -0.066 NA
ATOM     33  H8  UNL     1      24.068 -14.794  23.049  1.00  0.00     0.170 HD
ENDBRANCH  27  29
ENDBRANCH   9  27
TORSDOF 5
ENDMDL
