MODEL 1
REMARK VINA RESULT: -6.591494009      0.000      0.000
REMARK  12 active torsions:
REMARK  status: ('A' for Active; 'I' for Inactive)
REMARK    1  A    between atoms: C2_2  and  C3_3 
REMARK    2  A    between atoms: C3_3  and  C4_4 
REMARK    3  A    between atoms: C4_4  and  C5_5 
REMARK    4  A    between atoms: C5_5  and  N1_6 
REMARK    5  A    between atoms: C8_13  and  C9_14 
REMARK    6  A    between atoms: C9_14  and  C10_15 
REMARK    7  A    between atoms: C10_15  and  C11_16 
REMARK    8  A    between atoms: C11_16  and  N3_17 
REMARK    9  A    between atoms: C14_26  and  C15_27 
REMARK   10  A    between atoms: C15_27  and  C16_28 
REMARK   11  A    between atoms: C16_28  and  C17_29 
REMARK   12  A    between atoms: C17_29  and  N7_30 
ROOT
HETATM    1  N1  UNL     1      28.669  11.946  30.183  1.00  0.00    -0.320 N 
HETATM    2  C6  UNL     1      29.689  11.168  30.790  1.00  0.00     0.325 C 
HETATM    3  O1  UNL     1      29.996  11.587  31.958  1.00  0.00    -0.247 OA
HETATM    4  N2  UNL     1      30.490  10.026  30.470  1.00  0.00    -0.277 N 
ATOM      5  H2  UNL     1      31.202   9.818  31.171  1.00  0.00     0.173 HD
HETATM    6  C7  UNL     1      30.494   9.108  29.355  1.00  0.00     0.248 C 
HETATM    7  O2  UNL     1      31.544   8.416  29.364  1.00  0.00    -0.271 OA
HETATM    8  C8  UNL     1      29.553   8.830  28.252  1.00  0.00     0.177 C 
HETATM    9  N6  UNL     1      28.183   9.106  28.533  1.00  0.00    -0.346 N 
ATOM     10  H6  UNL     1      27.588   8.371  28.151  1.00  0.00     0.163 HD
HETATM   11  C13 UNL     1      27.386  10.101  29.190  1.00  0.00     0.241 C 
HETATM   12  O3  UNL     1      26.329   9.523  29.624  1.00  0.00    -0.271 OA
HETATM   13  C14 UNL     1      27.479  11.535  29.470  1.00  0.00     0.181 C 
ENDROOT
BRANCH   8  14
HETATM   14  C9  UNL     1      29.684   7.342  27.925  1.00  0.00     0.036 C 
BRANCH  14  15
HETATM   15  C10 UNL     1      28.943   6.490  28.924  1.00  0.00     0.022 C 
BRANCH  15  16
HETATM   16  C11 UNL     1      29.850   5.390  29.423  1.00  0.00     0.122 C 
BRANCH  16  17
HETATM   17  N3  UNL     1      31.113   5.362  28.733  1.00  0.00    -0.367 N 
HETATM   18  C12 UNL     1      31.859   4.314  28.831  1.00  0.00     0.196 C 
HETATM   19  N4  UNL     1      33.107   4.304  28.141  1.00  0.00    -0.067 NA
HETATM   20  N5  UNL     1      31.509   3.170  29.585  1.00  0.00    -0.067 NA
ATOM     21  H3  UNL     1      31.416   6.161  28.175  1.00  0.00     0.161 HD
ENDBRANCH  16  17
ENDBRANCH  15  16
ENDBRANCH  14  15
ENDBRANCH   8  14
BRANCH  13  22
HETATM   22  C15 UNL     1      27.202  12.297  28.222  1.00  0.00     0.037 C 
BRANCH  22  23
HETATM   23  C16 UNL     1      25.792  12.894  28.418  1.00  0.00     0.022 C 
BRANCH  23  24
HETATM   24  C17 UNL     1      24.896  12.511  27.287  1.00  0.00     0.122 C 
BRANCH  24  25
HETATM   25  N7  UNL     1      24.444  11.147  27.383  1.00  0.00    -0.367 N 
HETATM   26  C18 UNL     1      23.618  10.676  26.515  1.00  0.00     0.196 C 
HETATM   27  N8  UNL     1      23.141  11.497  25.449  1.00  0.00    -0.067 NA
HETATM   28  N9  UNL     1      23.169   9.339  26.600  1.00  0.00    -0.067 NA
ATOM     29  H7  UNL     1      24.779  10.552  28.141  1.00  0.00     0.161 HD
ENDBRANCH  24  25
ENDBRANCH  23  24
ENDBRANCH  22  23
ENDBRANCH  13  22
BRANCH   1  30
HETATM   30  C5  UNL     1      28.881  13.342  30.321  1.00  0.00     0.128 C 
BRANCH  30  31
HETATM   31  C4  UNL     1      27.874  14.141  31.048  1.00  0.00     0.020 C 
BRANCH  31  32
HETATM   32  C3  UNL     1      27.418  13.715  32.383  1.00  0.00     0.001 C 
BRANCH  32  33
HETATM   33  C2  UNL     1      26.010  13.194  32.479  1.00  0.00    -0.004 C 
HETATM   34  C1  UNL     1      25.430  13.509  33.847  1.00  0.00     0.005 C 
ENDBRANCH  32  33
ENDBRANCH  31  32
ENDBRANCH  30  31
ENDBRANCH   1  30
TORSDOF 12
ENDMDL
MODEL 2
REMARK VINA RESULT: -6.536026733      2.651      7.795
REMARK  12 active torsions:
REMARK  status: ('A' for Active; 'I' for Inactive)
REMARK    1  A    between atoms: C2_2  and  C3_3 
REMARK    2  A    between atoms: C3_3  and  C4_4 
REMARK    3  A    between atoms: C4_4  and  C5_5 
REMARK    4  A    between atoms: C5_5  and  N1_6 
REMARK    5  A    between atoms: C8_13  and  C9_14 
REMARK    6  A    between atoms: C9_14  and  C10_15 
REMARK    7  A    between atoms: C10_15  and  C11_16 
REMARK    8  A    between atoms: C11_16  and  N3_17 
REMARK    9  A    between atoms: C14_26  and  C15_27 
REMARK   10  A    between atoms: C15_27  and  C16_28 
REMARK   11  A    between atoms: C16_28  and  C17_29 
REMARK   12  A    between atoms: C17_29  and  N7_30 
ROOT
HETATM    1  N1  UNL     1      30.197   8.443  29.526  1.00  0.00    -0.320 N 
HETATM    2  C6  UNL     1      29.063   7.734  29.048  1.00  0.00     0.325 C 
HETATM    3  O1  UNL     1      29.261   6.472  28.999  1.00  0.00    -0.247 OA
HETATM    4  N2  UNL     1      27.736   8.025  28.598  1.00  0.00    -0.277 N 
ATOM      5  H2  UNL     1      27.239   7.208  28.243  1.00  0.00     0.173 HD
HETATM    6  C7  UNL     1      26.960   9.241  28.546  1.00  0.00     0.248 C 
HETATM    7  O2  UNL     1      25.940   9.077  27.830  1.00  0.00    -0.271 OA
HETATM    8  C8  UNL     1      27.117  10.584  29.138  1.00  0.00     0.177 C 
HETATM    9  N6  UNL     1      27.843  10.631  30.364  1.00  0.00    -0.346 N 
ATOM     10  H6  UNL     1      27.399  11.278  31.015  1.00  0.00     0.163 HD
HETATM   11  C13 UNL     1      29.008  10.045  30.961  1.00  0.00     0.241 C 
HETATM   12  O3  UNL     1      28.817  10.013  32.227  1.00  0.00    -0.271 OA
HETATM   13  C14 UNL     1      30.290   9.505  30.504  1.00  0.00     0.181 C 
ENDROOT
BRANCH   8  14
HETATM   14  C9  UNL     1      25.708  11.119  29.397  1.00  0.00     0.036 C 
BRANCH  14  15
HETATM   15  C10 UNL     1      25.479  12.435  28.698  1.00  0.00     0.022 C 
BRANCH  15  16
HETATM   16  C11 UNL     1      24.162  12.394  27.959  1.00  0.00     0.122 C 
BRANCH  16  17
HETATM   17  N3  UNL     1      23.709  11.050  27.716  1.00  0.00    -0.367 N 
HETATM   18  C12 UNL     1      23.287  10.734  26.539  1.00  0.00     0.196 C 
HETATM   19  N4  UNL     1      22.841   9.397  26.317  1.00  0.00    -0.067 NA
HETATM   20  N5  UNL     1      23.242  11.637  25.452  1.00  0.00    -0.067 NA
ATOM     21  H3  UNL     1      23.720  10.357  28.465  1.00  0.00     0.161 HD
ENDBRANCH  16  17
ENDBRANCH  15  16
ENDBRANCH  14  15
ENDBRANCH   8  14
BRANCH  13  22
HETATM   22  C15 UNL     1      31.188  10.629  30.125  1.00  0.00     0.037 C 
BRANCH  22  23
HETATM   23  C16 UNL     1      32.184  10.765  31.296  1.00  0.00     0.022 C 
BRANCH  23  24
HETATM   24  C17 UNL     1      33.072  11.948  31.099  1.00  0.00     0.122 C 
BRANCH  24  25
HETATM   25  N7  UNL     1      34.147  11.681  30.178  1.00  0.00    -0.367 N 
HETATM   26  C18 UNL     1      34.252  12.362  29.090  1.00  0.00     0.196 C 
HETATM   27  N8  UNL     1      33.308  13.389  28.784  1.00  0.00    -0.067 NA
HETATM   28  N9  UNL     1      35.302  12.107  28.181  1.00  0.00    -0.067 NA
ATOM     29  H7  UNL     1      34.826  10.949  30.387  1.00  0.00     0.161 HD
ENDBRANCH  24  25
ENDBRANCH  23  24
ENDBRANCH  22  23
ENDBRANCH  13  22
BRANCH   1  30
HETATM   30  C5  UNL     1      31.411   8.014  28.931  1.00  0.00     0.128 C 
BRANCH  30  31
HETATM   31  C4  UNL     1      31.543   8.089  27.463  1.00  0.00     0.020 C 
BRANCH  31  32
HETATM   32  C3  UNL     1      31.909   9.363  26.819  1.00  0.00     0.001 C 
BRANCH  32  33
HETATM   33  C2  UNL     1      30.889   9.966  25.893  1.00  0.00    -0.004 C 
HETATM   34  C1  UNL     1      29.905  10.812  26.683  1.00  0.00     0.005 C 
ENDBRANCH  32  33
ENDBRANCH  31  32
ENDBRANCH  30  31
ENDBRANCH   1  30
TORSDOF 12
ENDMDL
MODEL 3
REMARK VINA RESULT: -6.384787739      1.969      3.164
REMARK  12 active torsions:
REMARK  status: ('A' for Active; 'I' for Inactive)
REMARK    1  A    between atoms: C2_2  and  C3_3 
REMARK    2  A    between atoms: C3_3  and  C4_4 
REMARK    3  A    between atoms: C4_4  and  C5_5 
REMARK    4  A    between atoms: C5_5  and  N1_6 
REMARK    5  A    between atoms: C8_13  and  C9_14 
REMARK    6  A    between atoms: C9_14  and  C10_15 
REMARK    7  A    between atoms: C10_15  and  C11_16 
REMARK    8  A    between atoms: C11_16  and  N3_17 
REMARK    9  A    between atoms: C14_26  and  C15_27 
REMARK   10  A    between atoms: C15_27  and  C16_28 
REMARK   11  A    between atoms: C16_28  and  C17_29 
REMARK   12  A    between atoms: C17_29  and  N7_30 
ROOT
HETATM    1  N1  UNL     1      30.679  11.715  31.253  1.00  0.00    -0.320 N 
HETATM    2  C6  UNL     1      31.627  10.662  31.175  1.00  0.00     0.325 C 
HETATM    3  O1  UNL     1      32.507  10.725  32.100  1.00  0.00    -0.247 OA
HETATM    4  N2  UNL     1      31.890   9.525  30.346  1.00  0.00    -0.277 N 
ATOM      5  H2  UNL     1      32.758   9.042  30.580  1.00  0.00     0.173 HD
HETATM    6  C7  UNL     1      31.175   8.924  29.244  1.00  0.00     0.248 C 
HETATM    7  O2  UNL     1      31.910   8.098  28.646  1.00  0.00    -0.271 OA
HETATM    8  C8  UNL     1      29.812   9.079  28.701  1.00  0.00     0.177 C 
HETATM    9  N6  UNL     1      28.821   9.485  29.642  1.00  0.00    -0.346 N 
ATOM     10  H6  UNL     1      27.954   8.970  29.488  1.00  0.00     0.163 HD
HETATM   11  C13 UNL     1      28.671  10.397  30.738  1.00  0.00     0.241 C 
HETATM   12  O3  UNL     1      27.800   9.900  31.535  1.00  0.00    -0.271 OA
HETATM   13  C14 UNL     1      29.236  11.684  31.146  1.00  0.00     0.181 C 
ENDROOT
BRANCH   8  14
HETATM   14  C9  UNL     1      29.405   7.717  28.136  1.00  0.00     0.036 C 
BRANCH  14  15
HETATM   15  C10 UNL     1      28.985   6.769  29.229  1.00  0.00     0.022 C 
BRANCH  15  16
HETATM   16  C11 UNL     1      29.567   5.400  28.964  1.00  0.00     0.122 C 
BRANCH  16  17
HETATM   17  N3  UNL     1      30.823   5.461  28.265  1.00  0.00    -0.367 N 
HETATM   18  C12 UNL     1      31.722   4.570  28.511  1.00  0.00     0.196 C 
HETATM   19  N4  UNL     1      32.961   4.647  27.808  1.00  0.00    -0.067 NA
HETATM   20  N5  UNL     1      31.551   3.518  29.440  1.00  0.00    -0.067 NA
ATOM     21  H3  UNL     1      31.000   6.200  27.583  1.00  0.00     0.161 HD
ENDBRANCH  16  17
ENDBRANCH  15  16
ENDBRANCH  14  15
ENDBRANCH   8  14
BRANCH  13  22
HETATM   22  C15 UNL     1      28.646  12.766  30.313  1.00  0.00     0.037 C 
BRANCH  22  23
HETATM   23  C16 UNL     1      27.251  13.029  30.918  1.00  0.00     0.022 C 
BRANCH  23  24
HETATM   24  C17 UNL     1      26.192  12.912  29.874  1.00  0.00     0.122 C 
BRANCH  24  25
HETATM   25  N7  UNL     1      25.416  11.707  30.011  1.00  0.00    -0.367 N 
HETATM   26  C18 UNL     1      25.516  10.769  29.135  1.00  0.00     0.196 C 
HETATM   27  N8  UNL     1      26.396  10.911  28.019  1.00  0.00    -0.067 NA
HETATM   28  N9  UNL     1      24.759   9.583  29.261  1.00  0.00    -0.067 NA
ATOM     29  H7  UNL     1      24.785  11.596  30.805  1.00  0.00     0.161 HD
ENDBRANCH  24  25
ENDBRANCH  23  24
ENDBRANCH  22  23
ENDBRANCH  13  22
BRANCH   1  30
HETATM   30  C5  UNL     1      31.275  12.983  31.476  1.00  0.00     0.128 C 
BRANCH  30  31
HETATM   31  C4  UNL     1      32.321  13.445  30.542  1.00  0.00     0.020 C 
BRANCH  31  32
HETATM   32  C3  UNL     1      31.975  13.764  29.145  1.00  0.00     0.001 C 
BRANCH  32  33
HETATM   33  C2  UNL     1      32.280  12.708  28.119  1.00  0.00    -0.004 C 
HETATM   34  C1  UNL     1      30.998  12.256  27.440  1.00  0.00     0.005 C 
ENDBRANCH  32  33
ENDBRANCH  31  32
ENDBRANCH  30  31
ENDBRANCH   1  30
TORSDOF 12
ENDMDL
MODEL 4
REMARK VINA RESULT: -6.382896682      3.132      8.853
REMARK  12 active torsions:
REMARK  status: ('A' for Active; 'I' for Inactive)
REMARK    1  A    between atoms: C2_2  and  C3_3 
REMARK    2  A    between atoms: C3_3  and  C4_4 
REMARK    3  A    between atoms: C4_4  and  C5_5 
REMARK    4  A    between atoms: C5_5  and  N1_6 
REMARK    5  A    between atoms: C8_13  and  C9_14 
REMARK    6  A    between atoms: C9_14  and  C10_15 
REMARK    7  A    between atoms: C10_15  and  C11_16 
REMARK    8  A    between atoms: C11_16  and  N3_17 
REMARK    9  A    between atoms: C14_26  and  C15_27 
REMARK   10  A    between atoms: C15_27  and  C16_28 
REMARK   11  A    between atoms: C16_28  and  C17_29 
REMARK   12  A    between atoms: C17_29  and  N7_30 
ROOT
HETATM    1  N1  UNL     1      29.415   9.140  29.326  1.00  0.00    -0.320 N 
HETATM    2  C6  UNL     1      28.065   8.895  28.964  1.00  0.00     0.325 C 
HETATM    3  O1  UNL     1      27.890   7.719  28.494  1.00  0.00    -0.247 OA
HETATM    4  N2  UNL     1      26.815   9.593  28.973  1.00  0.00    -0.277 N 
ATOM      5  H2  UNL     1      26.056   9.076  28.530  1.00  0.00     0.173 HD
HETATM    6  C7  UNL     1      26.414  10.883  29.483  1.00  0.00     0.248 C 
HETATM    7  O2  UNL     1      25.282  11.196  29.034  1.00  0.00    -0.271 OA
HETATM    8  C8  UNL     1      27.039  11.869  30.386  1.00  0.00     0.177 C 
HETATM    9  N6  UNL     1      27.947  11.331  31.344  1.00  0.00    -0.346 N 
ATOM     10  H6  UNL     1      27.820  11.785  32.248  1.00  0.00     0.163 HD
HETATM   11  C13 UNL     1      28.986  10.345  31.423  1.00  0.00     0.241 C 
HETATM   12  O3  UNL     1      29.012   9.910  32.628  1.00  0.00    -0.271 OA
HETATM   13  C14 UNL     1      29.968   9.747  30.518  1.00  0.00     0.181 C 
ENDROOT
BRANCH   8  14
HETATM   14  C9  UNL     1      25.902  12.558  31.141  1.00  0.00     0.036 C 
BRANCH  14  15
HETATM   15  C10 UNL     1      26.364  13.086  32.475  1.00  0.00     0.022 C 
BRANCH  15  16
HETATM   16  C11 UNL     1      25.169  13.318  33.369  1.00  0.00     0.122 C 
BRANCH  16  17
HETATM   17  N3  UNL     1      25.546  13.638  34.721  1.00  0.00    -0.367 N 
HETATM   18  C12 UNL     1      25.200  14.778  35.215  1.00  0.00     0.196 C 
HETATM   19  N4  UNL     1      25.582  15.078  36.557  1.00  0.00    -0.067 NA
HETATM   20  N5  UNL     1      24.460  15.751  34.504  1.00  0.00    -0.067 NA
ATOM     21  H3  UNL     1      26.079  12.973  35.280  1.00  0.00     0.161 HD
ENDBRANCH  16  17
ENDBRANCH  15  16
ENDBRANCH  14  15
ENDBRANCH   8  14
BRANCH  13  22
HETATM   22  C15 UNL     1      31.066  10.720  30.273  1.00  0.00     0.037 C 
BRANCH  22  23
HETATM   23  C16 UNL     1      32.159  10.365  31.303  1.00  0.00     0.022 C 
BRANCH  23  24
HETATM   24  C17 UNL     1      33.076  11.523  31.520  1.00  0.00     0.122 C 
BRANCH  24  25
HETATM   25  N7  UNL     1      32.956  12.078  32.843  1.00  0.00    -0.367 N 
HETATM   26  C18 UNL     1      32.456  13.254  33.009  1.00  0.00     0.196 C 
HETATM   27  N8  UNL     1      32.016  14.019  31.887  1.00  0.00    -0.067 NA
HETATM   28  N9  UNL     1      32.335  13.807  34.303  1.00  0.00    -0.067 NA
ATOM     29  H7  UNL     1      33.268  11.540  33.651  1.00  0.00     0.161 HD
ENDBRANCH  24  25
ENDBRANCH  23  24
ENDBRANCH  22  23
ENDBRANCH  13  22
BRANCH   1  30
HETATM   30  C5  UNL     1      30.341   8.705  28.343  1.00  0.00     0.128 C 
BRANCH  30  31
HETATM   31  C4  UNL     1      31.193   7.538  28.643  1.00  0.00     0.020 C 
BRANCH  31  32
HETATM   32  C3  UNL     1      31.175   6.362  27.754  1.00  0.00     0.001 C 
BRANCH  32  33
HETATM   33  C2  UNL     1      30.973   5.024  28.411  1.00  0.00    -0.004 C 
HETATM   34  C1  UNL     1      32.297   4.287  28.510  1.00  0.00     0.005 C 
ENDBRANCH  32  33
ENDBRANCH  31  32
ENDBRANCH  30  31
ENDBRANCH   1  30
TORSDOF 12
ENDMDL
MODEL 5
REMARK VINA RESULT: -6.381930306      2.867      4.627
REMARK  12 active torsions:
REMARK  status: ('A' for Active; 'I' for Inactive)
REMARK    1  A    between atoms: C2_2  and  C3_3 
REMARK    2  A    between atoms: C3_3  and  C4_4 
REMARK    3  A    between atoms: C4_4  and  C5_5 
REMARK    4  A    between atoms: C5_5  and  N1_6 
REMARK    5  A    between atoms: C8_13  and  C9_14 
REMARK    6  A    between atoms: C9_14  and  C10_15 
REMARK    7  A    between atoms: C10_15  and  C11_16 
REMARK    8  A    between atoms: C11_16  and  N3_17 
REMARK    9  A    between atoms: C14_26  and  C15_27 
REMARK   10  A    between atoms: C15_27  and  C16_28 
REMARK   11  A    between atoms: C16_28  and  C17_29 
REMARK   12  A    between atoms: C17_29  and  N7_30 
ROOT
HETATM    1  N1  UNL     1      32.135  11.995  28.486  1.00  0.00    -0.320 N 
HETATM    2  C6  UNL     1      32.589  10.948  27.642  1.00  0.00     0.325 C 
HETATM    3  O1  UNL     1      33.818  11.082  27.313  1.00  0.00    -0.247 OA
HETATM    4  N2  UNL     1      32.064   9.760  27.040  1.00  0.00    -0.277 N 
ATOM      5  H2  UNL     1      32.717   9.303  26.404  1.00  0.00     0.173 HD
HETATM    6  C7  UNL     1      30.796   9.079  27.153  1.00  0.00     0.248 C 
HETATM    7  O2  UNL     1      30.679   8.221  26.241  1.00  0.00    -0.271 OA
HETATM    8  C8  UNL     1      29.655   9.183  28.083  1.00  0.00     0.177 C 
HETATM    9  N6  UNL     1      29.975   9.642  29.394  1.00  0.00    -0.346 N 
ATOM     10  H6  UNL     1      29.457   9.109  30.093  1.00  0.00     0.163 HD
HETATM   11  C13 UNL     1      30.803  10.625  30.030  1.00  0.00     0.241 C 
HETATM   12  O3  UNL     1      31.113  10.175  31.189  1.00  0.00    -0.271 OA
HETATM   13  C14 UNL     1      31.349  11.943  29.700  1.00  0.00     0.181 C 
ENDROOT
BRANCH   8  14
HETATM   14  C9  UNL     1      29.053   7.783  28.201  1.00  0.00     0.036 C 
BRANCH  14  15
HETATM   15  C10 UNL     1      29.595   7.047  29.400  1.00  0.00     0.022 C 
BRANCH  15  16
HETATM   16  C11 UNL     1      30.042   5.665  28.987  1.00  0.00     0.122 C 
BRANCH  16  17
HETATM   17  N3  UNL     1      31.328   5.671  28.340  1.00  0.00    -0.367 N 
HETATM   18  C12 UNL     1      32.095   4.642  28.460  1.00  0.00     0.196 C 
HETATM   19  N4  UNL     1      33.366   4.667  27.813  1.00  0.00    -0.067 NA
HETATM   20  N5  UNL     1      31.750   3.487  29.198  1.00  0.00    -0.067 NA
ATOM     21  H3  UNL     1      31.628   6.480  27.795  1.00  0.00     0.161 HD
ENDBRANCH  16  17
ENDBRANCH  15  16
ENDBRANCH  14  15
ENDBRANCH   8  14
BRANCH  13  22
HETATM   22  C15 UNL     1      30.268  12.960  29.791  1.00  0.00     0.037 C 
BRANCH  22  23
HETATM   23  C16 UNL     1      30.132  13.274  31.295  1.00  0.00     0.022 C 
BRANCH  23  24
HETATM   24  C17 UNL     1      28.705  13.187  31.726  1.00  0.00     0.122 C 
BRANCH  24  25
HETATM   25  N7  UNL     1      27.897  12.438  30.799  1.00  0.00    -0.367 N 
HETATM   26  C18 UNL     1      27.525  11.239  31.086  1.00  0.00     0.196 C 
HETATM   27  N8  UNL     1      27.907  10.638  32.324  1.00  0.00    -0.067 NA
HETATM   28  N9  UNL     1      26.731  10.497  30.184  1.00  0.00    -0.067 NA
ATOM     29  H7  UNL     1      27.618  12.858  29.912  1.00  0.00     0.161 HD
ENDBRANCH  24  25
ENDBRANCH  23  24
ENDBRANCH  22  23
ENDBRANCH  13  22
BRANCH   1  30
HETATM   30  C5  UNL     1      32.535  13.281  28.039  1.00  0.00     0.128 C 
BRANCH  30  31
HETATM   31  C4  UNL     1      33.352  14.118  28.940  1.00  0.00     0.020 C 
BRANCH  31  32
HETATM   32  C3  UNL     1      34.283  13.487  29.893  1.00  0.00     0.001 C 
BRANCH  32  33
HETATM   33  C2  UNL     1      34.133  13.877  31.338  1.00  0.00    -0.004 C 
HETATM   34  C1  UNL     1      33.825  12.651  32.180  1.00  0.00     0.005 C 
ENDBRANCH  32  33
ENDBRANCH  31  32
ENDBRANCH  30  31
ENDBRANCH   1  30
TORSDOF 12
ENDMDL
