MODEL 1
REMARK VINA RESULT: -6.674632077      0.000      0.000
REMARK  11 active torsions:
REMARK  status: ('A' for Active; 'I' for Inactive)
REMARK    1  A    between atoms: C2_2  and  C3_3 
REMARK    2  A    between atoms: C3_3  and  C4_4 
REMARK    3  A    between atoms: C4_4  and  N1_5 
REMARK    4  A    between atoms: C9_16  and  C10_17 
REMARK    5  A    between atoms: C10_17  and  C11_18 
REMARK    6  A    between atoms: C11_18  and  C12_19 
REMARK    7  A    between atoms: C12_19  and  N4_20 
REMARK    8  A    between atoms: C15_29  and  C16_30 
REMARK    9  A    between atoms: C16_30  and  C17_31 
REMARK   10  A    between atoms: C17_31  and  C18_32 
REMARK   11  A    between atoms: C18_32  and  N8_33 
ROOT
HETATM    1  N1  UNL     1      28.675   9.161  28.826  1.00  0.00    -0.268 N 
HETATM    2  C5  UNL     1      28.485   9.556  30.176  1.00  0.00     0.325 C 
HETATM    3  O1  UNL     1      27.344   9.296  30.695  1.00  0.00    -0.247 OA
HETATM    4  N2  UNL     1      29.429  10.201  30.995  1.00  0.00    -0.342 N 
ATOM      5  H2  UNL     1      29.086  10.934  31.614  1.00  0.00     0.164 HD
HETATM    6  C6  UNL     1      30.849   9.909  31.032  1.00  0.00     0.133 C 
HETATM    7  C7  UNL     1      31.557  10.853  31.956  1.00  0.00     0.122 C 
HETATM    8  C8  UNL     1      32.762  11.475  31.369  1.00  0.00     0.219 C 
HETATM    9  O2  UNL     1      33.746  11.593  32.147  1.00  0.00    -0.274 OA
HETATM   10  N3  UNL     1      32.894  11.932  30.054  1.00  0.00    -0.348 N 
ATOM     11  H3  UNL     1      33.775  11.745  29.575  1.00  0.00     0.163 HD
HETATM   12  C9  UNL     1      31.863  12.657  29.316  1.00  0.00     0.176 C 
HETATM   13  C14 UNL     1      31.788  12.106  27.955  1.00  0.00     0.241 C 
HETATM   14  O3  UNL     1      32.868  11.771  27.390  1.00  0.00    -0.271 OA
HETATM   15  N7  UNL     1      30.586  11.926  27.228  1.00  0.00    -0.346 N 
ATOM     16  H7  UNL     1      30.580  12.124  26.227  1.00  0.00     0.163 HD
HETATM   17  C15 UNL     1      29.347  11.461  27.870  1.00  0.00     0.177 C 
HETATM   18  C20 UNL     1      29.335   9.981  27.852  1.00  0.00     0.250 C 
HETATM   19  O4  UNL     1      29.937   9.390  26.933  1.00  0.00    -0.271 OA
ENDROOT
BRANCH  12  20
HETATM   20  C10 UNL     1      32.204  14.128  29.211  1.00  0.00     0.036 C 
BRANCH  20  21
HETATM   21  C11 UNL     1      33.182  14.610  30.228  1.00  0.00     0.022 C 
BRANCH  21  22
HETATM   22  C12 UNL     1      32.374  15.449  31.229  1.00  0.00     0.122 C 
BRANCH  22  23
HETATM   23  N4  UNL     1      32.503  14.966  32.568  1.00  0.00    -0.367 N 
HETATM   24  C13 UNL     1      31.521  14.388  33.180  1.00  0.00     0.196 C 
HETATM   25  N5  UNL     1      30.272  14.220  32.515  1.00  0.00    -0.067 NA
HETATM   26  N6  UNL     1      31.644  13.909  34.504  1.00  0.00    -0.067 NA
ATOM     27  H4  UNL     1      33.393  15.080  33.053  1.00  0.00     0.161 HD
ENDBRANCH  22  23
ENDBRANCH  21  22
ENDBRANCH  20  21
ENDBRANCH  12  20
BRANCH  17  28
HETATM   28  C16 UNL     1      28.212  11.943  26.990  1.00  0.00     0.036 C 
BRANCH  28  29
HETATM   29  C17 UNL     1      27.332  12.951  27.640  1.00  0.00     0.022 C 
BRANCH  29  30
HETATM   30  C18 UNL     1      26.396  12.181  28.579  1.00  0.00     0.122 C 
BRANCH  30  31
HETATM   31  N8  UNL     1      25.946  10.984  27.916  1.00  0.00    -0.367 N 
HETATM   32  C19 UNL     1      24.962  10.280  28.360  1.00  0.00     0.196 C 
HETATM   33  N9  UNL     1      24.248  10.626  29.534  1.00  0.00    -0.067 NA
HETATM   34  N10 UNL     1      24.559   9.107  27.666  1.00  0.00    -0.067 NA
ATOM     35  H8  UNL     1      26.423  10.683  27.066  1.00  0.00     0.161 HD
ENDBRANCH  30  31
ENDBRANCH  29  30
ENDBRANCH  28  29
ENDBRANCH  17  28
BRANCH   1  36
HETATM   36  C4  UNL     1      28.162   7.850  28.431  1.00  0.00     0.137 C 
BRANCH  36  37
HETATM   37  C3  UNL     1      28.825   6.733  29.166  1.00  0.00     0.020 C 
BRANCH  37  38
HETATM   38  C2  UNL     1      29.863   6.124  28.253  1.00  0.00    -0.003 C 
HETATM   39  C1  UNL     1      30.689   5.076  28.944  1.00  0.00     0.005 C 
ENDBRANCH  37  38
ENDBRANCH  36  37
ENDBRANCH   1  36
TORSDOF 11
ENDMDL
MODEL 2
REMARK VINA RESULT: -6.596920255      3.666      7.360
REMARK  11 active torsions:
REMARK  status: ('A' for Active; 'I' for Inactive)
REMARK    1  A    between atoms: C2_2  and  C3_3 
REMARK    2  A    between atoms: C3_3  and  C4_4 
REMARK    3  A    between atoms: C4_4  and  N1_5 
REMARK    4  A    between atoms: C9_16  and  C10_17 
REMARK    5  A    between atoms: C10_17  and  C11_18 
REMARK    6  A    between atoms: C11_18  and  C12_19 
REMARK    7  A    between atoms: C12_19  and  N4_20 
REMARK    8  A    between atoms: C15_29  and  C16_30 
REMARK    9  A    between atoms: C16_30  and  C17_31 
REMARK   10  A    between atoms: C17_31  and  C18_32 
REMARK   11  A    between atoms: C18_32  and  N8_33 
ROOT
HETATM    1  N1  UNL     1      33.282  12.984  26.947  1.00  0.00    -0.268 N 
HETATM    2  C5  UNL     1      33.957  12.284  27.980  1.00  0.00     0.325 C 
HETATM    3  O1  UNL     1      35.236  12.260  27.917  1.00  0.00    -0.247 OA
HETATM    4  N2  UNL     1      33.358  11.618  29.064  1.00  0.00    -0.342 N 
ATOM      5  H2  UNL     1      33.764  10.727  29.346  1.00  0.00     0.164 HD
HETATM    6  C6  UNL     1      32.211  12.093  29.812  1.00  0.00     0.133 C 
HETATM    7  C7  UNL     1      31.794  11.082  30.837  1.00  0.00     0.122 C 
HETATM    8  C8  UNL     1      30.348  10.779  30.827  1.00  0.00     0.219 C 
HETATM    9  O2  UNL     1      29.815  10.638  31.960  1.00  0.00    -0.274 OA
HETATM   10  N3  UNL     1      29.544  10.642  29.690  1.00  0.00    -0.348 N 
ATOM     11  H3  UNL     1      28.611  11.051  29.719  1.00  0.00     0.163 HD
HETATM   12  C9  UNL     1      29.945   9.954  28.465  1.00  0.00     0.176 C 
HETATM   13  C14 UNL     1      29.529  10.770  27.315  1.00  0.00     0.241 C 
HETATM   14  O3  UNL     1      28.418  11.370  27.383  1.00  0.00    -0.271 OA
HETATM   15  N7  UNL     1      30.287  10.931  26.130  1.00  0.00    -0.346 N 
ATOM     16  H7  UNL     1      29.803  10.954  25.233  1.00  0.00     0.163 HD
HETATM   17  C15 UNL     1      31.753  11.065  26.152  1.00  0.00     0.177 C 
HETATM   18  C20 UNL     1      32.091  12.496  26.315  1.00  0.00     0.250 C 
HETATM   19  O4  UNL     1      31.294  13.352  25.877  1.00  0.00    -0.271 OA
ENDROOT
BRANCH  12  20
HETATM   20  C10 UNL     1      29.269   8.604  28.355  1.00  0.00     0.036 C 
BRANCH  20  21
HETATM   21  C11 UNL     1      30.032   7.594  27.568  1.00  0.00     0.022 C 
BRANCH  21  22
HETATM   22  C12 UNL     1      30.973   6.903  28.566  1.00  0.00     0.122 C 
BRANCH  22  23
HETATM   23  N4  UNL     1      32.121   6.340  27.926  1.00  0.00    -0.367 N 
HETATM   24  C13 UNL     1      32.459   5.104  28.100  1.00  0.00     0.196 C 
HETATM   25  N5  UNL     1      31.677   4.268  28.949  1.00  0.00    -0.067 NA
HETATM   26  N6  UNL     1      33.593   4.543  27.470  1.00  0.00    -0.067 NA
ATOM     27  H4  UNL     1      32.688   6.929  27.316  1.00  0.00     0.161 HD
ENDBRANCH  22  23
ENDBRANCH  21  22
ENDBRANCH  20  21
ENDBRANCH  12  20
BRANCH  17  28
HETATM   28  C16 UNL     1      32.235  10.629  24.784  1.00  0.00     0.036 C 
BRANCH  28  29
HETATM   29  C17 UNL     1      31.144  10.461  23.786  1.00  0.00     0.022 C 
BRANCH  29  30
HETATM   30  C18 UNL     1      31.681  10.992  22.452  1.00  0.00     0.122 C 
BRANCH  30  31
HETATM   31  N8  UNL     1      30.665  11.797  21.824  1.00  0.00    -0.367 N 
HETATM   32  C19 UNL     1      30.688  13.085  21.860  1.00  0.00     0.196 C 
HETATM   33  N9  UNL     1      31.711  13.810  22.522  1.00  0.00    -0.067 NA
HETATM   34  N10 UNL     1      29.660  13.831  21.223  1.00  0.00    -0.067 NA
ATOM     35  H8  UNL     1      29.902  11.332  21.333  1.00  0.00     0.161 HD
ENDBRANCH  30  31
ENDBRANCH  29  30
ENDBRANCH  28  29
ENDBRANCH  17  28
BRANCH   1  36
HETATM   36  C4  UNL     1      33.848  14.263  26.521  1.00  0.00     0.137 C 
BRANCH  36  37
HETATM   37  C3  UNL     1      34.371  14.220  25.124  1.00  0.00     0.020 C 
BRANCH  37  38
HETATM   38  C2  UNL     1      35.880  14.230  25.189  1.00  0.00    -0.003 C 
HETATM   39  C1  UNL     1      36.482  12.937  24.715  1.00  0.00     0.005 C 
ENDBRANCH  37  38
ENDBRANCH  36  37
ENDBRANCH   1  36
TORSDOF 11
ENDMDL
MODEL 3
REMARK VINA RESULT: -6.558941133      3.412      7.382
REMARK  11 active torsions:
REMARK  status: ('A' for Active; 'I' for Inactive)
REMARK    1  A    between atoms: C2_2  and  C3_3 
REMARK    2  A    between atoms: C3_3  and  C4_4 
REMARK    3  A    between atoms: C4_4  and  N1_5 
REMARK    4  A    between atoms: C9_16  and  C10_17 
REMARK    5  A    between atoms: C10_17  and  C11_18 
REMARK    6  A    between atoms: C11_18  and  C12_19 
REMARK    7  A    between atoms: C12_19  and  N4_20 
REMARK    8  A    between atoms: C15_29  and  C16_30 
REMARK    9  A    between atoms: C16_30  and  C17_31 
REMARK   10  A    between atoms: C17_31  and  C18_32 
REMARK   11  A    between atoms: C18_32  and  N8_33 
ROOT
HETATM    1  N1  UNL     1      33.299  13.041  26.927  1.00  0.00    -0.268 N 
HETATM    2  C5  UNL     1      33.969  12.312  27.943  1.00  0.00     0.325 C 
HETATM    3  O1  UNL     1      35.248  12.271  27.873  1.00  0.00    -0.247 OA
HETATM    4  N2  UNL     1      33.366  11.635  29.017  1.00  0.00    -0.342 N 
ATOM      5  H2  UNL     1      33.760  10.733  29.281  1.00  0.00     0.164 HD
HETATM    6  C6  UNL     1      32.229  12.112  29.780  1.00  0.00     0.133 C 
HETATM    7  C7  UNL     1      31.802  11.088  30.789  1.00  0.00     0.122 C 
HETATM    8  C8  UNL     1      30.352  10.807  30.780  1.00  0.00     0.219 C 
HETATM    9  O2  UNL     1      29.823  10.652  31.913  1.00  0.00    -0.274 OA
HETATM   10  N3  UNL     1      29.541  10.702  29.645  1.00  0.00    -0.348 N 
ATOM     11  H3  UNL     1      28.614  11.124  29.686  1.00  0.00     0.163 HD
HETATM   12  C9  UNL     1      29.926  10.032  28.405  1.00  0.00     0.176 C 
HETATM   13  C14 UNL     1      29.516  10.875  27.273  1.00  0.00     0.241 C 
HETATM   14  O3  UNL     1      28.415  11.489  27.357  1.00  0.00    -0.271 OA
HETATM   15  N7  UNL     1      30.271  11.047  26.087  1.00  0.00    -0.346 N 
ATOM     16  H7  UNL     1      29.783  11.094  25.193  1.00  0.00     0.163 HD
HETATM   17  C15 UNL     1      31.739  11.159  26.104  1.00  0.00     0.177 C 
HETATM   18  C20 UNL     1      32.098  12.582  26.292  1.00  0.00     0.250 C 
HETATM   19  O4  UNL     1      31.312  13.457  25.874  1.00  0.00    -0.271 OA
ENDROOT
BRANCH  12  20
HETATM   20  C10 UNL     1      29.230   8.694  28.274  1.00  0.00     0.036 C 
BRANCH  20  21
HETATM   21  C11 UNL     1      30.026   7.651  27.565  1.00  0.00     0.022 C 
BRANCH  21  22
HETATM   22  C12 UNL     1      31.031   7.114  28.593  1.00  0.00     0.122 C 
BRANCH  22  23
HETATM   23  N4  UNL     1      32.168   6.508  27.973  1.00  0.00    -0.367 N 
HETATM   24  C13 UNL     1      32.422   5.246  28.102  1.00  0.00     0.196 C 
HETATM   25  N5  UNL     1      31.554   4.425  28.878  1.00  0.00    -0.067 NA
HETATM   26  N6  UNL     1      33.544   4.644  27.491  1.00  0.00    -0.067 NA
ATOM     27  H4  UNL     1      32.796   7.087  27.415  1.00  0.00     0.161 HD
ENDBRANCH  22  23
ENDBRANCH  21  22
ENDBRANCH  20  21
ENDBRANCH  12  20
BRANCH  17  28
HETATM   28  C16 UNL     1      32.208  10.742  24.726  1.00  0.00     0.036 C 
BRANCH  28  29
HETATM   29  C17 UNL     1      31.100  10.446  23.777  1.00  0.00     0.022 C 
BRANCH  29  30
HETATM   30  C18 UNL     1      31.576  10.895  22.390  1.00  0.00     0.122 C 
BRANCH  30  31
HETATM   31  N8  UNL     1      30.582  11.761  21.810  1.00  0.00    -0.367 N 
HETATM   32  C19 UNL     1      30.662  13.046  21.882  1.00  0.00     0.196 C 
HETATM   33  N9  UNL     1      31.731  13.706  22.538  1.00  0.00    -0.067 NA
HETATM   34  N10 UNL     1      29.653  13.853  21.292  1.00  0.00    -0.067 NA
ATOM     35  H8  UNL     1      29.788  11.344  21.326  1.00  0.00     0.161 HD
ENDBRANCH  30  31
ENDBRANCH  29  30
ENDBRANCH  28  29
ENDBRANCH  17  28
BRANCH   1  36
HETATM   36  C4  UNL     1      33.882  14.320  26.522  1.00  0.00     0.137 C 
BRANCH  36  37
HETATM   37  C3  UNL     1      33.703  15.382  27.554  1.00  0.00     0.020 C 
BRANCH  37  38
HETATM   38  C2  UNL     1      35.072  15.870  27.965  1.00  0.00    -0.003 C 
HETATM   39  C1  UNL     1      35.413  15.496  29.381  1.00  0.00     0.005 C 
ENDBRANCH  37  38
ENDBRANCH  36  37
ENDBRANCH   1  36
TORSDOF 11
ENDMDL
MODEL 4
REMARK VINA RESULT: -6.552946392      3.512      6.862
REMARK  11 active torsions:
REMARK  status: ('A' for Active; 'I' for Inactive)
REMARK    1  A    between atoms: C2_2  and  C3_3 
REMARK    2  A    between atoms: C3_3  and  C4_4 
REMARK    3  A    between atoms: C4_4  and  N1_5 
REMARK    4  A    between atoms: C9_16  and  C10_17 
REMARK    5  A    between atoms: C10_17  and  C11_18 
REMARK    6  A    between atoms: C11_18  and  C12_19 
REMARK    7  A    between atoms: C12_19  and  N4_20 
REMARK    8  A    between atoms: C15_29  and  C16_30 
REMARK    9  A    between atoms: C16_30  and  C17_31 
REMARK   10  A    between atoms: C17_31  and  C18_32 
REMARK   11  A    between atoms: C18_32  and  N8_33 
ROOT
HETATM    1  N1  UNL     1      29.101   9.791  29.148  1.00  0.00    -0.268 N 
HETATM    2  C5  UNL     1      28.156  10.325  28.234  1.00  0.00     0.325 C 
HETATM    3  O1  UNL     1      26.951   9.903  28.342  1.00  0.00    -0.247 OA
HETATM    4  N2  UNL     1      28.415  11.269  27.225  1.00  0.00    -0.342 N 
ATOM      5  H2  UNL     1      27.946  11.137  26.329  1.00  0.00     0.164 HD
HETATM    6  C6  UNL     1      29.292  12.417  27.353  1.00  0.00     0.133 C 
HETATM    7  C7  UNL     1      29.395  13.151  26.050  1.00  0.00     0.122 C 
HETATM    8  C8  UNL     1      30.782  13.450  25.639  1.00  0.00     0.219 C 
HETATM    9  O2  UNL     1      30.961  14.584  25.120  1.00  0.00    -0.274 OA
HETATM   10  N3  UNL     1      31.882  12.598  25.776  1.00  0.00    -0.348 N 
ATOM     11  H3  UNL     1      32.765  13.012  26.074  1.00  0.00     0.163 HD
HETATM   12  C9  UNL     1      31.859  11.160  25.522  1.00  0.00     0.176 C 
HETATM   13  C14 UNL     1      32.590  10.483  26.603  1.00  0.00     0.241 C 
HETATM   14  O3  UNL     1      33.631  11.040  27.056  1.00  0.00    -0.271 OA
HETATM   15  N7  UNL     1      32.210   9.245  27.176  1.00  0.00    -0.346 N 
ATOM     16  H7  UNL     1      32.935   8.572  27.423  1.00  0.00     0.163 HD
HETATM   17  C15 UNL     1      30.802   8.899  27.425  1.00  0.00     0.177 C 
HETATM   18  C20 UNL     1      30.427   9.397  28.767  1.00  0.00     0.250 C 
HETATM   19  O4  UNL     1      31.314   9.486  29.641  1.00  0.00    -0.271 OA
ENDROOT
BRANCH  12  20
HETATM   20  C10 UNL     1      32.542  10.829  24.212  1.00  0.00     0.036 C 
BRANCH  20  21
HETATM   21  C11 UNL     1      33.315  11.956  23.616  1.00  0.00     0.022 C 
BRANCH  21  22
HETATM   22  C12 UNL     1      32.745  12.160  22.205  1.00  0.00     0.122 C 
BRANCH  22  23
HETATM   23  N4  UNL     1      31.785  13.218  22.158  1.00  0.00    -0.367 N 
HETATM   24  C13 UNL     1      30.525  12.986  21.973  1.00  0.00     0.196 C 
HETATM   25  N5  UNL     1      30.068  11.646  21.813  1.00  0.00    -0.067 NA
HETATM   26  N6  UNL     1      29.573  14.028  21.925  1.00  0.00    -0.067 NA
ATOM     27  H4  UNL     1      32.101  14.181  22.272  1.00  0.00     0.161 HD
ENDBRANCH  22  23
ENDBRANCH  21  22
ENDBRANCH  20  21
ENDBRANCH  12  20
BRANCH  17  28
HETATM   28  C16 UNL     1      30.742   7.386  27.460  1.00  0.00     0.036 C 
BRANCH  28  29
HETATM   29  C17 UNL     1      29.543   6.847  28.157  1.00  0.00     0.022 C 
BRANCH  29  30
HETATM   30  C18 UNL     1      29.724   5.326  28.235  1.00  0.00     0.122 C 
BRANCH  30  31
HETATM   31  N8  UNL     1      31.042   4.985  27.761  1.00  0.00    -0.367 N 
HETATM   32  C19 UNL     1      31.835   4.217  28.427  1.00  0.00     0.196 C 
HETATM   33  N9  UNL     1      31.474   3.650  29.675  1.00  0.00    -0.067 NA
HETATM   34  N10 UNL     1      33.124   3.914  27.913  1.00  0.00    -0.067 NA
ATOM     35  H8  UNL     1      31.358   5.365  26.869  1.00  0.00     0.161 HD
ENDBRANCH  30  31
ENDBRANCH  29  30
ENDBRANCH  28  29
ENDBRANCH  17  28
BRANCH   1  36
HETATM   36  C4  UNL     1      28.680   9.643  30.540  1.00  0.00     0.137 C 
BRANCH  36  37
HETATM   37  C3  UNL     1      28.703  10.936  31.284  1.00  0.00     0.020 C 
BRANCH  37  38
HETATM   38  C2  UNL     1      27.313  11.196  31.814  1.00  0.00    -0.003 C 
HETATM   39  C1  UNL     1      26.599  12.273  31.047  1.00  0.00     0.005 C 
ENDBRANCH  37  38
ENDBRANCH  36  37
ENDBRANCH   1  36
TORSDOF 11
ENDMDL
MODEL 5
REMARK VINA RESULT: -6.546332669      2.937      6.451
REMARK  11 active torsions:
REMARK  status: ('A' for Active; 'I' for Inactive)
REMARK    1  A    between atoms: C2_2  and  C3_3 
REMARK    2  A    between atoms: C3_3  and  C4_4 
REMARK    3  A    between atoms: C4_4  and  N1_5 
REMARK    4  A    between atoms: C9_16  and  C10_17 
REMARK    5  A    between atoms: C10_17  and  C11_18 
REMARK    6  A    between atoms: C11_18  and  C12_19 
REMARK    7  A    between atoms: C12_19  and  N4_20 
REMARK    8  A    between atoms: C15_29  and  C16_30 
REMARK    9  A    between atoms: C16_30  and  C17_31 
REMARK   10  A    between atoms: C17_31  and  C18_32 
REMARK   11  A    between atoms: C18_32  and  N8_33 
ROOT
HETATM    1  N1  UNL     1      33.753  12.873  25.875  1.00  0.00    -0.268 N 
HETATM    2  C5  UNL     1      34.833  12.870  26.796  1.00  0.00     0.325 C 
HETATM    3  O1  UNL     1      35.982  12.546  26.332  1.00  0.00    -0.247 OA
HETATM    4  N2  UNL     1      34.762  13.189  28.163  1.00  0.00    -0.342 N 
ATOM      5  H2  UNL     1      35.316  12.623  28.805  1.00  0.00     0.164 HD
HETATM    6  C6  UNL     1      33.966  14.258  28.737  1.00  0.00     0.133 C 
HETATM    7  C7  UNL     1      34.067  14.245  30.233  1.00  0.00     0.122 C 
HETATM    8  C8  UNL     1      32.762  14.315  30.921  1.00  0.00     0.219 C 
HETATM    9  O2  UNL     1      32.729  15.041  31.950  1.00  0.00    -0.274 OA
HETATM   10  N3  UNL     1      31.590  13.656  30.533  1.00  0.00    -0.348 N 
ATOM     11  H3  UNL     1      30.714  14.173  30.600  1.00  0.00     0.163 HD
HETATM   12  C9  UNL     1      31.531  12.283  30.039  1.00  0.00     0.176 C 
HETATM   13  C14 UNL     1      30.634  12.243  28.875  1.00  0.00     0.241 C 
HETATM   14  O3  UNL     1      29.595  12.963  28.901  1.00  0.00    -0.271 OA
HETATM   15  N7  UNL     1      30.851  11.451  27.722  1.00  0.00    -0.346 N 
ATOM     16  H7  UNL     1      30.054  10.998  27.276  1.00  0.00     0.163 HD
HETATM   17  C15 UNL     1      32.192  11.260  27.146  1.00  0.00     0.177 C 
HETATM   18  C20 UNL     1      32.452  12.357  26.187  1.00  0.00     0.250 C 
HETATM   19  O4  UNL     1      31.482  12.879  25.601  1.00  0.00    -0.271 OA
ENDROOT
BRANCH  12  20
HETATM   20  C10 UNL     1      30.976  11.350  31.095  1.00  0.00     0.036 C 
BRANCH  20  21
HETATM   21  C11 UNL     1      30.741   9.955  30.625  1.00  0.00     0.022 C 
BRANCH  21  22
HETATM   22  C12 UNL     1      29.263   9.655  30.912  1.00  0.00     0.122 C 
BRANCH  22  23
HETATM   23  N4  UNL     1      28.803   8.492  30.220  1.00  0.00    -0.367 N 
HETATM   24  C13 UNL     1      28.170   8.575  29.095  1.00  0.00     0.196 C 
HETATM   25  N5  UNL     1      27.917   9.853  28.517  1.00  0.00    -0.067 NA
HETATM   26  N6  UNL     1      27.713   7.428  28.408  1.00  0.00    -0.067 NA
ATOM     27  H4  UNL     1      28.979   7.572  30.624  1.00  0.00     0.161 HD
ENDBRANCH  22  23
ENDBRANCH  21  22
ENDBRANCH  20  21
ENDBRANCH  12  20
BRANCH  17  28
HETATM   28  C16 UNL     1      32.132   9.965  26.363  1.00  0.00     0.036 C 
BRANCH  28  29
HETATM   29  C17 UNL     1      30.990   9.087  26.737  1.00  0.00     0.022 C 
BRANCH  29  30
HETATM   30  C18 UNL     1      31.583   7.892  27.493  1.00  0.00     0.122 C 
BRANCH  30  31
HETATM   31  N8  UNL     1      30.627   6.814  27.490  1.00  0.00    -0.367 N 
HETATM   32  C19 UNL     1      30.897   5.653  27.982  1.00  0.00     0.196 C 
HETATM   33  N9  UNL     1      32.154   5.346  28.560  1.00  0.00    -0.067 NA
HETATM   34  N10 UNL     1      29.917   4.626  27.953  1.00  0.00    -0.067 NA
ATOM     35  H8  UNL     1      29.705   6.975  27.086  1.00  0.00     0.161 HD
ENDBRANCH  30  31
ENDBRANCH  29  30
ENDBRANCH  28  29
ENDBRANCH  17  28
BRANCH   1  36
HETATM   36  C4  UNL     1      34.003  13.435  24.548  1.00  0.00     0.137 C 
BRANCH  36  37
HETATM   37  C3  UNL     1      34.251  12.382  23.520  1.00  0.00     0.020 C 
BRANCH  37  38
HETATM   38  C2  UNL     1      33.135  12.449  22.504  1.00  0.00    -0.003 C 
HETATM   39  C1  UNL     1      32.236  11.246  22.559  1.00  0.00     0.005 C 
ENDBRANCH  37  38
ENDBRANCH  36  37
ENDBRANCH   1  36
TORSDOF 11
ENDMDL
