MODEL 1
REMARK VINA RESULT: -7.090006892      0.000      0.000
REMARK  6 active torsions:
REMARK  status: ('A' for Active; 'I' for Inactive)
REMARK    1  A    between atoms: C2_2  and  O1_3 
REMARK    2  A    between atoms: C2_2  and  O2_5 
REMARK    3  A    between atoms: O2_5  and  C3_6 
REMARK    4  A    between atoms: C6_11  and  N2_12 
REMARK    5  A    between atoms: C6_11  and  C7_16 
REMARK    6  A    between atoms: N4_19  and  O3_20 
ROOT
HETATM    1  C7  UNL     1      29.529  24.148  90.344  1.00  0.00     0.187 C 
HETATM    2  C8  UNL     1      28.873  25.002  91.331  1.00  0.00     0.063 C 
HETATM    3  N3  UNL     1      28.336  25.670  92.106  1.00  0.00    -0.197 NA
ENDROOT
BRANCH   1   4
HETATM    4  C6  UNL     1      29.211  24.529  88.939  1.00  0.00     0.234 C 
HETATM    5  C5  UNL     1      29.401  23.351  87.964  1.00  0.00     0.096 C 
HETATM    6  C4  UNL     1      30.895  23.344  87.907  1.00  0.00     0.136 C 
HETATM    7  N1  UNL     1      31.476  22.920  86.700  1.00  0.00    -0.364 N 
HETATM    8  C9  UNL     1      31.209  24.799  87.914  1.00  0.00     0.046 C 
HETATM    9  C3  UNL     1      32.376  23.702  86.276  1.00  0.00     0.122 C 
ATOM     10  H1  UNL     1      31.199  22.067  86.213  1.00  0.00     0.162 HD
HETATM   11  C10 UNL     1      32.531  24.840  87.211  1.00  0.00     0.141 C 
HETATM   12  N4  UNL     1      30.279  25.433  88.482  1.00  0.00    -0.228 N 
BRANCH   9  13
HETATM   13  O2  UNL     1      33.142  23.531  85.076  1.00  0.00    -0.309 OA
BRANCH  13  14
HETATM   14  C2  UNL     1      34.144  22.534  85.118  1.00  0.00     0.260 C 
HETATM   15  C1  UNL     1      35.517  23.113  84.789  1.00  0.00     0.071 C 
BRANCH  14  16
HETATM   16  O1  UNL     1      33.796  21.574  84.161  1.00  0.00    -0.371 OA
ATOM     17  H1  UNL     1      32.946  21.783  83.792  1.00  0.00     0.212 HD
ENDBRANCH  14  16
ENDBRANCH  13  14
ENDBRANCH   9  13
BRANCH  12  18
HETATM   18  O3  UNL     1      30.262  26.805  88.656  1.00  0.00    -0.285 OA
ATOM     19  H3  UNL     1      30.564  27.247  89.441  1.00  0.00     0.245 HD
ENDBRANCH  12  18
BRANCH   4  20
HETATM   20  N2  UNL     1      27.970  25.199  88.748  1.00  0.00    -0.049 N 
ATOM     21  H23 UNL     1      27.185  24.579  88.943  1.00  0.00     0.277 HD
ATOM     22  H22 UNL     1      27.814  25.896  89.477  1.00  0.00     0.277 HD
ATOM     23  H21 UNL     1      27.888  25.614  87.820  1.00  0.00     0.277 HD
ENDBRANCH   4  20
ENDBRANCH   1   4
TORSDOF 6
ENDMDL
MODEL 2
REMARK VINA RESULT: -7.047364830      1.632      1.785
REMARK  6 active torsions:
REMARK  status: ('A' for Active; 'I' for Inactive)
REMARK    1  A    between atoms: C2_2  and  O1_3 
REMARK    2  A    between atoms: C2_2  and  O2_5 
REMARK    3  A    between atoms: O2_5  and  C3_6 
REMARK    4  A    between atoms: C6_11  and  N2_12 
REMARK    5  A    between atoms: C6_11  and  C7_16 
REMARK    6  A    between atoms: N4_19  and  O3_20 
ROOT
HETATM    1  C7  UNL     1      29.402  25.558  89.386  1.00  0.00     0.187 C 
HETATM    2  C8  UNL     1      29.241  27.008  89.313  1.00  0.00     0.063 C 
HETATM    3  N3  UNL     1      29.095  28.153  89.248  1.00  0.00    -0.197 NA
ENDROOT
BRANCH   1   4
HETATM    4  C6  UNL     1      29.372  24.898  88.050  1.00  0.00     0.234 C 
HETATM    5  C5  UNL     1      29.910  23.456  88.106  1.00  0.00     0.096 C 
HETATM    6  C4  UNL     1      31.369  23.764  88.218  1.00  0.00     0.136 C 
HETATM    7  N1  UNL     1      32.253  22.833  87.647  1.00  0.00    -0.364 N 
HETATM    8  C9  UNL     1      31.507  24.932  87.306  1.00  0.00     0.046 C 
HETATM    9  C3  UNL     1      33.133  23.367  86.909  1.00  0.00     0.122 C 
ATOM     10  H1  UNL     1      32.192  21.828  87.810  1.00  0.00     0.162 HD
HETATM   11  C10 UNL     1      32.941  24.835  86.884  1.00  0.00     0.141 C 
HETATM   12  N4  UNL     1      30.407  25.542  87.225  1.00  0.00    -0.228 N 
BRANCH   9  13
HETATM   13  O2  UNL     1      34.165  22.673  86.196  1.00  0.00    -0.309 OA
BRANCH  13  14
HETATM   14  C2  UNL     1      34.219  22.906  84.802  1.00  0.00     0.260 C 
HETATM   15  C1  UNL     1      33.322  21.933  84.042  1.00  0.00     0.071 C 
BRANCH  14  16
HETATM   16  O1  UNL     1      35.552  22.719  84.415  1.00  0.00    -0.371 OA
ATOM     17  H1  UNL     1      35.602  22.032  83.761  1.00  0.00     0.212 HD
ENDBRANCH  14  16
ENDBRANCH  13  14
ENDBRANCH   9  13
BRANCH  12  18
HETATM   18  O3  UNL     1      30.196  26.675  86.459  1.00  0.00    -0.285 OA
ATOM     19  H3  UNL     1      29.681  26.691  85.661  1.00  0.00     0.245 HD
ENDBRANCH  12  18
BRANCH   4  20
HETATM   20  N2  UNL     1      28.139  24.993  87.345  1.00  0.00    -0.049 N 
ATOM     21  H23 UNL     1      28.295  25.209  86.361  1.00  0.00     0.277 HD
ATOM     22  H22 UNL     1      27.702  24.077  87.245  1.00  0.00     0.277 HD
ATOM     23  H21 UNL     1      27.496  25.662  87.769  1.00  0.00     0.277 HD
ENDBRANCH   4  20
ENDBRANCH   1   4
TORSDOF 6
ENDMDL
MODEL 3
REMARK VINA RESULT: -6.998692787      1.559      1.855
REMARK  6 active torsions:
REMARK  status: ('A' for Active; 'I' for Inactive)
REMARK    1  A    between atoms: C2_2  and  O1_3 
REMARK    2  A    between atoms: C2_2  and  O2_5 
REMARK    3  A    between atoms: O2_5  and  C3_6 
REMARK    4  A    between atoms: C6_11  and  N2_12 
REMARK    5  A    between atoms: C6_11  and  C7_16 
REMARK    6  A    between atoms: N4_19  and  O3_20 
ROOT
HETATM    1  C7  UNL     1      29.068  24.185  88.389  1.00  0.00     0.187 C 
HETATM    2  C8  UNL     1      28.718  24.630  89.734  1.00  0.00     0.063 C 
HETATM    3  N3  UNL     1      28.432  25.000  90.792  1.00  0.00    -0.197 NA
ENDROOT
BRANCH   1   4
HETATM    4  C6  UNL     1      30.060  25.073  87.718  1.00  0.00     0.234 C 
HETATM    5  C5  UNL     1      30.249  24.711  86.233  1.00  0.00     0.096 C 
HETATM    6  C4  UNL     1      31.073  23.475  86.406  1.00  0.00     0.136 C 
HETATM    7  N1  UNL     1      32.002  23.193  85.391  1.00  0.00    -0.364 N 
HETATM    8  C9  UNL     1      31.955  23.851  87.545  1.00  0.00     0.046 C 
HETATM    9  C3  UNL     1      33.158  22.920  85.832  1.00  0.00     0.122 C 
ATOM     10  H1  UNL     1      31.770  23.206  84.398  1.00  0.00     0.162 HD
HETATM   11  C10 UNL     1      33.157  22.989  87.312  1.00  0.00     0.141 C 
HETATM   12  N4  UNL     1      31.386  24.725  88.254  1.00  0.00    -0.228 N 
BRANCH   9  13
HETATM   13  O2  UNL     1      34.305  22.592  85.037  1.00  0.00    -0.309 OA
BRANCH  13  14
HETATM   14  C2  UNL     1      35.521  23.201  85.425  1.00  0.00     0.260 C 
HETATM   15  C1  UNL     1      35.343  24.698  85.659  1.00  0.00     0.071 C 
BRANCH  14  16
HETATM   16  O1  UNL     1      36.426  22.992  84.377  1.00  0.00    -0.371 OA
ATOM     17  H1  UNL     1      36.181  22.212  83.893  1.00  0.00     0.212 HD
ENDBRANCH  14  16
ENDBRANCH  13  14
ENDBRANCH   9  13
BRANCH  12  18
HETATM   18  O3  UNL     1      31.936  25.287  89.391  1.00  0.00    -0.285 OA
ATOM     19  H3  UNL     1      31.489  25.346  90.227  1.00  0.00     0.245 HD
ENDBRANCH  12  18
BRANCH   4  20
HETATM   20  N2  UNL     1      29.869  26.470  87.918  1.00  0.00    -0.049 N 
ATOM     21  H23 UNL     1      28.952  26.766  87.586  1.00  0.00     0.277 HD
ATOM     22  H22 UNL     1      29.764  26.688  88.909  1.00  0.00     0.277 HD
ATOM     23  H21 UNL     1      30.610  27.030  87.496  1.00  0.00     0.277 HD
ENDBRANCH   4  20
ENDBRANCH   1   4
TORSDOF 6
ENDMDL
MODEL 4
REMARK VINA RESULT: -6.938249850      2.070      2.529
REMARK  6 active torsions:
REMARK  status: ('A' for Active; 'I' for Inactive)
REMARK    1  A    between atoms: C2_2  and  O1_3 
REMARK    2  A    between atoms: C2_2  and  O2_5 
REMARK    3  A    between atoms: O2_5  and  C3_6 
REMARK    4  A    between atoms: C6_11  and  N2_12 
REMARK    5  A    between atoms: C6_11  and  C7_16 
REMARK    6  A    between atoms: N4_19  and  O3_20 
ROOT
HETATM    1  C7  UNL     1      29.239  26.037  88.973  1.00  0.00     0.187 C 
HETATM    2  C8  UNL     1      29.127  27.466  89.253  1.00  0.00     0.063 C 
HETATM    3  N3  UNL     1      29.057  28.600  89.465  1.00  0.00    -0.197 NA
ENDROOT
BRANCH   1   4
HETATM    4  C6  UNL     1      30.422  25.404  89.623  1.00  0.00     0.234 C 
HETATM    5  C5  UNL     1      31.749  25.932  89.046  1.00  0.00     0.096 C 
HETATM    6  C4  UNL     1      31.736  25.198  87.744  1.00  0.00     0.136 C 
HETATM    7  N1  UNL     1      32.988  24.849  87.207  1.00  0.00    -0.364 N 
HETATM    8  C9  UNL     1      31.185  23.874  88.142  1.00  0.00     0.046 C 
HETATM    9  C3  UNL     1      33.055  23.639  86.841  1.00  0.00     0.122 C 
ATOM     10  H1  UNL     1      33.764  25.505  87.121  1.00  0.00     0.162 HD
HETATM   11  C10 UNL     1      31.763  22.965  87.102  1.00  0.00     0.141 C 
HETATM   12  N4  UNL     1      30.467  24.004  89.171  1.00  0.00    -0.228 N 
BRANCH   9  13
HETATM   13  O2  UNL     1      34.198  23.000  86.258  1.00  0.00    -0.309 OA
BRANCH  13  14
HETATM   14  C2  UNL     1      34.284  23.049  84.847  1.00  0.00     0.260 C 
HETATM   15  C1  UNL     1      33.440  21.956  84.201  1.00  0.00     0.071 C 
BRANCH  14  16
HETATM   16  O1  UNL     1      35.632  22.860  84.520  1.00  0.00    -0.371 OA
ATOM     17  H1  UNL     1      36.177  23.081  85.267  1.00  0.00     0.212 HD
ENDBRANCH  14  16
ENDBRANCH  13  14
ENDBRANCH   9  13
BRANCH  12  18
HETATM   18  O3  UNL     1      29.805  22.964  89.798  1.00  0.00    -0.285 OA
ATOM     19  H3  UNL     1      30.184  22.424  90.481  1.00  0.00     0.245 HD
ENDBRANCH  12  18
BRANCH   4  20
HETATM   20  N2  UNL     1      30.411  25.397  91.046  1.00  0.00    -0.049 N 
ATOM     21  H23 UNL     1      30.800  24.528  91.412  1.00  0.00     0.277 HD
ATOM     22  H22 UNL     1      31.094  26.054  91.422  1.00  0.00     0.277 HD
ATOM     23  H21 UNL     1      29.483  25.573  91.431  1.00  0.00     0.277 HD
ENDBRANCH   4  20
ENDBRANCH   1   4
TORSDOF 6
ENDMDL
MODEL 5
REMARK VINA RESULT: -6.844208673      1.557      1.732
REMARK  6 active torsions:
REMARK  status: ('A' for Active; 'I' for Inactive)
REMARK    1  A    between atoms: C2_2  and  O1_3 
REMARK    2  A    between atoms: C2_2  and  O2_5 
REMARK    3  A    between atoms: O2_5  and  C3_6 
REMARK    4  A    between atoms: C6_11  and  N2_12 
REMARK    5  A    between atoms: C6_11  and  C7_16 
REMARK    6  A    between atoms: N4_19  and  O3_20 
ROOT
HETATM    1  C7  UNL     1      29.431  24.156  89.425  1.00  0.00     0.187 C 
HETATM    2  C8  UNL     1      28.258  23.287  89.422  1.00  0.00     0.063 C 
HETATM    3  N3  UNL     1      27.338  22.588  89.404  1.00  0.00    -0.197 NA
ENDROOT
BRANCH   1   4
HETATM    4  C6  UNL     1      29.611  24.902  88.147  1.00  0.00     0.234 C 
HETATM    5  C5  UNL     1      29.778  23.955  86.944  1.00  0.00     0.096 C 
HETATM    6  C4  UNL     1      31.185  23.516  87.196  1.00  0.00     0.136 C 
HETATM    7  N1  UNL     1      31.958  23.204  86.064  1.00  0.00    -0.364 N 
HETATM    8  C9  UNL     1      31.818  24.776  87.672  1.00  0.00     0.046 C 
HETATM    9  C3  UNL     1      33.098  23.755  86.070  1.00  0.00     0.122 C 
ATOM     10  H1  UNL     1      31.633  22.595  85.313  1.00  0.00     0.162 HD
HETATM   11  C10 UNL     1      33.254  24.570  87.297  1.00  0.00     0.141 C 
HETATM   12  N4  UNL     1      30.945  25.523  88.190  1.00  0.00    -0.228 N 
BRANCH   9  13
HETATM   13  O2  UNL     1      34.101  23.621  85.054  1.00  0.00    -0.309 OA
BRANCH  13  14
HETATM   14  C2  UNL     1      35.442  23.623  85.503  1.00  0.00     0.260 C 
HETATM   15  C1  UNL     1      35.943  25.042  85.750  1.00  0.00     0.071 C 
BRANCH  14  16
HETATM   16  O1  UNL     1      36.204  23.022  84.494  1.00  0.00    -0.371 OA
ATOM     17  H1  UNL     1      35.733  22.279  84.137  1.00  0.00     0.212 HD
ENDBRANCH  14  16
ENDBRANCH  13  14
ENDBRANCH   9  13
BRANCH  12  18
HETATM   18  O3  UNL     1      31.204  26.769  88.733  1.00  0.00    -0.285 OA
ATOM     19  H3  UNL     1      31.515  26.911  89.619  1.00  0.00     0.245 HD
ENDBRANCH  12  18
BRANCH   4  20
HETATM   20  N2  UNL     1      28.663  25.935  87.900  1.00  0.00    -0.049 N 
ATOM     21  H23 UNL     1      28.967  26.536  87.134  1.00  0.00     0.277 HD
ATOM     22  H22 UNL     1      27.810  25.560  87.485  1.00  0.00     0.277 HD
ATOM     23  H21 UNL     1      28.456  26.483  88.735  1.00  0.00     0.277 HD
ENDBRANCH   4  20
ENDBRANCH   1   4
TORSDOF 6
ENDMDL
