MODEL 1
REMARK VINA RESULT: -6.143109784      0.000      0.000
REMARK  2 active torsions:
REMARK  status: ('A' for Active; 'I' for Inactive)
REMARK    1  A    between atoms: N1_1  and  C1_5 
REMARK    2  A    between atoms: C1_5  and  C2_6 
ROOT
HETATM    1  C1  UNL     1      -0.467  10.751   9.544  1.00  0.00     0.333 C 
HETATM    2  N2  UNL     1      -1.923  10.659   9.770  1.00  0.00    -0.296 N 
ATOM      3  H2  UNL     1      -2.435  10.748  10.648  1.00  0.00     0.167 HD
HETATM    4  C3  UNL     1      -2.471  10.402   8.390  1.00  0.00     0.325 C 
HETATM    5  O2  UNL     1      -3.615  10.003   8.169  1.00  0.00    -0.247 OA
HETATM    6  N3  UNL     1      -1.483  10.685   7.442  1.00  0.00    -0.275 N 
ATOM      7  H3  UNL     1      -1.571  10.592   6.431  1.00  0.00     0.173 HD
HETATM    8  C4  UNL     1      -0.297  11.139   8.172  1.00  0.00     0.290 C 
HETATM    9  O3  UNL     1       0.614  11.760   7.604  1.00  0.00    -0.268 OA
ENDROOT
BRANCH   1  10
HETATM   10  N1  UNL     1      -0.086  11.878  10.444  1.00  0.00    -0.036 N 
ATOM     11  H13 UNL     1      -0.653  11.914  11.291  1.00  0.00     0.278 HD
ATOM     12  H12 UNL     1       0.820  11.735  10.891  1.00  0.00     0.278 HD
ATOM     13  H11 UNL     1      -0.128  12.742   9.904  1.00  0.00     0.278 HD
ENDBRANCH   1  10
BRANCH   1  14
HETATM   14  C2  UNL     1       0.124   9.541  10.065  1.00  0.00     0.302 C 
HETATM   15  O1  UNL     1       0.314   8.507   9.342  1.00  0.00    -0.302 OA
ENDBRANCH   1  14
TORSDOF 2
ENDMDL
MODEL 2
REMARK VINA RESULT: -5.802536035      1.844      3.056
REMARK  2 active torsions:
REMARK  status: ('A' for Active; 'I' for Inactive)
REMARK    1  A    between atoms: N1_1  and  C1_5 
REMARK    2  A    between atoms: C1_5  and  C2_6 
ROOT
HETATM    1  C1  UNL     1      -1.104   9.662   9.700  1.00  0.00     0.333 C 
HETATM    2  N2  UNL     1       0.287  10.151   9.765  1.00  0.00    -0.296 N 
ATOM      3  H2  UNL     1       1.135   9.624   9.972  1.00  0.00     0.167 HD
HETATM    4  C3  UNL     1       0.152  11.619   9.451  1.00  0.00     0.325 C 
HETATM    5  O2  UNL     1       1.038  12.449   9.657  1.00  0.00    -0.247 OA
HETATM    6  N3  UNL     1      -1.114  11.858   8.907  1.00  0.00    -0.275 N 
ATOM      7  H3  UNL     1      -1.483  12.761   8.611  1.00  0.00     0.173 HD
HETATM    8  C4  UNL     1      -1.810  10.572   8.843  1.00  0.00     0.290 C 
HETATM    9  O3  UNL     1      -2.807  10.412   8.122  1.00  0.00    -0.268 OA
ENDROOT
BRANCH   1  10
HETATM   10  N1  UNL     1      -0.937   8.346   9.019  1.00  0.00    -0.036 N 
ATOM     11  H13 UNL     1      -0.833   7.572   9.676  1.00  0.00     0.278 HD
ATOM     12  H12 UNL     1      -1.793   8.026   8.564  1.00  0.00     0.278 HD
ATOM     13  H11 UNL     1      -0.151   8.421   8.373  1.00  0.00     0.278 HD
ENDBRANCH   1  10
BRANCH   1  14
HETATM   14  C2  UNL     1      -1.534   9.414  11.056  1.00  0.00     0.302 C 
HETATM   15  O1  UNL     1      -0.831   8.746  11.884  1.00  0.00    -0.302 OA
ENDBRANCH   1  14
TORSDOF 2
ENDMDL
MODEL 3
REMARK VINA RESULT: -5.715048531      1.435      2.823
REMARK  2 active torsions:
REMARK  status: ('A' for Active; 'I' for Inactive)
REMARK    1  A    between atoms: N1_1  and  C1_5 
REMARK    2  A    between atoms: C1_5  and  C2_6 
ROOT
HETATM    1  C1  UNL     1      -0.527  10.717   9.764  1.00  0.00     0.333 C 
HETATM    2  N2  UNL     1       0.167   9.520  10.281  1.00  0.00    -0.296 N 
ATOM      3  H2  UNL     1       0.575   9.373  11.204  1.00  0.00     0.167 HD
HETATM    4  C3  UNL     1       0.127   8.567   9.113  1.00  0.00     0.325 C 
HETATM    5  O2  UNL     1       0.822   7.554   9.031  1.00  0.00    -0.247 OA
HETATM    6  N3  UNL     1      -0.803   9.027   8.176  1.00  0.00    -0.275 N 
ATOM      7  H3  UNL     1      -1.031   8.587   7.285  1.00  0.00     0.173 HD
HETATM    8  C4  UNL     1      -1.388  10.258   8.711  1.00  0.00     0.290 C 
HETATM    9  O3  UNL     1      -2.454  10.713   8.269  1.00  0.00    -0.268 OA
ENDROOT
BRANCH   1  10
HETATM   10  N1  UNL     1      -1.340  11.134  10.943  1.00  0.00    -0.036 N 
ATOM     11  H13 UNL     1      -0.824  11.069  11.821  1.00  0.00     0.278 HD
ATOM     12  H12 UNL     1      -1.519  12.138  10.962  1.00  0.00     0.278 HD
ATOM     13  H11 UNL     1      -2.197  10.580  10.949  1.00  0.00     0.278 HD
ENDBRANCH   1  10
BRANCH   1  14
HETATM   14  C2  UNL     1       0.478  11.727   9.532  1.00  0.00     0.302 C 
HETATM   15  O1  UNL     1       1.178  11.763   8.467  1.00  0.00    -0.302 OA
ENDBRANCH   1  14
TORSDOF 2
ENDMDL
MODEL 4
REMARK VINA RESULT: -5.526745245      1.130      3.156
REMARK  2 active torsions:
REMARK  status: ('A' for Active; 'I' for Inactive)
REMARK    1  A    between atoms: N1_1  and  C1_5 
REMARK    2  A    between atoms: C1_5  and  C2_6 
ROOT
HETATM    1  C1  UNL     1      -1.249  10.530   8.348  1.00  0.00     0.333 C 
HETATM    2  N2  UNL     1      -0.753   9.157   8.570  1.00  0.00    -0.296 N 
ATOM      3  H2  UNL     1      -0.949   8.317   8.026  1.00  0.00     0.167 HD
HETATM    4  C3  UNL     1       0.113   9.297   9.795  1.00  0.00     0.325 C 
HETATM    5  O2  UNL     1       0.507   8.344  10.469  1.00  0.00    -0.247 OA
HETATM    6  N3  UNL     1       0.376  10.651  10.021  1.00  0.00    -0.275 N 
ATOM      7  H3  UNL     1       0.928  11.041  10.784  1.00  0.00     0.173 HD
HETATM    8  C4  UNL     1      -0.288  11.407   8.957  1.00  0.00     0.290 C 
HETATM    9  O3  UNL     1       0.025  12.580   8.705  1.00  0.00    -0.268 OA
ENDROOT
BRANCH   1  10
HETATM   10  N1  UNL     1      -1.176  10.648   6.863  1.00  0.00    -0.036 N 
ATOM     11  H13 UNL     1      -2.008  11.081   6.461  1.00  0.00     0.278 HD
ATOM     12  H12 UNL     1      -0.496  11.344   6.556  1.00  0.00     0.278 HD
ATOM     13  H11 UNL     1      -0.992   9.720   6.480  1.00  0.00     0.278 HD
ENDBRANCH   1  10
BRANCH   1  14
HETATM   14  C2  UNL     1      -2.640  10.550   8.733  1.00  0.00     0.302 C 
HETATM   15  O1  UNL     1      -3.542   9.943   8.065  1.00  0.00    -0.302 OA
ENDBRANCH   1  14
TORSDOF 2
ENDMDL
MODEL 5
REMARK VINA RESULT: -5.337592717      1.586      2.991
REMARK  2 active torsions:
REMARK  status: ('A' for Active; 'I' for Inactive)
REMARK    1  A    between atoms: N1_1  and  C1_5 
REMARK    2  A    between atoms: C1_5  and  C2_6 
ROOT
HETATM    1  C1  UNL     1      -1.029   9.571  10.385  1.00  0.00     0.333 C 
HETATM    2  N2  UNL     1      -0.813  11.026  10.523  1.00  0.00    -0.296 N 
ATOM      3  H2  UNL     1      -1.109  11.641  11.280  1.00  0.00     0.167 HD
HETATM    4  C3  UNL     1      -0.048  11.381   9.273  1.00  0.00     0.325 C 
HETATM    5  O2  UNL     1       0.104  12.534   8.867  1.00  0.00    -0.247 OA
HETATM    6  N3  UNL     1       0.435  10.210   8.681  1.00  0.00    -0.275 N 
ATOM      7  H3  UNL     1       0.979  10.148   7.821  1.00  0.00     0.173 HD
HETATM    8  C4  UNL     1       0.017   9.090   9.526  1.00  0.00     0.290 C 
HETATM    9  O3  UNL     1       0.559   7.978   9.441  1.00  0.00    -0.268 OA
ENDROOT
BRANCH   1  10
HETATM   10  N1  UNL     1      -0.804   9.093  11.780  1.00  0.00    -0.036 N 
ATOM     11  H13 UNL     1       0.179   9.120  12.052  1.00  0.00     0.278 HD
ATOM     12  H12 UNL     1      -1.159   9.743  12.481  1.00  0.00     0.278 HD
ATOM     13  H11 UNL     1      -1.210   8.161  11.864  1.00  0.00     0.278 HD
ENDBRANCH   1  10
BRANCH   1  14
HETATM   14  C2  UNL     1      -2.422   9.375  10.062  1.00  0.00     0.302 C 
HETATM   15  O1  UNL     1      -2.851   9.368   8.860  1.00  0.00    -0.302 OA
ENDBRANCH   1  14
TORSDOF 2
ENDMDL
