MODEL 1
REMARK VINA RESULT: -7.640425522      0.000      0.000
REMARK  7 active torsions:
REMARK  status: ('A' for Active; 'I' for Inactive)
REMARK    1  A    between atoms: C1_4  and  N2_5 
REMARK    2  A    between atoms: C1_4  and  C10_28 
REMARK    3  A    between atoms: C7_20  and  O3_21 
REMARK    4  A    between atoms: N6_23  and  C8_24 
REMARK    5  A    between atoms: C8_24  and  C9_25 
REMARK    6  A    between atoms: C10_28  and  N8_29 
REMARK    7  A    between atoms: C10_28  and  N9_33 
ROOT
HETATM    1  N2  UNL     1      61.400  42.034  38.396  1.00  0.00    -0.337 N 
ATOM      2  H2  UNL     1      60.719  42.748  38.650  1.00  0.00     0.167 HD
HETATM    3  C2  UNL     1      61.373  40.992  39.072  1.00  0.00     0.133 C 
HETATM    4  C3  UNL     1      60.412  40.912  40.104  1.00  0.00     0.278 C 
HETATM    5  O1  UNL     1      59.424  41.643  39.896  1.00  0.00    -0.265 OA
HETATM    6  N3  UNL     1      60.498  40.161  41.196  1.00  0.00    -0.273 N 
ATOM      7  H3  UNL     1      59.682  40.195  41.806  1.00  0.00     0.173 HD
HETATM    8  C4  UNL     1      61.492  39.363  41.625  1.00  0.00     0.328 C 
HETATM    9  O2  UNL     1      61.365  38.982  42.815  1.00  0.00    -0.247 OA
HETATM   10  N4  UNL     1      62.600  38.916  40.963  1.00  0.00    -0.292 N 
ATOM     11  H4  UNL     1      63.314  38.438  41.512  1.00  0.00     0.172 HD
HETATM   12  C5  UNL     1      62.826  39.057  39.639  1.00  0.00     0.144 A 
HETATM   13  C6  UNL     1      62.273  39.996  38.762  1.00  0.00     0.113 A 
HETATM   14  N5  UNL     1      62.801  39.721  37.563  1.00  0.00    -0.317 N 
ATOM     15  H5  UNL     1      62.590  40.238  36.710  1.00  0.00     0.169 HD
HETATM   16  C7  UNL     1      63.643  38.678  37.628  1.00  0.00     0.226 A 
HETATM   17  N6  UNL     1      63.646  38.277  38.924  1.00  0.00    -0.288 N 
ENDROOT
BRANCH   1  18
HETATM   18  C1  UNL     1      62.247  42.347  37.337  1.00  0.00     0.134 C 
HETATM   19  N1  UNL     1      63.465  42.772  37.583  1.00  0.00    -0.386 N 
ATOM     20  H12 UNL     1      63.735  42.877  38.562  1.00  0.00     0.157 HD
ATOM     21  H11 UNL     1      64.085  43.002  36.806  1.00  0.00     0.157 HD
BRANCH  18  22
HETATM   22  C10 UNL     1      61.851  42.194  35.903  1.00  0.00     0.444 C 
BRANCH  22  23
HETATM   23  N8  UNL     1      60.424  41.976  35.828  1.00  0.00    -0.043 N 
ATOM     24  H83 UNL     1      60.152  41.475  34.982  1.00  0.00     0.277 HD
ATOM     25  H82 UNL     1      60.099  41.292  36.511  1.00  0.00     0.277 HD
ATOM     26  H81 UNL     1      59.945  42.873  35.919  1.00  0.00     0.277 HD
ENDBRANCH  22  23
BRANCH  22  27
HETATM   27  N9  UNL     1      62.110  43.422  35.164  1.00  0.00    -0.043 N 
ATOM     28  H93 UNL     1      61.934  43.307  34.166  1.00  0.00     0.277 HD
ATOM     29  H92 UNL     1      61.411  44.138  35.363  1.00  0.00     0.277 HD
ATOM     30  H91 UNL     1      63.057  43.758  35.344  1.00  0.00     0.277 HD
ENDBRANCH  22  27
ENDBRANCH  18  22
ENDBRANCH   1  18
BRANCH  17  31
HETATM   31  C8  UNL     1      64.412  37.180  39.471  1.00  0.00     0.233 C 
BRANCH  31  32
HETATM   32  C9  UNL     1      65.809  37.586  39.761  1.00  0.00     0.249 C 
HETATM   33  N7  UNL     1      66.746  37.939  38.756  1.00  0.00    -0.061 NA
HETATM   34  O4  UNL     1      66.156  37.609  40.973  1.00  0.00    -0.275 OA
ENDBRANCH  31  32
ENDBRANCH  17  31
BRANCH  16  35
HETATM   35  O3  UNL     1      64.381  38.093  36.607  1.00  0.00    -0.332 OA
ATOM     36  H3  UNL     1      65.228  37.666  36.657  1.00  0.00     0.221 HD
ENDBRANCH  16  35
TORSDOF 7
ENDMDL
MODEL 2
REMARK VINA RESULT: -7.397053021      0.765      1.282
REMARK  7 active torsions:
REMARK  status: ('A' for Active; 'I' for Inactive)
REMARK    1  A    between atoms: C1_4  and  N2_5 
REMARK    2  A    between atoms: C1_4  and  C10_28 
REMARK    3  A    between atoms: C7_20  and  O3_21 
REMARK    4  A    between atoms: N6_23  and  C8_24 
REMARK    5  A    between atoms: C8_24  and  C9_25 
REMARK    6  A    between atoms: C10_28  and  N8_29 
REMARK    7  A    between atoms: C10_28  and  N9_33 
ROOT
HETATM    1  N2  UNL     1      60.981  41.946  38.063  1.00  0.00    -0.337 N 
ATOM      2  H2  UNL     1      60.236  42.625  38.223  1.00  0.00     0.167 HD
HETATM    3  C2  UNL     1      61.057  41.020  38.886  1.00  0.00     0.133 C 
HETATM    4  C3  UNL     1      60.116  41.007  39.939  1.00  0.00     0.278 C 
HETATM    5  O1  UNL     1      59.062  41.605  39.647  1.00  0.00    -0.265 OA
HETATM    6  N3  UNL     1      60.281  40.439  41.129  1.00  0.00    -0.273 N 
ATOM      7  H3  UNL     1      59.470  40.489  41.745  1.00  0.00     0.173 HD
HETATM    8  C4  UNL     1      61.349  39.810  41.650  1.00  0.00     0.328 C 
HETATM    9  O2  UNL     1      61.268  39.602  42.886  1.00  0.00    -0.247 OA
HETATM   10  N4  UNL     1      62.489  39.373  41.038  1.00  0.00    -0.292 N 
ATOM     11  H4  UNL     1      63.249  39.050  41.636  1.00  0.00     0.172 HD
HETATM   12  C5  UNL     1      62.690  39.334  39.703  1.00  0.00     0.144 A 
HETATM   13  C6  UNL     1      62.045  40.076  38.708  1.00  0.00     0.113 A 
HETATM   14  N5  UNL     1      62.586  39.674  37.552  1.00  0.00    -0.317 N 
ATOM     15  H5  UNL     1      62.321  40.035  36.636  1.00  0.00     0.169 HD
HETATM   16  C7  UNL     1      63.523  38.734  37.753  1.00  0.00     0.226 A 
HETATM   17  N6  UNL     1      63.575  38.535  39.093  1.00  0.00    -0.288 N 
ENDROOT
BRANCH   1  18
HETATM   18  C1  UNL     1      61.785  42.174  36.951  1.00  0.00     0.134 C 
HETATM   19  N1  UNL     1      61.503  41.580  35.813  1.00  0.00    -0.386 N 
ATOM     20  H12 UNL     1      60.702  40.949  35.801  1.00  0.00     0.157 HD
ATOM     21  H11 UNL     1      62.094  41.747  34.998  1.00  0.00     0.157 HD
BRANCH  18  22
HETATM   22  C10 UNL     1      62.960  43.099  36.969  1.00  0.00     0.444 C 
BRANCH  22  23
HETATM   23  N8  UNL     1      63.037  43.789  35.701  1.00  0.00    -0.043 N 
ATOM     24  H83 UNL     1      62.528  43.302  34.963  1.00  0.00     0.277 HD
ATOM     25  H82 UNL     1      62.498  44.655  35.698  1.00  0.00     0.277 HD
ATOM     26  H81 UNL     1      64.017  43.941  35.463  1.00  0.00     0.277 HD
ENDBRANCH  22  23
BRANCH  22  27
HETATM   27  N9  UNL     1      62.786  44.133  37.980  1.00  0.00    -0.043 N 
ATOM     28  H93 UNL     1      63.246  45.003  37.714  1.00  0.00     0.277 HD
ATOM     29  H92 UNL     1      61.824  44.470  38.014  1.00  0.00     0.277 HD
ATOM     30  H91 UNL     1      63.102  43.802  38.892  1.00  0.00     0.277 HD
ENDBRANCH  22  27
ENDBRANCH  18  22
ENDBRANCH   1  18
BRANCH  17  31
HETATM   31  C8  UNL     1      64.444  37.607  39.781  1.00  0.00     0.233 C 
BRANCH  31  32
HETATM   32  C9  UNL     1      65.849  37.737  39.319  1.00  0.00     0.249 C 
HETATM   33  N7  UNL     1      66.458  36.841  38.405  1.00  0.00    -0.061 NA
HETATM   34  O4  UNL     1      66.513  38.705  39.780  1.00  0.00    -0.275 OA
ENDBRANCH  31  32
ENDBRANCH  17  31
BRANCH  16  35
HETATM   35  O3  UNL     1      64.306  38.073  36.814  1.00  0.00    -0.332 OA
ATOM     36  H3  UNL     1      64.936  37.377  36.952  1.00  0.00     0.221 HD
ENDBRANCH  16  35
TORSDOF 7
ENDMDL
MODEL 3
REMARK VINA RESULT: -7.364266056      4.156      6.997
REMARK  7 active torsions:
REMARK  status: ('A' for Active; 'I' for Inactive)
REMARK    1  A    between atoms: C1_4  and  N2_5 
REMARK    2  A    between atoms: C1_4  and  C10_28 
REMARK    3  A    between atoms: C7_20  and  O3_21 
REMARK    4  A    between atoms: N6_23  and  C8_24 
REMARK    5  A    between atoms: C8_24  and  C9_25 
REMARK    6  A    between atoms: C10_28  and  N8_29 
REMARK    7  A    between atoms: C10_28  and  N9_33 
ROOT
HETATM    1  N2  UNL     1      60.727  41.871  37.299  1.00  0.00    -0.337 N 
ATOM      2  H2  UNL     1      60.521  40.884  37.450  1.00  0.00     0.167 HD
HETATM    3  C2  UNL     1      60.330  42.651  38.180  1.00  0.00     0.133 C 
HETATM    4  C3  UNL     1      59.645  42.092  39.281  1.00  0.00     0.278 C 
HETATM    5  O1  UNL     1      59.951  40.901  39.481  1.00  0.00    -0.265 OA
HETATM    6  N3  UNL     1      58.763  42.718  40.052  1.00  0.00    -0.273 N 
ATOM      7  H3  UNL     1      58.408  42.166  40.834  1.00  0.00     0.173 HD
HETATM    8  C4  UNL     1      58.262  43.963  39.966  1.00  0.00     0.328 C 
HETATM    9  O2  UNL     1      57.265  44.166  40.702  1.00  0.00    -0.247 OA
HETATM   10  N4  UNL     1      58.675  45.018  39.203  1.00  0.00    -0.292 N 
ATOM     11  H4  UNL     1      58.069  45.838  39.169  1.00  0.00     0.172 HD
HETATM   12  C5  UNL     1      59.822  45.064  38.493  1.00  0.00     0.144 A 
HETATM   13  C6  UNL     1      60.590  43.994  38.019  1.00  0.00     0.113 A 
HETATM   14  N5  UNL     1      61.628  44.551  37.384  1.00  0.00    -0.317 N 
ATOM     15  H5  UNL     1      62.373  44.025  36.927  1.00  0.00     0.169 HD
HETATM   16  C7  UNL     1      61.563  45.891  37.426  1.00  0.00     0.226 A 
HETATM   17  N6  UNL     1      60.437  46.193  38.118  1.00  0.00    -0.288 N 
ENDROOT
BRANCH   1  18
HETATM   18  C1  UNL     1      61.418  42.177  36.131  1.00  0.00     0.134 C 
HETATM   19  N1  UNL     1      62.732  42.177  36.134  1.00  0.00    -0.386 N 
ATOM     20  H12 UNL     1      63.197  41.968  37.018  1.00  0.00     0.157 HD
ATOM     21  H11 UNL     1      63.239  42.402  35.277  1.00  0.00     0.157 HD
BRANCH  18  22
HETATM   22  C10 UNL     1      60.737  42.484  34.835  1.00  0.00     0.444 C 
BRANCH  22  23
HETATM   23  N8  UNL     1      61.473  43.520  34.148  1.00  0.00    -0.043 N 
ATOM     24  H83 UNL     1      61.847  44.220  34.788  1.00  0.00     0.277 HD
ATOM     25  H82 UNL     1      62.359  43.182  33.771  1.00  0.00     0.277 HD
ATOM     26  H81 UNL     1      60.877  43.931  33.428  1.00  0.00     0.277 HD
ENDBRANCH  22  23
BRANCH  22  27
HETATM   27  N9  UNL     1      60.759  41.323  33.955  1.00  0.00    -0.043 N 
ATOM     28  H93 UNL     1      60.601  40.456  34.468  1.00  0.00     0.277 HD
ATOM     29  H92 UNL     1      59.940  41.294  33.348  1.00  0.00     0.277 HD
ATOM     30  H91 UNL     1      61.627  41.293  33.420  1.00  0.00     0.277 HD
ENDBRANCH  22  27
ENDBRANCH  18  22
ENDBRANCH   1  18
BRANCH  17  31
HETATM   31  C8  UNL     1      59.954  47.522  38.417  1.00  0.00     0.233 C 
BRANCH  31  32
HETATM   32  C9  UNL     1      59.671  48.287  37.177  1.00  0.00     0.249 C 
HETATM   33  N7  UNL     1      58.606  47.980  36.294  1.00  0.00    -0.061 NA
HETATM   34  O4  UNL     1      60.436  49.256  36.919  1.00  0.00    -0.275 OA
ENDBRANCH  31  32
ENDBRANCH  17  31
BRANCH  16  35
HETATM   35  O3  UNL     1      62.445  46.820  36.887  1.00  0.00    -0.332 OA
ATOM     36  H3  UNL     1      62.385  47.285  36.061  1.00  0.00     0.221 HD
ENDBRANCH  16  35
TORSDOF 7
ENDMDL
MODEL 4
REMARK VINA RESULT: -7.335131280      1.136      1.662
REMARK  7 active torsions:
REMARK  status: ('A' for Active; 'I' for Inactive)
REMARK    1  A    between atoms: C1_4  and  N2_5 
REMARK    2  A    between atoms: C1_4  and  C10_28 
REMARK    3  A    between atoms: C7_20  and  O3_21 
REMARK    4  A    between atoms: N6_23  and  C8_24 
REMARK    5  A    between atoms: C8_24  and  C9_25 
REMARK    6  A    between atoms: C10_28  and  N8_29 
REMARK    7  A    between atoms: C10_28  and  N9_33 
ROOT
HETATM    1  N2  UNL     1      60.832  41.901  38.071  1.00  0.00    -0.337 N 
ATOM      2  H2  UNL     1      60.022  42.491  38.258  1.00  0.00     0.167 HD
HETATM    3  C2  UNL     1      61.068  41.018  38.911  1.00  0.00     0.133 C 
HETATM    4  C3  UNL     1      60.198  40.927  40.020  1.00  0.00     0.278 C 
HETATM    5  O1  UNL     1      59.065  41.385  39.778  1.00  0.00    -0.265 OA
HETATM    6  N3  UNL     1      60.500  40.423  41.211  1.00  0.00    -0.273 N 
ATOM      7  H3  UNL     1      59.726  40.396  41.875  1.00  0.00     0.173 HD
HETATM    8  C4  UNL     1      61.665  39.944  41.682  1.00  0.00     0.328 C 
HETATM    9  O2  UNL     1      61.682  39.768  42.925  1.00  0.00    -0.247 OA
HETATM   10  N4  UNL     1      62.812  39.626  41.011  1.00  0.00    -0.292 N 
ATOM     11  H4  UNL     1      63.639  39.416  41.570  1.00  0.00     0.172 HD
HETATM   12  C5  UNL     1      62.938  39.567  39.668  1.00  0.00     0.144 A 
HETATM   13  C6  UNL     1      62.151  40.194  38.696  1.00  0.00     0.113 A 
HETATM   14  N5  UNL     1      62.669  39.821  37.520  1.00  0.00    -0.317 N 
ATOM     15  H5  UNL     1      62.309  40.118  36.613  1.00  0.00     0.169 HD
HETATM   16  C7  UNL     1      63.723  39.008  37.687  1.00  0.00     0.226 A 
HETATM   17  N6  UNL     1      63.877  38.860  39.026  1.00  0.00    -0.288 N 
ENDROOT
BRANCH   1  18
HETATM   18  C1  UNL     1      61.537  42.186  36.905  1.00  0.00     0.134 C 
HETATM   19  N1  UNL     1      61.100  41.729  35.754  1.00  0.00    -0.386 N 
ATOM     20  H12 UNL     1      60.256  41.156  35.768  1.00  0.00     0.157 HD
ATOM     21  H11 UNL     1      61.617  41.939  34.899  1.00  0.00     0.157 HD
BRANCH  18  22
HETATM   22  C10 UNL     1      62.774  43.026  36.884  1.00  0.00     0.444 C 
BRANCH  22  23
HETATM   23  N8  UNL     1      62.868  43.696  35.607  1.00  0.00    -0.043 N 
ATOM     24  H83 UNL     1      62.906  43.040  34.827  1.00  0.00     0.277 HD
ATOM     25  H82 UNL     1      62.002  44.171  35.353  1.00  0.00     0.277 HD
ATOM     26  H81 UNL     1      63.668  44.329  35.621  1.00  0.00     0.277 HD
ENDBRANCH  22  23
BRANCH  22  27
HETATM   27  N9  UNL     1      62.697  44.081  37.887  1.00  0.00    -0.043 N 
ATOM     28  H93 UNL     1      63.421  44.786  37.750  1.00  0.00     0.277 HD
ATOM     29  H92 UNL     1      61.877  44.673  37.750  1.00  0.00     0.277 HD
ATOM     30  H91 UNL     1      62.726  43.687  38.827  1.00  0.00     0.277 HD
ENDBRANCH  22  27
ENDBRANCH  18  22
ENDBRANCH   1  18
BRANCH  17  31
HETATM   31  C8  UNL     1      64.891  38.066  39.682  1.00  0.00     0.233 C 
BRANCH  31  32
HETATM   32  C9  UNL     1      64.310  37.231  40.764  1.00  0.00     0.249 C 
HETATM   33  N7  UNL     1      64.711  37.320  42.121  1.00  0.00    -0.061 NA
HETATM   34  O4  UNL     1      63.415  36.408  40.429  1.00  0.00    -0.275 OA
ENDBRANCH  31  32
ENDBRANCH  17  31
BRANCH  16  35
HETATM   35  O3  UNL     1      64.524  38.414  36.719  1.00  0.00    -0.332 OA
ATOM     36  H3  UNL     1      65.428  38.133  36.787  1.00  0.00     0.221 HD
ENDBRANCH  16  35
TORSDOF 7
ENDMDL
MODEL 5
REMARK VINA RESULT: -7.128209365      4.571      7.687
REMARK  7 active torsions:
REMARK  status: ('A' for Active; 'I' for Inactive)
REMARK    1  A    between atoms: C1_4  and  N2_5 
REMARK    2  A    between atoms: C1_4  and  C10_28 
REMARK    3  A    between atoms: C7_20  and  O3_21 
REMARK    4  A    between atoms: N6_23  and  C8_24 
REMARK    5  A    between atoms: C8_24  and  C9_25 
REMARK    6  A    between atoms: C10_28  and  N8_29 
REMARK    7  A    between atoms: C10_28  and  N9_33 
ROOT
HETATM    1  N2  UNL     1      61.762  43.134  38.641  1.00  0.00    -0.337 N 
ATOM      2  H2  UNL     1      61.908  42.331  39.254  1.00  0.00     0.167 HD
HETATM    3  C2  UNL     1      60.931  43.971  39.030  1.00  0.00     0.133 C 
HETATM    4  C3  UNL     1      60.289  43.724  40.263  1.00  0.00     0.278 C 
HETATM    5  O1  UNL     1      60.964  42.998  41.018  1.00  0.00    -0.265 OA
HETATM    6  N3  UNL     1      59.098  44.185  40.631  1.00  0.00    -0.273 N 
ATOM      7  H3  UNL     1      58.819  43.942  41.581  1.00  0.00     0.173 HD
HETATM    8  C4  UNL     1      58.203  44.920  39.948  1.00  0.00     0.328 C 
HETATM    9  O2  UNL     1      57.072  44.984  40.491  1.00  0.00    -0.247 OA
HETATM   10  N4  UNL     1      58.346  45.595  38.769  1.00  0.00    -0.292 N 
ATOM     11  H4  UNL     1      57.502  45.972  38.339  1.00  0.00     0.172 HD
HETATM   12  C5  UNL     1      59.516  45.804  38.128  1.00  0.00     0.144 A 
HETATM   13  C6  UNL     1      60.704  45.074  38.236  1.00  0.00     0.113 A 
HETATM   14  N5  UNL     1      61.571  45.674  37.412  1.00  0.00    -0.317 N 
ATOM     15  H5  UNL     1      62.534  45.372  37.270  1.00  0.00     0.169 HD
HETATM   16  C7  UNL     1      61.009  46.726  36.796  1.00  0.00     0.226 A 
HETATM   17  N6  UNL     1      59.734  46.793  37.252  1.00  0.00    -0.288 N 
ENDROOT
BRANCH   1  18
HETATM   18  C1  UNL     1      62.517  43.154  37.473  1.00  0.00     0.134 C 
HETATM   19  N1  UNL     1      63.761  43.576  37.510  1.00  0.00    -0.386 N 
ATOM     20  H12 UNL     1      64.118  43.896  38.410  1.00  0.00     0.157 HD
ATOM     21  H11 UNL     1      64.314  43.591  36.653  1.00  0.00     0.157 HD
BRANCH  18  22
HETATM   22  C10 UNL     1      61.993  42.684  36.153  1.00  0.00     0.444 C 
BRANCH  22  23
HETATM   23  N8  UNL     1      62.457  43.577  35.115  1.00  0.00    -0.043 N 
ATOM     24  H83 UNL     1      62.546  44.539  35.442  1.00  0.00     0.277 HD
ATOM     25  H82 UNL     1      63.435  43.417  34.875  1.00  0.00     0.277 HD
ATOM     26  H81 UNL     1      61.841  43.497  34.306  1.00  0.00     0.277 HD
ENDBRANCH  22  23
BRANCH  22  27
HETATM   27  N9  UNL     1      62.530  41.371  35.824  1.00  0.00    -0.043 N 
ATOM     28  H93 UNL     1      63.050  41.384  34.947  1.00  0.00     0.277 HD
ATOM     29  H92 UNL     1      63.290  41.105  36.450  1.00  0.00     0.277 HD
ATOM     30  H91 UNL     1      61.788  40.670  35.812  1.00  0.00     0.277 HD
ENDBRANCH  22  27
ENDBRANCH  18  22
ENDBRANCH   1  18
BRANCH  17  31
HETATM   31  C8  UNL     1      58.743  47.772  36.865  1.00  0.00     0.233 C 
BRANCH  31  32
HETATM   32  C9  UNL     1      59.026  49.097  37.471  1.00  0.00     0.249 C 
HETATM   33  N7  UNL     1      58.279  49.641  38.547  1.00  0.00    -0.061 NA
HETATM   34  O4  UNL     1      59.988  49.753  36.985  1.00  0.00    -0.275 OA
ENDBRANCH  31  32
ENDBRANCH  17  31
BRANCH  16  35
HETATM   35  O3  UNL     1      61.577  47.598  35.874  1.00  0.00    -0.332 OA
ATOM     36  H3  UNL     1      62.494  47.718  35.659  1.00  0.00     0.221 HD
ENDBRANCH  16  35
TORSDOF 7
ENDMDL
