MODEL 1
REMARK VINA RESULT: -7.844267845      0.000      0.000
REMARK  9 active torsions:
REMARK  status: ('A' for Active; 'I' for Inactive)
REMARK    1  A    between atoms: C2_2  and  N1_3 
REMARK    2  A    between atoms: C3_4  and  C4_5 
REMARK       I    between atoms: C4_5  and  N2_7 
REMARK    3  A    between atoms: N2_7  and  C5_9 
REMARK    4  A    between atoms: C5_9  and  C6_10 
REMARK    5  A    between atoms: C6_10  and  N3_11 
REMARK    6  A    between atoms: C6_10  and  O2_15 
REMARK    7  A    between atoms: C7_19  and  N5_20 
REMARK    8  A    between atoms: N5_20  and  N6_22 
REMARK       I    between atoms: N6_22  and  C8_24 
REMARK    9  A    between atoms: N8_26  and  N9_28 
ROOT
HETATM    1  N1  UNL     1      62.423  39.392  39.324  1.00  0.00    -0.280 N 
HETATM    2  C3  UNL     1      63.438  39.188  38.502  1.00  0.00     0.195 A 
HETATM    3  N4  UNL     1      63.479  39.940  37.356  1.00  0.00    -0.169 N 
ATOM      4  H4  UNL     1      64.257  39.798  36.710  1.00  0.00     0.186 HD
HETATM    5  C7  UNL     1      62.552  40.849  37.042  1.00  0.00     0.702 A 
HETATM    6  N10 UNL     1      61.539  41.014  37.913  1.00  0.00    -0.139 N 
ATOM      7  H10 UNL     1      60.816  41.702  37.698  1.00  0.00     0.189 HD
HETATM    8  C9  UNL     1      61.441  40.314  39.048  1.00  0.00     0.342 A 
HETATM    9  O3  UNL     1      60.495  40.478  39.845  1.00  0.00    -0.246 OA
ENDROOT
BRANCH   2  10
HETATM   10  C4  UNL     1      64.441  38.159  38.696  1.00  0.00     0.286 C 
HETATM   11  O1  UNL     1      64.122  36.950  38.410  1.00  0.00    -0.264 OA
HETATM   12  N2  UNL     1      65.742  38.398  39.187  1.00  0.00    -0.350 N 
ATOM     13  H2  UNL     1      66.002  39.354  39.430  1.00  0.00     0.163 HD
BRANCH  12  14
HETATM   14  C5  UNL     1      66.725  37.348  39.362  1.00  0.00     0.183 C 
BRANCH  14  15
HETATM   15  C6  UNL     1      67.721  37.640  40.459  1.00  0.00     0.334 C 
BRANCH  15  16
HETATM   16  N3  UNL     1      67.601  36.562  41.428  1.00  0.00    -0.051 N 
ATOM     17  H33 UNL     1      67.693  35.635  41.013  1.00  0.00     0.277 HD
ATOM     18  H32 UNL     1      68.397  36.498  42.062  1.00  0.00     0.277 HD
ATOM     19  H31 UNL     1      66.712  36.701  41.910  1.00  0.00     0.277 HD
ENDBRANCH  15  16
BRANCH  15  20
HETATM   20  O2  UNL     1      69.027  37.619  39.964  1.00  0.00    -0.369 OA
ATOM     21  H2  UNL     1      69.648  37.418  40.654  1.00  0.00     0.212 HD
ENDBRANCH  15  20
ENDBRANCH  14  15
ENDBRANCH  12  14
ENDBRANCH   2  10
BRANCH   1  22
HETATM   22  C2  UNL     1      62.287  38.765  40.610  1.00  0.00     0.131 C 
HETATM   23  C1  UNL     1      62.698  39.792  41.687  1.00  0.00     0.027 C 
ENDBRANCH   1  22
BRANCH   5  24
HETATM   24  N5  UNL     1      62.621  41.539  35.952  1.00  0.00    -0.129 N 
ATOM     25  H5  UNL     1      62.660  41.020  35.074  1.00  0.00     0.205 HD
BRANCH  24  26
HETATM   26  N6  UNL     1      62.647  42.923  35.870  1.00  0.00    -0.258 N 
HETATM   27  C8  UNL     1      61.553  43.745  35.518  1.00  0.00     0.222 C 
HETATM   28  N7  UNL     1      60.822  43.526  34.321  1.00  0.00    -0.061 NA
HETATM   29  N8  UNL     1      61.221  44.709  36.305  1.00  0.00    -0.279 N 
ATOM     30  H8  UNL     1      60.431  45.297  36.042  1.00  0.00     0.189 HD
ATOM     31  H6  UNL     1      63.530  43.387  36.082  1.00  0.00     0.190 HD
BRANCH  29  32
HETATM   32  N9  UNL     1      61.880  44.991  37.490  1.00  0.00    -0.343 N 
ATOM     33  H92 UNL     1      62.828  45.361  37.420  1.00  0.00     0.176 HD
ATOM     34  H91 UNL     1      61.468  44.848  38.413  1.00  0.00     0.176 HD
ENDBRANCH  29  32
ENDBRANCH  24  26
ENDBRANCH   5  24
TORSDOF 9
ENDMDL
MODEL 2
REMARK VINA RESULT: -7.764865876      1.321      1.632
REMARK  9 active torsions:
REMARK  status: ('A' for Active; 'I' for Inactive)
REMARK    1  A    between atoms: C2_2  and  N1_3 
REMARK    2  A    between atoms: C3_4  and  C4_5 
REMARK       I    between atoms: C4_5  and  N2_7 
REMARK    3  A    between atoms: N2_7  and  C5_9 
REMARK    4  A    between atoms: C5_9  and  C6_10 
REMARK    5  A    between atoms: C6_10  and  N3_11 
REMARK    6  A    between atoms: C6_10  and  O2_15 
REMARK    7  A    between atoms: C7_19  and  N5_20 
REMARK    8  A    between atoms: N5_20  and  N6_22 
REMARK       I    between atoms: N6_22  and  C8_24 
REMARK    9  A    between atoms: N8_26  and  N9_28 
ROOT
HETATM    1  N1  UNL     1      62.794  39.054  40.290  1.00  0.00    -0.280 N 
HETATM    2  C3  UNL     1      63.322  39.055  39.078  1.00  0.00     0.195 A 
HETATM    3  N4  UNL     1      62.699  39.816  38.123  1.00  0.00    -0.169 N 
ATOM      4  H4  UNL     1      63.094  39.831  37.182  1.00  0.00     0.186 HD
HETATM    5  C7  UNL     1      61.601  40.538  38.362  1.00  0.00     0.702 A 
HETATM    6  N10 UNL     1      61.104  40.499  39.612  1.00  0.00    -0.139 N 
ATOM      7  H10 UNL     1      60.266  41.041  39.823  1.00  0.00     0.189 HD
HETATM    8  C9  UNL     1      61.664  39.778  40.590  1.00  0.00     0.342 A 
HETATM    9  O3  UNL     1      61.192  39.751  41.744  1.00  0.00    -0.246 OA
ENDROOT
BRANCH   2  10
HETATM   10  C4  UNL     1      64.450  38.231  38.687  1.00  0.00     0.286 C 
HETATM   11  O1  UNL     1      64.258  37.349  37.775  1.00  0.00    -0.264 OA
HETATM   12  N2  UNL     1      65.740  38.328  39.248  1.00  0.00    -0.350 N 
ATOM     13  H2  UNL     1      65.900  39.017  39.983  1.00  0.00     0.163 HD
BRANCH  12  14
HETATM   14  C5  UNL     1      66.849  37.494  38.828  1.00  0.00     0.183 C 
BRANCH  14  15
HETATM   15  C6  UNL     1      67.761  37.097  39.964  1.00  0.00     0.334 C 
BRANCH  15  16
HETATM   16  N3  UNL     1      68.569  35.989  39.481  1.00  0.00    -0.051 N 
ATOM     17  H33 UNL     1      68.027  35.279  38.989  1.00  0.00     0.277 HD
ATOM     18  H32 UNL     1      69.181  36.244  38.705  1.00  0.00     0.277 HD
ATOM     19  H31 UNL     1      69.074  35.623  40.288  1.00  0.00     0.277 HD
ENDBRANCH  15  16
BRANCH  15  20
HETATM   20  O2  UNL     1      68.628  38.142  40.293  1.00  0.00    -0.369 OA
ATOM     21  H2  UNL     1      69.051  38.487  39.516  1.00  0.00     0.212 HD
ENDBRANCH  15  20
ENDBRANCH  14  15
ENDBRANCH  12  14
ENDBRANCH   2  10
BRANCH   1  22
HETATM   22  C2  UNL     1      63.381  38.396  41.426  1.00  0.00     0.131 C 
HETATM   23  C1  UNL     1      63.120  36.881  41.286  1.00  0.00     0.027 C 
ENDBRANCH   1  22
BRANCH   5  24
HETATM   24  N5  UNL     1      61.039  41.242  37.436  1.00  0.00    -0.129 N 
ATOM     25  H5  UNL     1      60.079  41.545  37.600  1.00  0.00     0.205 HD
BRANCH  24  26
HETATM   26  N6  UNL     1      61.626  41.622  36.239  1.00  0.00    -0.258 N 
HETATM   27  C8  UNL     1      61.000  42.376  35.221  1.00  0.00     0.222 C 
HETATM   28  N7  UNL     1      59.753  41.980  34.671  1.00  0.00    -0.061 NA
HETATM   29  N8  UNL     1      61.582  43.442  34.790  1.00  0.00    -0.279 N 
ATOM     30  H8  UNL     1      61.123  43.979  34.055  1.00  0.00     0.189 HD
ATOM     31  H6  UNL     1      62.591  41.332  36.079  1.00  0.00     0.190 HD
BRANCH  29  32
HETATM   32  N9  UNL     1      62.797  43.899  35.272  1.00  0.00    -0.343 N 
ATOM     33  H92 UNL     1      62.772  44.551  36.056  1.00  0.00     0.176 HD
ATOM     34  H91 UNL     1      63.699  43.619  34.885  1.00  0.00     0.176 HD
ENDBRANCH  29  32
ENDBRANCH  24  26
ENDBRANCH   5  24
TORSDOF 9
ENDMDL
MODEL 3
REMARK VINA RESULT: -7.721670112      1.107      1.537
REMARK  9 active torsions:
REMARK  status: ('A' for Active; 'I' for Inactive)
REMARK    1  A    between atoms: C2_2  and  N1_3 
REMARK    2  A    between atoms: C3_4  and  C4_5 
REMARK       I    between atoms: C4_5  and  N2_7 
REMARK    3  A    between atoms: N2_7  and  C5_9 
REMARK    4  A    between atoms: C5_9  and  C6_10 
REMARK    5  A    between atoms: C6_10  and  N3_11 
REMARK    6  A    between atoms: C6_10  and  O2_15 
REMARK    7  A    between atoms: C7_19  and  N5_20 
REMARK    8  A    between atoms: N5_20  and  N6_22 
REMARK       I    between atoms: N6_22  and  C8_24 
REMARK    9  A    between atoms: N8_26  and  N9_28 
ROOT
HETATM    1  N1  UNL     1      62.764  38.890  40.139  1.00  0.00    -0.280 N 
HETATM    2  C3  UNL     1      63.785  38.740  39.313  1.00  0.00     0.195 A 
HETATM    3  N4  UNL     1      63.751  39.448  38.139  1.00  0.00    -0.169 N 
ATOM      4  H4  UNL     1      64.532  39.348  37.490  1.00  0.00     0.186 HD
HETATM    5  C7  UNL     1      62.748  40.263  37.803  1.00  0.00     0.702 A 
HETATM    6  N10 UNL     1      61.732  40.375  38.679  1.00  0.00    -0.139 N 
ATOM      7  H10 UNL     1      60.952  40.991  38.447  1.00  0.00     0.189 HD
HETATM    8  C9  UNL     1      61.704  39.714  39.841  1.00  0.00     0.342 A 
HETATM    9  O3  UNL     1      60.756  39.828  40.643  1.00  0.00    -0.246 OA
ENDROOT
BRANCH   2  10
HETATM   10  C4  UNL     1      64.874  37.808  39.534  1.00  0.00     0.286 C 
HETATM   11  O1  UNL     1      64.729  36.926  40.454  1.00  0.00    -0.264 OA
HETATM   12  N2  UNL     1      66.085  37.813  38.811  1.00  0.00    -0.350 N 
ATOM     13  H2  UNL     1      66.216  38.519  38.086  1.00  0.00     0.163 HD
BRANCH  12  14
HETATM   14  C5  UNL     1      67.152  36.862  39.051  1.00  0.00     0.183 C 
BRANCH  14  15
HETATM   15  C6  UNL     1      68.098  37.291  40.147  1.00  0.00     0.334 C 
BRANCH  15  16
HETATM   16  N3  UNL     1      67.846  36.415  41.281  1.00  0.00    -0.051 N 
ATOM     17  H33 UNL     1      66.889  36.065  41.314  1.00  0.00     0.277 HD
ATOM     18  H32 UNL     1      68.311  35.511  41.203  1.00  0.00     0.277 HD
ATOM     19  H31 UNL     1      68.114  36.936  42.116  1.00  0.00     0.277 HD
ENDBRANCH  15  16
BRANCH  15  20
HETATM   20  O2  UNL     1      69.427  37.106  39.757  1.00  0.00    -0.369 OA
ATOM     21  H2  UNL     1      69.981  36.943  40.511  1.00  0.00     0.212 HD
ENDBRANCH  15  20
ENDBRANCH  14  15
ENDBRANCH  12  14
ENDBRANCH   2  10
BRANCH   1  22
HETATM   22  C2  UNL     1      62.693  38.304  41.451  1.00  0.00     0.131 C 
HETATM   23  C1  UNL     1      63.055  39.395  42.480  1.00  0.00     0.027 C 
ENDBRANCH   1  22
BRANCH   5  24
HETATM   24  N5  UNL     1      62.748  40.913  36.686  1.00  0.00    -0.129 N 
ATOM     25  H5  UNL     1      63.420  40.621  35.977  1.00  0.00     0.205 HD
BRANCH  24  26
HETATM   26  N6  UNL     1      61.913  41.973  36.368  1.00  0.00    -0.258 N 
HETATM   27  C8  UNL     1      62.338  43.277  36.026  1.00  0.00     0.222 C 
HETATM   28  N7  UNL     1      63.217  44.010  36.867  1.00  0.00    -0.061 NA
HETATM   29  N8  UNL     1      61.911  43.802  34.930  1.00  0.00    -0.279 N 
ATOM     30  H8  UNL     1      62.223  44.744  34.693  1.00  0.00     0.189 HD
ATOM     31  H6  UNL     1      60.909  41.798  36.382  1.00  0.00     0.190 HD
BRANCH  29  32
HETATM   32  N9  UNL     1      61.053  43.158  34.055  1.00  0.00    -0.343 N 
ATOM     33  H92 UNL     1      60.839  42.179  34.249  1.00  0.00     0.176 HD
ATOM     34  H91 UNL     1      60.634  43.608  33.241  1.00  0.00     0.176 HD
ENDBRANCH  29  32
ENDBRANCH  24  26
ENDBRANCH   5  24
TORSDOF 9
ENDMDL
MODEL 4
REMARK VINA RESULT: -7.452216064      1.522      1.825
REMARK  9 active torsions:
REMARK  status: ('A' for Active; 'I' for Inactive)
REMARK    1  A    between atoms: C2_2  and  N1_3 
REMARK    2  A    between atoms: C3_4  and  C4_5 
REMARK       I    between atoms: C4_5  and  N2_7 
REMARK    3  A    between atoms: N2_7  and  C5_9 
REMARK    4  A    between atoms: C5_9  and  C6_10 
REMARK    5  A    between atoms: C6_10  and  N3_11 
REMARK    6  A    between atoms: C6_10  and  O2_15 
REMARK    7  A    between atoms: C7_19  and  N5_20 
REMARK    8  A    between atoms: N5_20  and  N6_22 
REMARK       I    between atoms: N6_22  and  C8_24 
REMARK    9  A    between atoms: N8_26  and  N9_28 
ROOT
HETATM    1  N1  UNL     1      61.623  39.526  40.846  1.00  0.00    -0.280 N 
HETATM    2  C3  UNL     1      62.347  39.382  39.750  1.00  0.00     0.195 A 
HETATM    3  N4  UNL     1      61.964  40.100  38.646  1.00  0.00    -0.169 N 
ATOM      4  H4  UNL     1      62.513  40.003  37.791  1.00  0.00     0.186 HD
HETATM    5  C7  UNL     1      60.909  40.918  38.633  1.00  0.00     0.702 A 
HETATM    6  N10 UNL     1      60.205  41.025  39.776  1.00  0.00    -0.139 N 
ATOM      7  H10 UNL     1      59.393  41.643  39.794  1.00  0.00     0.189 HD
HETATM    8  C9  UNL     1      60.525  40.355  40.887  1.00  0.00     0.342 A 
HETATM    9  O3  UNL     1      59.863  40.464  41.939  1.00  0.00    -0.246 OA
ENDROOT
BRANCH   2  10
HETATM   10  C4  UNL     1      63.448  38.447  39.626  1.00  0.00     0.286 C 
HETATM   11  O1  UNL     1      63.325  37.299  40.185  1.00  0.00    -0.264 OA
HETATM   12  N2  UNL     1      64.650  38.719  38.939  1.00  0.00    -0.350 N 
ATOM     13  H2  UNL     1      64.765  39.633  38.502  1.00  0.00     0.163 HD
BRANCH  12  14
HETATM   14  C5  UNL     1      65.730  37.758  38.827  1.00  0.00     0.183 C 
BRANCH  14  15
HETATM   15  C6  UNL     1      66.747  37.871  39.937  1.00  0.00     0.334 C 
BRANCH  15  16
HETATM   16  N3  UNL     1      66.395  36.865  40.927  1.00  0.00    -0.051 N 
ATOM     17  H33 UNL     1      65.846  36.096  40.543  1.00  0.00     0.277 HD
ATOM     18  H32 UNL     1      67.193  36.310  41.239  1.00  0.00     0.277 HD
ATOM     19  H31 UNL     1      65.925  37.357  41.687  1.00  0.00     0.277 HD
ENDBRANCH  15  16
BRANCH  15  20
HETATM   20  O2  UNL     1      68.029  37.574  39.469  1.00  0.00    -0.369 OA
ATOM     21  H2  UNL     1      68.660  37.587  40.179  1.00  0.00     0.212 HD
ENDBRANCH  15  20
ENDBRANCH  14  15
ENDBRANCH  12  14
ENDBRANCH   2  10
BRANCH   1  22
HETATM   22  C2  UNL     1      61.948  38.930  42.114  1.00  0.00     0.131 C 
HETATM   23  C1  UNL     1      62.742  39.966  42.938  1.00  0.00     0.027 C 
ENDBRANCH   1  22
BRANCH   5  24
HETATM   24  N5  UNL     1      60.575  41.577  37.573  1.00  0.00    -0.129 N 
ATOM     25  H5  UNL     1      59.650  42.007  37.564  1.00  0.00     0.205 HD
BRANCH  24  26
HETATM   26  N6  UNL     1      61.365  41.750  36.447  1.00  0.00    -0.258 N 
HETATM   27  C8  UNL     1      60.960  42.384  35.250  1.00  0.00     0.222 C 
HETATM   28  N7  UNL     1      59.785  41.979  34.564  1.00  0.00    -0.061 NA
HETATM   29  N8  UNL     1      61.678  43.345  34.782  1.00  0.00    -0.279 N 
ATOM     30  H8  UNL     1      61.378  43.795  33.917  1.00  0.00     0.189 HD
ATOM     31  H6  UNL     1      62.318  41.390  36.484  1.00  0.00     0.190 HD
BRANCH  29  32
HETATM   32  N9  UNL     1      62.837  43.800  35.388  1.00  0.00    -0.343 N 
ATOM     33  H92 UNL     1      62.818  43.915  36.402  1.00  0.00     0.176 HD
ATOM     34  H91 UNL     1      63.691  44.023  34.877  1.00  0.00     0.176 HD
ENDBRANCH  29  32
ENDBRANCH  24  26
ENDBRANCH   5  24
TORSDOF 9
ENDMDL
MODEL 5
REMARK VINA RESULT: -7.371817836      2.347      7.317
REMARK  9 active torsions:
REMARK  status: ('A' for Active; 'I' for Inactive)
REMARK    1  A    between atoms: C2_2  and  N1_3 
REMARK    2  A    between atoms: C3_4  and  C4_5 
REMARK       I    between atoms: C4_5  and  N2_7 
REMARK    3  A    between atoms: N2_7  and  C5_9 
REMARK    4  A    between atoms: C5_9  and  C6_10 
REMARK    5  A    between atoms: C6_10  and  N3_11 
REMARK    6  A    between atoms: C6_10  and  O2_15 
REMARK    7  A    between atoms: C7_19  and  N5_20 
REMARK    8  A    between atoms: N5_20  and  N6_22 
REMARK       I    between atoms: N6_22  and  C8_24 
REMARK    9  A    between atoms: N8_26  and  N9_28 
ROOT
HETATM    1  N1  UNL     1      61.707  40.483  39.000  1.00  0.00    -0.280 N 
HETATM    2  C3  UNL     1      62.508  40.645  37.961  1.00  0.00     0.195 A 
HETATM    3  N4  UNL     1      63.620  39.844  37.896  1.00  0.00    -0.169 N 
ATOM      4  H4  UNL     1      64.249  39.953  37.100  1.00  0.00     0.186 HD
HETATM    5  C7  UNL     1      63.921  38.931  38.823  1.00  0.00     0.702 A 
HETATM    6  N10 UNL     1      63.072  38.811  39.861  1.00  0.00    -0.139 N 
ATOM      7  H10 UNL     1      63.278  38.120  40.584  1.00  0.00     0.189 HD
HETATM    8  C9  UNL     1      61.971  39.559  39.983  1.00  0.00     0.342 A 
HETATM    9  O3  UNL     1      61.193  39.436  40.951  1.00  0.00    -0.246 OA
ENDROOT
BRANCH   2  10
HETATM   10  C4  UNL     1      62.330  41.672  36.954  1.00  0.00     0.286 C 
HETATM   11  O1  UNL     1      63.059  42.724  37.037  1.00  0.00    -0.264 OA
HETATM   12  N2  UNL     1      61.401  41.596  35.895  1.00  0.00    -0.350 N 
ATOM     13  H2  UNL     1      60.807  40.770  35.827  1.00  0.00     0.163 HD
BRANCH  12  14
HETATM   14  C5  UNL     1      61.253  42.639  34.898  1.00  0.00     0.183 C 
BRANCH  14  15
HETATM   15  C6  UNL     1      60.234  43.686  35.278  1.00  0.00     0.334 C 
BRANCH  15  16
HETATM   16  N3  UNL     1      60.980  44.834  35.770  1.00  0.00    -0.051 N 
ATOM     17  H33 UNL     1      61.312  45.447  35.026  1.00  0.00     0.277 HD
ATOM     18  H32 UNL     1      60.396  45.519  36.250  1.00  0.00     0.277 HD
ATOM     19  H31 UNL     1      61.730  44.465  36.354  1.00  0.00     0.277 HD
ENDBRANCH  15  16
BRANCH  15  20
HETATM   20  O2  UNL     1      59.508  44.101  34.159  1.00  0.00    -0.369 OA
ATOM     21  H2  UNL     1      59.838  43.689  33.369  1.00  0.00     0.212 HD
ENDBRANCH  15  20
ENDBRANCH  14  15
ENDBRANCH  12  14
ENDBRANCH   2  10
BRANCH   1  22
HETATM   22  C2  UNL     1      60.452  41.165  39.165  1.00  0.00     0.131 C 
HETATM   23  C1  UNL     1      60.731  42.515  39.859  1.00  0.00     0.027 C 
ENDBRANCH   1  22
BRANCH   5  24
HETATM   24  N5  UNL     1      64.979  38.196  38.731  1.00  0.00    -0.129 N 
ATOM     25  H5  UNL     1      65.068  37.609  37.901  1.00  0.00     0.205 HD
BRANCH  24  26
HETATM   26  N6  UNL     1      66.004  38.134  39.662  1.00  0.00    -0.258 N 
HETATM   27  C8  UNL     1      66.129  37.164  40.683  1.00  0.00     0.222 C 
HETATM   28  N7  UNL     1      65.068  36.912  41.592  1.00  0.00    -0.061 NA
HETATM   29  N8  UNL     1      67.230  36.503  40.782  1.00  0.00    -0.279 N 
ATOM     30  H8  UNL     1      67.309  35.806  41.522  1.00  0.00     0.189 HD
ATOM     31  H6  UNL     1      66.730  38.848  39.607  1.00  0.00     0.190 HD
BRANCH  29  32
HETATM   32  N9  UNL     1      68.311  36.687  39.937  1.00  0.00    -0.343 N 
ATOM     33  H92 UNL     1      69.058  37.301  40.263  1.00  0.00     0.176 HD
ATOM     34  H91 UNL     1      68.394  36.244  39.021  1.00  0.00     0.176 HD
ENDBRANCH  29  32
ENDBRANCH  24  26
ENDBRANCH   5  24
TORSDOF 9
ENDMDL
