MODEL 1
REMARK VINA RESULT: -7.186047933      0.000      0.000
REMARK  16 active torsions:
REMARK  status: ('A' for Active; 'I' for Inactive)
REMARK    1  A    between atoms: O1_2  and  C2_3 
REMARK    2  A    between atoms: C2_3  and  C3_5 
REMARK    3  A    between atoms: C3_5  and  O3_6 
REMARK    4  A    between atoms: C3_5  and  C4_8 
REMARK       I    between atoms: C4_8  and  N1_10 
REMARK    5  A    between atoms: N1_10  and  C5_12 
REMARK    6  A    between atoms: C5_12  and  O5_13 
REMARK    7  A    between atoms: C5_12  and  C6_15 
REMARK    8  A    between atoms: C5_12  and  C7_22 
REMARK    9  A    between atoms: C6_15  and  N2_16 
REMARK   10  A    between atoms: C6_15  and  O6_20 
REMARK   11  A    between atoms: C8_23  and  O7_24 
REMARK   12  A    between atoms: C9_26  and  N3_27 
REMARK   13  A    between atoms: C10_31  and  C11_32 
REMARK   14  A    between atoms: C11_32  and  N4_33 
REMARK   15  A    between atoms: C11_32  and  O8_37 
REMARK   16  A    between atoms: N6_41  and  C12_42 
ROOT
HETATM    1  C7  UNL     1      60.803  44.019  37.795  1.00  0.00     0.200 C 
HETATM    2  C8  UNL     1      60.646  44.972  36.616  1.00  0.00     0.180 C 
HETATM    3  C9  UNL     1      61.253  46.314  36.820  1.00  0.00     0.242 C 
HETATM    4  C10 UNL     1      60.662  46.877  38.093  1.00  0.00     0.188 C 
HETATM    5  N5  UNL     1      60.901  45.999  39.181  1.00  0.00    -0.321 N 
ATOM      6  H5  UNL     1      61.327  46.328  40.047  1.00  0.00     0.181 HD
HETATM    7  N6  UNL     1      60.530  44.674  39.014  1.00  0.00    -0.263 N 
ENDROOT
BRANCH   1   8
HETATM    8  C5  UNL     1      62.035  43.237  37.599  1.00  0.00     0.211 C 
BRANCH   8   9
HETATM    9  N1  UNL     1      62.304  42.240  38.576  1.00  0.00    -0.321 N 
HETATM   10  C4  UNL     1      61.497  41.189  39.033  1.00  0.00     0.258 C 
HETATM   11  O4  UNL     1      60.353  41.001  38.580  1.00  0.00    -0.270 OA
ATOM     12  H1  UNL     1      63.224  42.300  39.012  1.00  0.00     0.165 HD
BRANCH  10  13
HETATM   13  C3  UNL     1      61.950  40.232  40.080  1.00  0.00     0.309 C 
BRANCH  13  14
HETATM   14  C2  UNL     1      62.927  39.251  39.536  1.00  0.00     0.296 C 
HETATM   15  O2  UNL     1      63.453  38.355  40.213  1.00  0.00    -0.262 OA
BRANCH  14  16
HETATM   16  O1  UNL     1      63.265  39.346  38.201  1.00  0.00    -0.324 OA
HETATM   17  C1  UNL     1      64.413  38.682  37.683  1.00  0.00     0.213 C 
ENDBRANCH  14  16
ENDBRANCH  13  14
BRANCH  13  18
HETATM   18  O3  UNL     1      62.458  40.888  41.196  1.00  0.00    -0.377 OA
ATOM     19  H3  UNL     1      62.252  40.420  41.997  1.00  0.00     0.211 HD
ENDBRANCH  13  18
ENDBRANCH  10  13
ENDBRANCH   8   9
BRANCH   8  20
HETATM   20  O5  UNL     1      63.068  44.248  37.858  1.00  0.00    -0.365 OA
ATOM     21  H5  UNL     1      62.794  44.982  37.321  1.00  0.00     0.212 HD
ENDBRANCH   8  20
BRANCH   8  22
HETATM   22  C6  UNL     1      62.382  42.871  36.176  1.00  0.00     0.374 C 
BRANCH  22  23
HETATM   23  N2  UNL     1      63.503  43.652  35.681  1.00  0.00    -0.048 N 
ATOM     24  H23 UNL     1      63.187  44.489  35.192  1.00  0.00     0.277 HD
ATOM     25  H22 UNL     1      64.012  44.098  36.444  1.00  0.00     0.277 HD
ATOM     26  H21 UNL     1      64.124  43.091  35.097  1.00  0.00     0.277 HD
ENDBRANCH  22  23
BRANCH  22  27
HETATM   27  O6  UNL     1      62.634  41.554  35.931  1.00  0.00    -0.366 OA
ATOM     28  H6  UNL     1      63.466  41.217  36.242  1.00  0.00     0.212 HD
ENDBRANCH  22  27
ENDBRANCH   8  22
ENDBRANCH   1   8
BRANCH   2  29
HETATM   29  O7  UNL     1      59.250  45.172  36.486  1.00  0.00    -0.391 OA
ATOM     30  H7  UNL     1      59.116  45.402  35.574  1.00  0.00     0.210 HD
ENDBRANCH   2  29
BRANCH   7  31
HETATM   31  C12 UNL     1      59.867  44.088  40.142  1.00  0.00     0.196 A 
HETATM   32  N7  UNL     1      58.904  43.234  40.127  1.00  0.00    -0.288 N 
HETATM   33  C13 UNL     1      58.471  42.854  41.399  1.00  0.00     0.330 A 
ATOM     34  H7  UNL     1      58.496  42.869  39.266  1.00  0.00     0.172 HD
HETATM   35  O9  UNL     1      57.547  42.034  41.663  1.00  0.00    -0.246 OA
HETATM   36  N8  UNL     1      59.270  43.565  42.321  1.00  0.00    -0.268 N 
HETATM   37  C14 UNL     1      59.186  43.494  43.768  1.00  0.00     0.165 C 
HETATM   38  C15 UNL     1      60.161  44.352  41.542  1.00  0.00     0.297 A 
HETATM   39  O10 UNL     1      61.023  45.117  42.047  1.00  0.00    -0.264 OA
ENDBRANCH   7  31
BRANCH   3  40
HETATM   40  N3  UNL     1      60.823  47.161  35.719  1.00  0.00    -0.070 N 
ATOM     41  H33 UNL     1      61.367  47.013  34.869  1.00  0.00     0.274 HD
ATOM     42  H32 UNL     1      59.913  46.895  35.345  1.00  0.00     0.274 HD
ATOM     43  H31 UNL     1      60.851  48.127  36.046  1.00  0.00     0.274 HD
ENDBRANCH   3  40
BRANCH   4  44
HETATM   44  C11 UNL     1      61.217  48.234  38.441  1.00  0.00     0.342 C 
BRANCH  44  45
HETATM   45  N4  UNL     1      61.161  48.364  39.887  1.00  0.00    -0.051 N 
ATOM     46  H43 UNL     1      61.957  47.933  40.357  1.00  0.00     0.277 HD
ATOM     47  H42 UNL     1      61.319  49.319  40.209  1.00  0.00     0.277 HD
ATOM     48  H41 UNL     1      60.264  47.984  40.189  1.00  0.00     0.277 HD
ENDBRANCH  44  45
BRANCH  44  49
HETATM   49  O8  UNL     1      62.537  48.398  38.056  1.00  0.00    -0.368 OA
ATOM     50  H8  UNL     1      62.948  49.160  38.446  1.00  0.00     0.212 HD
ENDBRANCH  44  49
ENDBRANCH   4  44
TORSDOF 16
ENDMDL
MODEL 2
REMARK VINA RESULT: -7.094252720      2.361      5.598
REMARK  16 active torsions:
REMARK  status: ('A' for Active; 'I' for Inactive)
REMARK    1  A    between atoms: O1_2  and  C2_3 
REMARK    2  A    between atoms: C2_3  and  C3_5 
REMARK    3  A    between atoms: C3_5  and  O3_6 
REMARK    4  A    between atoms: C3_5  and  C4_8 
REMARK       I    between atoms: C4_8  and  N1_10 
REMARK    5  A    between atoms: N1_10  and  C5_12 
REMARK    6  A    between atoms: C5_12  and  O5_13 
REMARK    7  A    between atoms: C5_12  and  C6_15 
REMARK    8  A    between atoms: C5_12  and  C7_22 
REMARK    9  A    between atoms: C6_15  and  N2_16 
REMARK   10  A    between atoms: C6_15  and  O6_20 
REMARK   11  A    between atoms: C8_23  and  O7_24 
REMARK   12  A    between atoms: C9_26  and  N3_27 
REMARK   13  A    between atoms: C10_31  and  C11_32 
REMARK   14  A    between atoms: C11_32  and  N4_33 
REMARK   15  A    between atoms: C11_32  and  O8_37 
REMARK   16  A    between atoms: N6_41  and  C12_42 
ROOT
HETATM    1  C7  UNL     1      61.759  42.360  39.086  1.00  0.00     0.200 C 
HETATM    2  C8  UNL     1      61.627  43.770  38.523  1.00  0.00     0.180 C 
HETATM    3  C9  UNL     1      60.805  43.869  37.288  1.00  0.00     0.242 C 
HETATM    4  C10 UNL     1      61.399  42.906  36.284  1.00  0.00     0.188 C 
HETATM    5  N5  UNL     1      61.428  41.592  36.815  1.00  0.00    -0.321 N 
ATOM      6  H5  UNL     1      61.032  40.802  36.307  1.00  0.00     0.181 HD
HETATM    7  N6  UNL     1      62.020  41.429  38.058  1.00  0.00    -0.263 N 
ENDROOT
BRANCH   1   8
HETATM    8  C5  UNL     1      60.679  42.146  40.063  1.00  0.00     0.211 C 
BRANCH   8   9
HETATM    9  N1  UNL     1      61.083  41.710  41.354  1.00  0.00    -0.321 N 
HETATM   10  C4  UNL     1      60.401  40.923  42.292  1.00  0.00     0.258 C 
HETATM   11  O4  UNL     1      59.260  40.480  42.063  1.00  0.00    -0.270 OA
ATOM     12  H1  UNL     1      62.013  42.017  41.642  1.00  0.00     0.165 HD
BRANCH  10  13
HETATM   13  C3  UNL     1      60.988  40.565  43.612  1.00  0.00     0.309 C 
BRANCH  13  14
HETATM   14  C2  UNL     1      62.473  40.653  43.590  1.00  0.00     0.296 C 
HETATM   15  O2  UNL     1      63.098  41.719  43.484  1.00  0.00    -0.262 OA
BRANCH  14  16
HETATM   16  O1  UNL     1      63.192  39.480  43.694  1.00  0.00    -0.324 OA
HETATM   17  C1  UNL     1      62.537  38.217  43.749  1.00  0.00     0.213 C 
ENDBRANCH  14  16
ENDBRANCH  13  14
BRANCH  13  18
HETATM   18  O3  UNL     1      60.449  41.328  44.642  1.00  0.00    -0.377 OA
ATOM     19  H3  UNL     1      59.555  41.588  44.451  1.00  0.00     0.211 HD
ENDBRANCH  13  18
ENDBRANCH  10  13
ENDBRANCH   8   9
BRANCH   8  20
HETATM   20  O5  UNL     1      60.007  40.967  39.504  1.00  0.00    -0.365 OA
ATOM     21  H5  UNL     1      59.349  40.762  40.158  1.00  0.00     0.212 HD
ENDBRANCH   8  20
BRANCH   8  22
HETATM   22  C6  UNL     1      59.537  43.134  40.032  1.00  0.00     0.374 C 
BRANCH  22  23
HETATM   23  N2  UNL     1      58.250  42.461  39.973  1.00  0.00    -0.048 N 
ATOM     24  H23 UNL     1      58.051  42.119  39.033  1.00  0.00     0.277 HD
ATOM     25  H22 UNL     1      58.274  41.568  40.465  1.00  0.00     0.277 HD
ATOM     26  H21 UNL     1      57.498  43.058  40.320  1.00  0.00     0.277 HD
ENDBRANCH  22  23
BRANCH  22  27
HETATM   27  O6  UNL     1      59.499  44.050  41.041  1.00  0.00    -0.366 OA
ATOM     28  H6  UNL     1      58.743  44.017  41.615  1.00  0.00     0.212 HD
ENDBRANCH  22  27
ENDBRANCH   8  22
ENDBRANCH   1   8
BRANCH   2  29
HETATM   29  O7  UNL     1      62.943  44.152  38.167  1.00  0.00    -0.391 OA
ATOM     30  H7  UNL     1      62.837  44.807  37.488  1.00  0.00     0.210 HD
ENDBRANCH   2  29
BRANCH   7  31
HETATM   31  C12 UNL     1      62.882  40.289  38.170  1.00  0.00     0.196 A 
HETATM   32  N7  UNL     1      63.735  39.866  37.304  1.00  0.00    -0.288 N 
HETATM   33  C13 UNL     1      64.426  38.721  37.710  1.00  0.00     0.330 A 
ATOM     34  H7  UNL     1      63.893  40.324  36.406  1.00  0.00     0.172 HD
HETATM   35  O9  UNL     1      65.314  38.108  37.052  1.00  0.00    -0.246 OA
HETATM   36  N8  UNL     1      63.936  38.394  38.993  1.00  0.00    -0.268 N 
HETATM   37  C14 UNL     1      64.359  37.277  39.817  1.00  0.00     0.165 C 
HETATM   38  C15 UNL     1      62.957  39.377  39.300  1.00  0.00     0.297 A 
HETATM   39  O10 UNL     1      62.311  39.389  40.381  1.00  0.00    -0.264 OA
ENDBRANCH   7  31
BRANCH   3  40
HETATM   40  N3  UNL     1      60.966  45.214  36.761  1.00  0.00    -0.070 N 
ATOM     41  H33 UNL     1      60.553  45.928  37.361  1.00  0.00     0.274 HD
ATOM     42  H32 UNL     1      61.929  45.544  36.803  1.00  0.00     0.274 HD
ATOM     43  H31 UNL     1      60.584  45.222  35.815  1.00  0.00     0.274 HD
ENDBRANCH   3  40
BRANCH   4  44
HETATM   44  C11 UNL     1      60.638  42.881  34.983  1.00  0.00     0.342 C 
BRANCH  44  45
HETATM   45  N4  UNL     1      61.582  43.200  33.926  1.00  0.00    -0.051 N 
ATOM     46  H43 UNL     1      61.678  44.202  33.766  1.00  0.00     0.277 HD
ATOM     47  H42 UNL     1      62.551  43.015  34.187  1.00  0.00     0.277 HD
ATOM     48  H41 UNL     1      61.288  42.689  33.094  1.00  0.00     0.277 HD
ENDBRANCH  44  45
BRANCH  44  49
HETATM   49  O8  UNL     1      60.091  41.642  34.695  1.00  0.00    -0.368 OA
ATOM     50  H8  UNL     1      59.830  41.550  33.787  1.00  0.00     0.212 HD
ENDBRANCH  44  49
ENDBRANCH   4  44
TORSDOF 16
ENDMDL
MODEL 3
REMARK VINA RESULT: -6.987173656      2.181      5.348
REMARK  16 active torsions:
REMARK  status: ('A' for Active; 'I' for Inactive)
REMARK    1  A    between atoms: O1_2  and  C2_3 
REMARK    2  A    between atoms: C2_3  and  C3_5 
REMARK    3  A    between atoms: C3_5  and  O3_6 
REMARK    4  A    between atoms: C3_5  and  C4_8 
REMARK       I    between atoms: C4_8  and  N1_10 
REMARK    5  A    between atoms: N1_10  and  C5_12 
REMARK    6  A    between atoms: C5_12  and  O5_13 
REMARK    7  A    between atoms: C5_12  and  C6_15 
REMARK    8  A    between atoms: C5_12  and  C7_22 
REMARK    9  A    between atoms: C6_15  and  N2_16 
REMARK   10  A    between atoms: C6_15  and  O6_20 
REMARK   11  A    between atoms: C8_23  and  O7_24 
REMARK   12  A    between atoms: C9_26  and  N3_27 
REMARK   13  A    between atoms: C10_31  and  C11_32 
REMARK   14  A    between atoms: C11_32  and  N4_33 
REMARK   15  A    between atoms: C11_32  and  O8_37 
REMARK   16  A    between atoms: N6_41  and  C12_42 
ROOT
HETATM    1  C7  UNL     1      61.856  42.951  38.843  1.00  0.00     0.200 C 
HETATM    2  C8  UNL     1      61.981  44.281  38.109  1.00  0.00     0.180 C 
HETATM    3  C9  UNL     1      61.332  44.314  36.772  1.00  0.00     0.242 C 
HETATM    4  C10 UNL     1      61.906  43.166  35.974  1.00  0.00     0.188 C 
HETATM    5  N5  UNL     1      61.697  41.938  36.651  1.00  0.00    -0.321 N 
ATOM      6  H5  UNL     1      61.261  41.141  36.188  1.00  0.00     0.181 HD
HETATM    7  N6  UNL     1      62.109  41.870  37.973  1.00  0.00    -0.263 N 
ENDROOT
BRANCH   1   8
HETATM    8  C5  UNL     1      60.649  42.995  39.685  1.00  0.00     0.211 C 
BRANCH   8   9
HETATM    9  N1  UNL     1      60.693  42.227  40.879  1.00  0.00    -0.321 N 
HETATM   10  C4  UNL     1      59.816  41.238  41.345  1.00  0.00     0.258 C 
HETATM   11  O4  UNL     1      58.813  40.898  40.692  1.00  0.00    -0.270 OA
ATOM     12  H1  UNL     1      61.485  42.425  41.492  1.00  0.00     0.165 HD
BRANCH  10  13
HETATM   13  C3  UNL     1      60.022  40.534  42.640  1.00  0.00     0.309 C 
BRANCH  13  14
HETATM   14  C2  UNL     1      61.384  39.941  42.727  1.00  0.00     0.296 C 
HETATM   15  O2  UNL     1      61.600  38.755  43.017  1.00  0.00    -0.262 OA
BRANCH  14  16
HETATM   16  O1  UNL     1      62.464  40.760  42.471  1.00  0.00    -0.324 OA
HETATM   17  C1  UNL     1      63.103  41.486  43.516  1.00  0.00     0.213 C 
ENDBRANCH  14  16
ENDBRANCH  13  14
BRANCH  13  18
HETATM   18  O3  UNL     1      59.758  41.360  43.727  1.00  0.00    -0.377 OA
ATOM     19  H3  UNL     1      60.233  41.079  44.500  1.00  0.00     0.211 HD
ENDBRANCH  13  18
ENDBRANCH  10  13
ENDBRANCH   8   9
BRANCH   8  20
HETATM   20  O5  UNL     1      59.683  42.268  38.852  1.00  0.00    -0.365 OA
ATOM     21  H5  UNL     1      59.330  42.945  38.287  1.00  0.00     0.212 HD
ENDBRANCH   8  20
BRANCH   8  22
HETATM   22  C6  UNL     1      59.949  44.329  39.788  1.00  0.00     0.374 C 
BRANCH  22  23
HETATM   23  N2  UNL     1      58.504  44.177  39.769  1.00  0.00    -0.048 N 
ATOM     24  H23 UNL     1      58.147  44.128  38.815  1.00  0.00     0.277 HD
ATOM     25  H22 UNL     1      58.222  43.251  40.091  1.00  0.00     0.277 HD
ATOM     26  H21 UNL     1      58.041  44.914  40.302  1.00  0.00     0.277 HD
ENDBRANCH  22  23
BRANCH  22  27
HETATM   27  O6  UNL     1      60.286  45.112  40.852  1.00  0.00    -0.366 OA
ATOM     28  H6  UNL     1      61.197  45.096  41.118  1.00  0.00     0.212 HD
ENDBRANCH  22  27
ENDBRANCH   8  22
ENDBRANCH   1   8
BRANCH   2  29
HETATM   29  O7  UNL     1      63.370  44.454  37.893  1.00  0.00    -0.391 OA
ATOM     30  H7  UNL     1      63.449  45.292  37.452  1.00  0.00     0.210 HD
ENDBRANCH   2  29
BRANCH   7  31
HETATM   31  C12 UNL     1      62.792  40.660  38.328  1.00  0.00     0.196 A 
HETATM   32  N7  UNL     1      62.682  39.992  39.422  1.00  0.00    -0.288 N 
HETATM   33  C13 UNL     1      63.487  38.851  39.466  1.00  0.00     0.330 A 
ATOM     34  H7  UNL     1      62.065  40.269  40.186  1.00  0.00     0.172 HD
HETATM   35  O9  UNL     1      63.566  38.025  40.420  1.00  0.00    -0.246 OA
HETATM   36  N8  UNL     1      64.185  38.807  38.240  1.00  0.00    -0.268 N 
HETATM   37  C14 UNL     1      65.142  37.796  37.830  1.00  0.00     0.165 C 
HETATM   38  C15 UNL     1      63.757  39.947  37.506  1.00  0.00     0.297 A 
HETATM   39  O10 UNL     1      64.184  40.221  36.354  1.00  0.00    -0.264 OA
ENDBRANCH   7  31
BRANCH   3  40
HETATM   40  N3  UNL     1      61.733  45.551  36.122  1.00  0.00    -0.070 N 
ATOM     41  H33 UNL     1      62.712  45.785  36.282  1.00  0.00     0.274 HD
ATOM     42  H32 UNL     1      61.779  45.468  35.106  1.00  0.00     0.274 HD
ATOM     43  H31 UNL     1      61.093  46.283  36.431  1.00  0.00     0.274 HD
ENDBRANCH   3  40
BRANCH   4  44
HETATM   44  C11 UNL     1      61.308  43.061  34.594  1.00  0.00     0.342 C 
BRANCH  44  45
HETATM   45  N4  UNL     1      61.240  41.648  34.261  1.00  0.00    -0.051 N 
ATOM     46  H43 UNL     1      60.302  41.261  34.354  1.00  0.00     0.277 HD
ATOM     47  H42 UNL     1      61.360  41.467  33.265  1.00  0.00     0.277 HD
ATOM     48  H41 UNL     1      61.930  41.169  34.840  1.00  0.00     0.277 HD
ENDBRANCH  44  45
BRANCH  44  49
HETATM   49  O8  UNL     1      60.024  43.571  34.517  1.00  0.00    -0.368 OA
ATOM     50  H8  UNL     1      59.451  43.059  33.959  1.00  0.00     0.212 HD
ENDBRANCH  44  49
ENDBRANCH   4  44
TORSDOF 16
ENDMDL
MODEL 4
REMARK VINA RESULT: -6.908240418      1.818      2.118
REMARK  16 active torsions:
REMARK  status: ('A' for Active; 'I' for Inactive)
REMARK    1  A    between atoms: O1_2  and  C2_3 
REMARK    2  A    between atoms: C2_3  and  C3_5 
REMARK    3  A    between atoms: C3_5  and  O3_6 
REMARK    4  A    between atoms: C3_5  and  C4_8 
REMARK       I    between atoms: C4_8  and  N1_10 
REMARK    5  A    between atoms: N1_10  and  C5_12 
REMARK    6  A    between atoms: C5_12  and  O5_13 
REMARK    7  A    between atoms: C5_12  and  C6_15 
REMARK    8  A    between atoms: C5_12  and  C7_22 
REMARK    9  A    between atoms: C6_15  and  N2_16 
REMARK   10  A    between atoms: C6_15  and  O6_20 
REMARK   11  A    between atoms: C8_23  and  O7_24 
REMARK   12  A    between atoms: C9_26  and  N3_27 
REMARK   13  A    between atoms: C10_31  and  C11_32 
REMARK   14  A    between atoms: C11_32  and  N4_33 
REMARK   15  A    between atoms: C11_32  and  O8_37 
REMARK   16  A    between atoms: N6_41  and  C12_42 
ROOT
HETATM    1  C7  UNL     1      60.592  43.963  37.315  1.00  0.00     0.200 C 
HETATM    2  C8  UNL     1      60.040  45.065  36.418  1.00  0.00     0.180 C 
HETATM    3  C9  UNL     1      60.973  46.199  36.185  1.00  0.00     0.242 C 
HETATM    4  C10 UNL     1      61.383  46.719  37.544  1.00  0.00     0.188 C 
HETATM    5  N5  UNL     1      61.967  45.683  38.317  1.00  0.00    -0.321 N 
ATOM      6  H5  UNL     1      62.878  45.797  38.760  1.00  0.00     0.181 HD
HETATM    7  N6  UNL     1      61.243  44.508  38.441  1.00  0.00    -0.263 N 
ENDROOT
BRANCH   1   8
HETATM    8  C5  UNL     1      61.242  42.953  36.463  1.00  0.00     0.211 C 
BRANCH   8   9
HETATM    9  N1  UNL     1      61.516  41.701  37.079  1.00  0.00    -0.321 N 
HETATM   10  C4  UNL     1      62.730  41.173  37.540  1.00  0.00     0.258 C 
HETATM   11  O4  UNL     1      63.794  41.812  37.452  1.00  0.00    -0.270 OA
ATOM     12  H1  UNL     1      60.706  41.095  37.203  1.00  0.00     0.165 HD
BRANCH  10  13
HETATM   13  C3  UNL     1      62.828  39.824  38.162  1.00  0.00     0.309 C 
BRANCH  13  14
HETATM   14  C2  UNL     1      64.185  39.240  37.987  1.00  0.00     0.296 C 
HETATM   15  O2  UNL     1      64.603  38.778  36.915  1.00  0.00    -0.262 OA
BRANCH  14  16
HETATM   16  O1  UNL     1      65.024  39.213  39.082  1.00  0.00    -0.324 OA
HETATM   17  C1  UNL     1      65.857  38.088  39.345  1.00  0.00     0.213 C 
ENDBRANCH  14  16
ENDBRANCH  13  14
BRANCH  13  18
HETATM   18  O3  UNL     1      62.452  39.842  39.500  1.00  0.00    -0.377 OA
ATOM     19  H3  UNL     1      62.302  40.729  39.807  1.00  0.00     0.211 HD
ENDBRANCH  13  18
ENDBRANCH  10  13
ENDBRANCH   8   9
BRANCH   8  20
HETATM   20  O5  UNL     1      62.576  43.537  36.280  1.00  0.00    -0.365 OA
ATOM     21  H5  UNL     1      63.009  43.355  37.106  1.00  0.00     0.212 HD
ENDBRANCH   8  20
BRANCH   8  22
HETATM   22  C6  UNL     1      60.788  42.891  35.025  1.00  0.00     0.374 C 
BRANCH  22  23
HETATM   23  N2  UNL     1      61.871  43.204  34.108  1.00  0.00    -0.048 N 
ATOM     24  H23 UNL     1      62.634  42.532  34.189  1.00  0.00     0.277 HD
ATOM     25  H22 UNL     1      61.604  43.024  33.140  1.00  0.00     0.277 HD
ATOM     26  H21 UNL     1      62.203  44.161  34.231  1.00  0.00     0.277 HD
ENDBRANCH  22  23
BRANCH  22  27
HETATM   27  O6  UNL     1      60.204  41.727  34.621  1.00  0.00    -0.366 OA
ATOM     28  H6  UNL     1      60.199  41.558  33.687  1.00  0.00     0.212 HD
ENDBRANCH  22  27
ENDBRANCH   8  22
ENDBRANCH   1   8
BRANCH   2  29
HETATM   29  O7  UNL     1      58.928  45.590  37.120  1.00  0.00    -0.391 OA
ATOM     30  H7  UNL     1      59.208  46.446  37.422  1.00  0.00     0.210 HD
ENDBRANCH   2  29
BRANCH   7  31
HETATM   31  C12 UNL     1      61.220  43.952  39.763  1.00  0.00     0.196 A 
HETATM   32  N7  UNL     1      61.586  42.772  40.122  1.00  0.00    -0.288 N 
HETATM   33  C13 UNL     1      61.439  42.531  41.491  1.00  0.00     0.330 A 
ATOM     34  H7  UNL     1      61.948  42.077  39.469  1.00  0.00     0.172 HD
HETATM   35  O9  UNL     1      61.724  41.460  42.099  1.00  0.00    -0.246 OA
HETATM   36  N8  UNL     1      60.915  43.717  42.050  1.00  0.00    -0.268 N 
HETATM   37  C14 UNL     1      60.596  43.941  43.448  1.00  0.00     0.165 C 
HETATM   38  C15 UNL     1      60.770  44.629  40.970  1.00  0.00     0.297 A 
HETATM   39  O10 UNL     1      60.324  45.797  41.112  1.00  0.00    -0.264 OA
ENDBRANCH   7  31
BRANCH   3  40
HETATM   40  N3  UNL     1      60.227  47.250  35.514  1.00  0.00    -0.070 N 
ATOM     41  H33 UNL     1      60.383  48.171  35.923  1.00  0.00     0.274 HD
ATOM     42  H32 UNL     1      60.582  47.456  34.581  1.00  0.00     0.274 HD
ATOM     43  H31 UNL     1      59.244  46.977  35.514  1.00  0.00     0.274 HD
ENDBRANCH   3  40
BRANCH   4  44
HETATM   44  C11 UNL     1      62.362  47.863  37.457  1.00  0.00     0.342 C 
BRANCH  44  45
HETATM   45  N4  UNL     1      63.528  47.376  36.740  1.00  0.00    -0.051 N 
ATOM     46  H43 UNL     1      64.099  46.738  37.293  1.00  0.00     0.277 HD
ATOM     47  H42 UNL     1      63.293  46.727  35.989  1.00  0.00     0.277 HD
ATOM     48  H41 UNL     1      64.044  48.194  36.414  1.00  0.00     0.277 HD
ENDBRANCH  44  45
BRANCH  44  49
HETATM   49  O8  UNL     1      61.867  48.953  36.762  1.00  0.00    -0.368 OA
ATOM     50  H8  UNL     1      61.791  48.798  35.828  1.00  0.00     0.212 HD
ENDBRANCH  44  49
ENDBRANCH   4  44
TORSDOF 16
ENDMDL
MODEL 5
REMARK VINA RESULT: -6.867626598      2.211      6.424
REMARK  16 active torsions:
REMARK  status: ('A' for Active; 'I' for Inactive)
REMARK    1  A    between atoms: O1_2  and  C2_3 
REMARK    2  A    between atoms: C2_3  and  C3_5 
REMARK    3  A    between atoms: C3_5  and  O3_6 
REMARK    4  A    between atoms: C3_5  and  C4_8 
REMARK       I    between atoms: C4_8  and  N1_10 
REMARK    5  A    between atoms: N1_10  and  C5_12 
REMARK    6  A    between atoms: C5_12  and  O5_13 
REMARK    7  A    between atoms: C5_12  and  C6_15 
REMARK    8  A    between atoms: C5_12  and  C7_22 
REMARK    9  A    between atoms: C6_15  and  N2_16 
REMARK   10  A    between atoms: C6_15  and  O6_20 
REMARK   11  A    between atoms: C8_23  and  O7_24 
REMARK   12  A    between atoms: C9_26  and  N3_27 
REMARK   13  A    between atoms: C10_31  and  C11_32 
REMARK   14  A    between atoms: C11_32  and  N4_33 
REMARK   15  A    between atoms: C11_32  and  O8_37 
REMARK   16  A    between atoms: N6_41  and  C12_42 
ROOT
HETATM    1  C7  UNL     1      60.175  41.849  39.747  1.00  0.00     0.200 C 
HETATM    2  C8  UNL     1      58.778  41.940  40.350  1.00  0.00     0.180 C 
HETATM    3  C9  UNL     1      58.751  42.182  41.816  1.00  0.00     0.242 C 
HETATM    4  C10 UNL     1      59.580  41.093  42.458  1.00  0.00     0.188 C 
HETATM    5  N5  UNL     1      60.895  41.094  41.930  1.00  0.00    -0.321 N 
ATOM      6  H5  UNL     1      61.714  41.125  42.537  1.00  0.00     0.181 HD
HETATM    7  N6  UNL     1      61.019  41.054  40.550  1.00  0.00    -0.263 N 
ENDROOT
BRANCH   1   8
HETATM    8  C5  UNL     1      60.578  43.193  39.301  1.00  0.00     0.211 C 
BRANCH   8   9
HETATM    9  N1  UNL     1      60.777  43.352  37.902  1.00  0.00    -0.321 N 
HETATM   10  C4  UNL     1      61.916  43.110  37.123  1.00  0.00     0.258 C 
HETATM   11  O4  UNL     1      62.972  42.685  37.627  1.00  0.00    -0.270 OA
ATOM     12  H1  UNL     1      59.965  43.695  37.387  1.00  0.00     0.165 HD
BRANCH  10  13
HETATM   13  C3  UNL     1      61.941  43.342  35.653  1.00  0.00     0.309 C 
BRANCH  13  14
HETATM   14  C2  UNL     1      60.806  44.199  35.216  1.00  0.00     0.296 C 
HETATM   15  O2  UNL     1      60.148  43.997  34.185  1.00  0.00    -0.262 OA
BRANCH  14  16
HETATM   16  O1  UNL     1      60.470  45.280  36.007  1.00  0.00    -0.324 OA
HETATM   17  C1  UNL     1      61.263  46.462  36.013  1.00  0.00     0.213 C 
ENDBRANCH  14  16
ENDBRANCH  13  14
BRANCH  13  18
HETATM   18  O3  UNL     1      63.161  43.861  35.231  1.00  0.00    -0.377 OA
ATOM     19  H3  UNL     1      63.691  44.143  35.967  1.00  0.00     0.211 HD
ENDBRANCH  13  18
ENDBRANCH  10  13
ENDBRANCH   8   9
BRANCH   8  20
HETATM   20  O5  UNL     1      61.937  43.288  39.847  1.00  0.00    -0.365 OA
ATOM     21  H5  UNL     1      61.862  43.975  40.498  1.00  0.00     0.212 HD
ENDBRANCH   8  20
BRANCH   8  22
HETATM   22  C6  UNL     1      59.933  44.360  40.009  1.00  0.00     0.374 C 
BRANCH  22  23
HETATM   23  N2  UNL     1      60.890  45.084  40.827  1.00  0.00    -0.048 N 
ATOM     24  H23 UNL     1      60.926  44.712  41.776  1.00  0.00     0.277 HD
ATOM     25  H22 UNL     1      61.849  44.885  40.543  1.00  0.00     0.277 HD
ATOM     26  H21 UNL     1      60.702  46.087  40.827  1.00  0.00     0.277 HD
ENDBRANCH  22  23
BRANCH  22  27
HETATM   27  O6  UNL     1      59.271  45.256  39.224  1.00  0.00    -0.366 OA
ATOM     28  H6  UNL     1      58.387  45.481  39.489  1.00  0.00     0.212 HD
ENDBRANCH  22  27
ENDBRANCH   8  22
ENDBRANCH   1   8
BRANCH   2  29
HETATM   29  O7  UNL     1      58.199  40.666  40.136  1.00  0.00    -0.391 OA
ATOM     30  H7  UNL     1      57.358  40.698  40.578  1.00  0.00     0.210 HD
ENDBRANCH   2  29
BRANCH   7  31
HETATM   31  C12 UNL     1      62.027  40.158  40.062  1.00  0.00     0.196 A 
HETATM   32  N7  UNL     1      62.571  40.153  38.896  1.00  0.00    -0.288 N 
HETATM   33  C13 UNL     1      63.526  39.147  38.727  1.00  0.00     0.330 A 
ATOM     34  H7  UNL     1      62.327  40.820  38.163  1.00  0.00     0.172 HD
HETATM   35  O9  UNL     1      64.203  38.924  37.683  1.00  0.00    -0.246 OA
HETATM   36  N8  UNL     1      63.580  38.439  39.947  1.00  0.00    -0.268 N 
HETATM   37  C14 UNL     1      64.433  37.304  40.246  1.00  0.00     0.165 C 
HETATM   38  C15 UNL     1      62.637  39.066  40.805  1.00  0.00     0.297 A 
HETATM   39  O10 UNL     1      62.424  38.686  41.986  1.00  0.00    -0.264 OA
ENDBRANCH   7  31
BRANCH   3  40
HETATM   40  N3  UNL     1      57.378  42.016  42.263  1.00  0.00    -0.070 N 
ATOM     41  H33 UNL     1      56.696  42.177  41.521  1.00  0.00     0.274 HD
ATOM     42  H32 UNL     1      57.138  41.044  42.457  1.00  0.00     0.274 HD
ATOM     43  H31 UNL     1      57.240  42.627  43.068  1.00  0.00     0.274 HD
ENDBRANCH   3  40
BRANCH   4  44
HETATM   44  C11 UNL     1      59.665  41.235  43.957  1.00  0.00     0.342 C 
BRANCH  44  45
HETATM   45  N4  UNL     1      60.923  40.641  44.374  1.00  0.00    -0.051 N 
ATOM     46  H43 UNL     1      61.504  40.344  43.590  1.00  0.00     0.277 HD
ATOM     47  H42 UNL     1      61.574  41.319  44.771  1.00  0.00     0.277 HD
ATOM     48  H41 UNL     1      60.700  39.880  45.016  1.00  0.00     0.277 HD
ENDBRANCH  44  45
BRANCH  44  49
HETATM   49  O8  UNL     1      59.663  42.552  44.381  1.00  0.00    -0.368 OA
ATOM     50  H8  UNL     1      59.610  42.641  45.325  1.00  0.00     0.212 HD
ENDBRANCH  44  49
ENDBRANCH   4  44
TORSDOF 16
ENDMDL
