MODEL 1
REMARK VINA RESULT: -7.483968411      0.000      0.000
REMARK  7 active torsions:
REMARK  status: ('A' for Active; 'I' for Inactive)
REMARK    1  A    between atoms: N1_1  and  N2_4 
REMARK    2  A    between atoms: N2_4  and  C1_6 
REMARK    3  A    between atoms: C2_9  and  N4_10 
REMARK    4  A    between atoms: N4_10  and  N5_12 
REMARK    5  A    between atoms: C3_14  and  C4_15 
REMARK    6  A    between atoms: C6_19  and  C7_20 
REMARK    7  A    between atoms: N7_21  and  N8_23 
ROOT
HETATM    1  N4  UNL     1      35.670  -2.269  12.943  1.00  0.00    -0.131 N 
ATOM      2  H4  UNL     1      36.176  -1.751  13.660  1.00  0.00     0.205 HD
ENDROOT
BRANCH   1   3
HETATM    3  C2  UNL     1      35.413  -3.537  13.070  1.00  0.00     0.713 A 
HETATM    4  N3  UNL     1      34.602  -4.211  12.252  1.00  0.00    -0.169 N 
HETATM    5  C1  UNL     1      34.362  -5.519  12.415  1.00  0.00     0.175 A 
ATOM      6  H3  UNL     1      34.154  -3.717  11.481  1.00  0.00     0.186 HD
HETATM    7  C9  UNL     1      34.970  -6.206  13.468  1.00  0.00     0.164 A 
HETATM    8  N12 UNL     1      35.788  -5.511  14.290  1.00  0.00    -0.272 N 
HETATM    9 CL1  UNL     1      34.659  -7.922  13.691  1.00  0.00    -0.059 Cl
HETATM   10  N11 UNL     1      35.988  -4.234  14.083  1.00  0.00    -0.129 N 
ATOM     11  H12 UNL     1      36.249  -5.981  15.069  1.00  0.00     0.188 HD
ATOM     12  H11 UNL     1      36.611  -3.735  14.718  1.00  0.00     0.205 HD
BRANCH   5  13
HETATM   13  N2  UNL     1      33.595  -6.183  11.651  1.00  0.00    -0.289 N 
ATOM     14  H2  UNL     1      34.034  -6.623  10.842  1.00  0.00     0.188 HD
BRANCH  13  15
HETATM   15  N1  UNL     1      32.243  -6.375  11.787  1.00  0.00    -0.344 N 
ATOM     16  H12 UNL     1      31.742  -5.616  12.248  1.00  0.00     0.176 HD
ATOM     17  H11 UNL     1      31.697  -7.181  11.481  1.00  0.00     0.176 HD
ENDBRANCH  13  15
ENDBRANCH   5  13
ENDBRANCH   1   3
BRANCH   1  18
HETATM   18  N5  UNL     1      35.220  -1.656  11.780  1.00  0.00    -0.293 N 
HETATM   19  C3  UNL     1      35.897  -0.740  11.213  1.00  0.00     0.164 C 
ATOM     20  H5  UNL     1      34.330  -1.946  11.373  1.00  0.00     0.186 HD
BRANCH  19  21
HETATM   21  C4  UNL     1      37.181  -0.332  11.810  1.00  0.00     0.165 A 
HETATM   22  N6  UNL     1      38.397  -0.819  11.556  1.00  0.00    -0.343 N 
HETATM   23  C5  UNL     1      39.305  -0.170  12.317  1.00  0.00     0.129 A 
ATOM     24  H6  UNL     1      38.607  -1.564  10.891  1.00  0.00     0.167 HD
HETATM   25  C6  UNL     1      38.619   0.743  13.060  1.00  0.00     0.110 A 
HETATM   26  O1  UNL     1      37.335   0.600  12.712  1.00  0.00    -0.290 OA
BRANCH  25  27
HETATM   27  C7  UNL     1      39.009   1.723  14.046  1.00  0.00     0.145 C 
HETATM   28  N7  UNL     1      38.394   2.811  14.237  1.00  0.00    -0.307 N 
ATOM     29  H7  UNL     1      38.760   3.429  14.961  1.00  0.00     0.186 HD
BRANCH  28  30
HETATM   30  N8  UNL     1      37.289   3.231  13.566  1.00  0.00    -0.276 N 
HETATM   31  C8  UNL     1      36.576   4.224  13.987  1.00  0.00     0.215 C 
HETATM   32  N9  UNL     1      35.422   4.653  13.274  1.00  0.00    -0.065 NA
HETATM   33  N10 UNL     1      36.971   4.895  15.199  1.00  0.00    -0.065 NA
ATOM     34  H8  UNL     1      37.015   2.751  12.709  1.00  0.00     0.189 HD
ENDBRANCH  28  30
ENDBRANCH  25  27
ENDBRANCH  19  21
ENDBRANCH   1  18
TORSDOF 7
ENDMDL
MODEL 2
REMARK VINA RESULT: -7.160386289      2.079      3.647
REMARK  7 active torsions:
REMARK  status: ('A' for Active; 'I' for Inactive)
REMARK    1  A    between atoms: N1_1  and  N2_4 
REMARK    2  A    between atoms: N2_4  and  C1_6 
REMARK    3  A    between atoms: C2_9  and  N4_10 
REMARK    4  A    between atoms: N4_10  and  N5_12 
REMARK    5  A    between atoms: C3_14  and  C4_15 
REMARK    6  A    between atoms: C6_19  and  C7_20 
REMARK    7  A    between atoms: N7_21  and  N8_23 
ROOT
HETATM    1  N4  UNL     1      35.600  -2.186  12.789  1.00  0.00    -0.131 N 
ATOM      2  H4  UNL     1      35.726  -1.553  13.579  1.00  0.00     0.205 HD
ENDROOT
BRANCH   1   3
HETATM    3  C2  UNL     1      35.372  -3.454  12.961  1.00  0.00     0.713 A 
HETATM    4  N3  UNL     1      34.575  -4.173  12.168  1.00  0.00    -0.169 N 
HETATM    5  C1  UNL     1      34.364  -5.480  12.377  1.00  0.00     0.175 A 
ATOM      6  H3  UNL     1      34.114  -3.715  11.382  1.00  0.00     0.186 HD
HETATM    7  C9  UNL     1      34.989  -6.116  13.451  1.00  0.00     0.164 A 
HETATM    8  N12 UNL     1      35.793  -5.376  14.246  1.00  0.00    -0.272 N 
HETATM    9 CL1  UNL     1      34.717  -7.830  13.733  1.00  0.00    -0.059 Cl
HETATM   10  N11 UNL     1      35.965  -4.102  13.996  1.00  0.00    -0.129 N 
ATOM     11  H12 UNL     1      36.266  -5.808  15.040  1.00  0.00     0.188 HD
ATOM     12  H11 UNL     1      36.577  -3.568  14.612  1.00  0.00     0.205 HD
BRANCH   5  13
HETATM   13  N2  UNL     1      33.610  -6.186  11.637  1.00  0.00    -0.289 N 
ATOM     14  H2  UNL     1      34.059  -6.651  10.848  1.00  0.00     0.188 HD
BRANCH  13  15
HETATM   15  N1  UNL     1      32.262  -6.395  11.778  1.00  0.00    -0.344 N 
ATOM     16  H12 UNL     1      31.702  -6.179  10.954  1.00  0.00     0.176 HD
ATOM     17  H11 UNL     1      31.770  -6.738  12.603  1.00  0.00     0.176 HD
ENDBRANCH  13  15
ENDBRANCH   5  13
ENDBRANCH   1   3
BRANCH   1  18
HETATM   18  N5  UNL     1      35.665  -1.736  11.476  1.00  0.00    -0.293 N 
HETATM   19  C3  UNL     1      36.325  -0.693  11.168  1.00  0.00     0.164 C 
ATOM     20  H5  UNL     1      35.174  -2.252  10.746  1.00  0.00     0.186 HD
BRANCH  19  21
HETATM   21  C4  UNL     1      37.031   0.042  12.232  1.00  0.00     0.165 A 
HETATM   22  N6  UNL     1      36.772   1.267  12.695  1.00  0.00    -0.343 N 
HETATM   23  C5  UNL     1      37.655   1.570  13.672  1.00  0.00     0.129 A 
ATOM     24  H6  UNL     1      36.025   1.878  12.364  1.00  0.00     0.167 HD
HETATM   25  C6  UNL     1      38.480   0.494  13.809  1.00  0.00     0.110 A 
HETATM   26  O1  UNL     1      38.056  -0.402  12.909  1.00  0.00    -0.290 OA
BRANCH  25  27
HETATM   27  C7  UNL     1      39.604   0.201  14.665  1.00  0.00     0.145 C 
HETATM   28  N7  UNL     1      39.744  -0.887  15.295  1.00  0.00    -0.307 N 
ATOM     29  H7  UNL     1      40.579  -0.984  15.872  1.00  0.00     0.186 HD
BRANCH  28  30
HETATM   30  N8  UNL     1      38.881  -1.937  15.272  1.00  0.00    -0.276 N 
HETATM   31  C8  UNL     1      39.180  -3.072  15.816  1.00  0.00     0.215 C 
HETATM   32  N9  UNL     1      38.267  -4.162  15.785  1.00  0.00    -0.065 NA
HETATM   33  N10 UNL     1      40.461  -3.215  16.459  1.00  0.00    -0.065 NA
ATOM     34  H8  UNL     1      37.976  -1.828  14.815  1.00  0.00     0.189 HD
ENDBRANCH  28  30
ENDBRANCH  25  27
ENDBRANCH  19  21
ENDBRANCH   1  18
TORSDOF 7
ENDMDL
MODEL 3
REMARK VINA RESULT: -7.119808271      2.707      3.714
REMARK  7 active torsions:
REMARK  status: ('A' for Active; 'I' for Inactive)
REMARK    1  A    between atoms: N1_1  and  N2_4 
REMARK    2  A    between atoms: N2_4  and  C1_6 
REMARK    3  A    between atoms: C2_9  and  N4_10 
REMARK    4  A    between atoms: N4_10  and  N5_12 
REMARK    5  A    between atoms: C3_14  and  C4_15 
REMARK    6  A    between atoms: C6_19  and  C7_20 
REMARK    7  A    between atoms: N7_21  and  N8_23 
ROOT
HETATM    1  N4  UNL     1      35.833  -2.652  13.392  1.00  0.00    -0.131 N 
ATOM      2  H4  UNL     1      36.477  -2.310  14.104  1.00  0.00     0.205 HD
ENDROOT
BRANCH   1   3
HETATM    3  C2  UNL     1      35.457  -3.896  13.352  1.00  0.00     0.713 A 
HETATM    4  N3  UNL     1      34.581  -4.374  12.466  1.00  0.00    -0.169 N 
HETATM    5  C1  UNL     1      34.218  -5.664  12.456  1.00  0.00     0.175 A 
ATOM      6  H3  UNL     1      34.176  -3.739  11.778  1.00  0.00     0.186 HD
HETATM    7  C9  UNL     1      34.765  -6.541  13.395  1.00  0.00     0.164 A 
HETATM    8  N12 UNL     1      35.652  -6.044  14.286  1.00  0.00    -0.272 N 
HETATM    9 CL1  UNL     1      34.295  -8.235  13.389  1.00  0.00    -0.059 Cl
HETATM   10  N11 UNL     1      35.971  -4.775  14.250  1.00  0.00    -0.129 N 
ATOM     11  H12 UNL     1      36.071  -6.657  14.986  1.00  0.00     0.188 HD
ATOM     12  H11 UNL     1      36.642  -4.427  14.935  1.00  0.00     0.205 HD
BRANCH   5  13
HETATM   13  N2  UNL     1      33.387  -6.143  11.624  1.00  0.00    -0.289 N 
ATOM     14  H2  UNL     1      33.773  -6.478  10.741  1.00  0.00     0.188 HD
BRANCH  13  15
HETATM   15  N1  UNL     1      32.028  -6.261  11.776  1.00  0.00    -0.344 N 
ATOM     16  H12 UNL     1      31.610  -7.071  11.319  1.00  0.00     0.176 HD
ATOM     17  H11 UNL     1      31.405  -5.636  12.287  1.00  0.00     0.176 HD
ENDBRANCH  13  15
ENDBRANCH   5  13
ENDBRANCH   1   3
BRANCH   1  18
HETATM   18  N5  UNL     1      35.311  -1.813  12.415  1.00  0.00    -0.293 N 
HETATM   19  C3  UNL     1      36.022  -0.903  11.880  1.00  0.00     0.164 C 
ATOM     20  H5  UNL     1      34.341  -1.927  12.123  1.00  0.00     0.186 HD
BRANCH  19  21
HETATM   21  C4  UNL     1      37.423  -0.749  12.310  1.00  0.00     0.165 A 
HETATM   22  N6  UNL     1      38.509  -0.634  11.544  1.00  0.00    -0.343 N 
HETATM   23  C5  UNL     1      39.599  -0.513  12.334  1.00  0.00     0.129 A 
ATOM     24  H6  UNL     1      38.516  -0.637  10.524  1.00  0.00     0.167 HD
HETATM   25  C6  UNL     1      39.162  -0.555  13.624  1.00  0.00     0.110 A 
HETATM   26  O1  UNL     1      37.834  -0.700  13.549  1.00  0.00    -0.290 OA
BRANCH  25  27
HETATM   27  C7  UNL     1      39.823  -0.478  14.904  1.00  0.00     0.145 C 
HETATM   28  N7  UNL     1      40.026  -1.478  15.652  1.00  0.00    -0.307 N 
ATOM     29  H7  UNL     1      40.502  -1.306  16.537  1.00  0.00     0.186 HD
BRANCH  28  30
HETATM   30  N8  UNL     1      39.664  -2.761  15.383  1.00  0.00    -0.276 N 
HETATM   31  C8  UNL     1      38.804  -3.390  16.115  1.00  0.00     0.215 C 
HETATM   32  N9  UNL     1      38.435  -4.732  15.822  1.00  0.00    -0.065 NA
HETATM   33  N10 UNL     1      38.219  -2.706  17.240  1.00  0.00    -0.065 NA
ATOM     34  H8  UNL     1      40.083  -3.239  14.585  1.00  0.00     0.189 HD
ENDBRANCH  28  30
ENDBRANCH  25  27
ENDBRANCH  19  21
ENDBRANCH   1  18
TORSDOF 7
ENDMDL
MODEL 4
REMARK VINA RESULT: -7.013396567      2.917      4.523
REMARK  7 active torsions:
REMARK  status: ('A' for Active; 'I' for Inactive)
REMARK    1  A    between atoms: N1_1  and  N2_4 
REMARK    2  A    between atoms: N2_4  and  C1_6 
REMARK    3  A    between atoms: C2_9  and  N4_10 
REMARK    4  A    between atoms: N4_10  and  N5_12 
REMARK    5  A    between atoms: C3_14  and  C4_15 
REMARK    6  A    between atoms: C6_19  and  C7_20 
REMARK    7  A    between atoms: N7_21  and  N8_23 
ROOT
HETATM    1  N4  UNL     1      38.914   0.826  12.353  1.00  0.00    -0.131 N 
ATOM      2  H4  UNL     1      38.569   1.785  12.363  1.00  0.00     0.205 HD
ENDROOT
BRANCH   1   3
HETATM    3  C2  UNL     1      38.108  -0.191  12.435  1.00  0.00     0.713 A 
HETATM    4  N3  UNL     1      37.946  -0.916  13.544  1.00  0.00    -0.169 N 
HETATM    5  C1  UNL     1      37.104  -1.957  13.590  1.00  0.00     0.175 A 
ATOM      6  H3  UNL     1      38.477  -0.670  14.379  1.00  0.00     0.186 HD
HETATM    7  C9  UNL     1      36.372  -2.304  12.452  1.00  0.00     0.164 A 
HETATM    8  N12 UNL     1      36.547  -1.561  11.336  1.00  0.00    -0.272 N 
HETATM    9 CL1  UNL     1      35.267  -3.669  12.503  1.00  0.00    -0.059 Cl
HETATM   10  N11 UNL     1      37.382  -0.553  11.347  1.00  0.00    -0.129 N 
ATOM     11  H12 UNL     1      36.028  -1.785  10.486  1.00  0.00     0.188 HD
ATOM     12  H11 UNL     1      37.494  -0.010  10.491  1.00  0.00     0.205 HD
BRANCH   5  13
HETATM   13  N2  UNL     1      36.932  -2.663  14.632  1.00  0.00    -0.289 N 
ATOM     14  H2  UNL     1      36.451  -3.553  14.501  1.00  0.00     0.188 HD
BRANCH  13  15
HETATM   15  N1  UNL     1      37.318  -2.365  15.914  1.00  0.00    -0.344 N 
ATOM     16  H12 UNL     1      36.581  -2.433  16.615  1.00  0.00     0.176 HD
ATOM     17  H11 UNL     1      38.246  -2.087  16.234  1.00  0.00     0.176 HD
ENDBRANCH  13  15
ENDBRANCH   5  13
ENDBRANCH   1   3
BRANCH   1  18
HETATM   18  N5  UNL     1      40.270   0.539  12.253  1.00  0.00    -0.293 N 
HETATM   19  C3  UNL     1      41.126   1.460  12.058  1.00  0.00     0.164 C 
ATOM     20  H5  UNL     1      40.585  -0.428  12.336  1.00  0.00     0.186 HD
BRANCH  19  21
HETATM   21  C4  UNL     1      40.659   2.853  11.941  1.00  0.00     0.165 A 
HETATM   22  N6  UNL     1      40.904   3.721  10.958  1.00  0.00    -0.343 N 
HETATM   23  C5  UNL     1      40.290   4.893  11.235  1.00  0.00     0.129 A 
ATOM     24  H6  UNL     1      41.467   3.531  10.128  1.00  0.00     0.167 HD
HETATM   25  C6  UNL     1      39.649   4.732  12.427  1.00  0.00     0.110 A 
HETATM   26  O1  UNL     1      39.908   3.476  12.809  1.00  0.00    -0.290 OA
BRANCH  25  27
HETATM   27  C7  UNL     1      38.834   5.597  13.246  1.00  0.00     0.145 C 
HETATM   28  N7  UNL     1      37.847   5.195  13.926  1.00  0.00    -0.307 N 
ATOM     29  H7  UNL     1      37.341   5.896  14.468  1.00  0.00     0.186 HD
BRANCH  28  30
HETATM   30  N8  UNL     1      37.397   3.914  13.999  1.00  0.00    -0.276 N 
HETATM   31  C8  UNL     1      36.175   3.607  13.708  1.00  0.00     0.215 C 
HETATM   32  N9  UNL     1      35.719   2.262  13.789  1.00  0.00    -0.065 NA
HETATM   33  N10 UNL     1      35.276   4.655  13.298  1.00  0.00    -0.065 NA
ATOM     34  H8  UNL     1      38.040   3.178  14.291  1.00  0.00     0.189 HD
ENDBRANCH  28  30
ENDBRANCH  25  27
ENDBRANCH  19  21
ENDBRANCH   1  18
TORSDOF 7
ENDMDL
MODEL 5
REMARK VINA RESULT: -6.867015180      1.738      3.459
REMARK  7 active torsions:
REMARK  status: ('A' for Active; 'I' for Inactive)
REMARK    1  A    between atoms: N1_1  and  N2_4 
REMARK    2  A    between atoms: N2_4  and  C1_6 
REMARK    3  A    between atoms: C2_9  and  N4_10 
REMARK    4  A    between atoms: N4_10  and  N5_12 
REMARK    5  A    between atoms: C3_14  and  C4_15 
REMARK    6  A    between atoms: C6_19  and  C7_20 
REMARK    7  A    between atoms: N7_21  and  N8_23 
ROOT
HETATM    1  N4  UNL     1      35.643  -2.291  12.826  1.00  0.00    -0.131 N 
ATOM      2  H4  UNL     1      35.935  -1.700  13.605  1.00  0.00     0.205 HD
ENDROOT
BRANCH   1   3
HETATM    3  C2  UNL     1      35.384  -3.554  12.988  1.00  0.00     0.713 A 
HETATM    4  N3  UNL     1      34.568  -4.247  12.190  1.00  0.00    -0.169 N 
HETATM    5  C1  UNL     1      34.325  -5.550  12.389  1.00  0.00     0.175 A 
ATOM      6  H3  UNL     1      34.118  -3.772  11.409  1.00  0.00     0.186 HD
HETATM    7  C9  UNL     1      34.935  -6.211  13.457  1.00  0.00     0.164 A 
HETATM    8  N12 UNL     1      35.759  -5.496  14.257  1.00  0.00    -0.272 N 
HETATM    9 CL1  UNL     1      34.622  -7.919  13.725  1.00  0.00    -0.059 Cl
HETATM   10  N11 UNL     1      35.961  -4.226  14.016  1.00  0.00    -0.129 N 
ATOM     11  H12 UNL     1      36.222  -5.947  15.046  1.00  0.00     0.188 HD
ATOM     12  H11 UNL     1      36.587  -3.712  14.636  1.00  0.00     0.205 HD
BRANCH   5  13
HETATM   13  N2  UNL     1      33.554  -6.231  11.644  1.00  0.00    -0.289 N 
ATOM     14  H2  UNL     1      33.993  -6.715  10.861  1.00  0.00     0.188 HD
BRANCH  13  15
HETATM   15  N1  UNL     1      32.197  -6.391  11.773  1.00  0.00    -0.344 N 
ATOM     16  H12 UNL     1      31.758  -6.962  11.050  1.00  0.00     0.176 HD
ATOM     17  H11 UNL     1      31.593  -6.007  12.499  1.00  0.00     0.176 HD
ENDBRANCH  13  15
ENDBRANCH   5  13
ENDBRANCH   1   3
BRANCH   1  18
HETATM   18  N5  UNL     1      35.502  -1.785  11.540  1.00  0.00    -0.293 N 
HETATM   19  C3  UNL     1      36.047  -0.687  11.200  1.00  0.00     0.164 C 
ATOM     20  H5  UNL     1      34.951  -2.304  10.856  1.00  0.00     0.186 HD
BRANCH  19  21
HETATM   21  C4  UNL     1      36.841   0.052  12.197  1.00  0.00     0.165 A 
HETATM   22  N6  UNL     1      36.474   1.117  12.913  1.00  0.00    -0.343 N 
HETATM   23  C5  UNL     1      37.498   1.490  13.712  1.00  0.00     0.129 A 
ATOM     24  H6  UNL     1      35.565   1.577  12.864  1.00  0.00     0.167 HD
HETATM   25  C6  UNL     1      38.523   0.624  13.475  1.00  0.00     0.110 A 
HETATM   26  O1  UNL     1      38.068  -0.226  12.546  1.00  0.00    -0.290 OA
BRANCH  25  27
HETATM   27  C7  UNL     1      39.860   0.492  14.001  1.00  0.00     0.145 C 
HETATM   28  N7  UNL     1      40.880   0.283  13.284  1.00  0.00    -0.307 N 
ATOM     29  H7  UNL     1      41.777   0.206  13.765  1.00  0.00     0.186 HD
BRANCH  28  30
HETATM   30  N8  UNL     1      40.890   0.150  11.931  1.00  0.00    -0.276 N 
HETATM   31  C8  UNL     1      41.347  -0.915  11.358  1.00  0.00     0.215 C 
HETATM   32  N9  UNL     1      41.351  -1.041   9.941  1.00  0.00    -0.065 NA
HETATM   33  N10 UNL     1      41.857  -1.981  12.182  1.00  0.00    -0.065 NA
ATOM     34  H8  UNL     1      40.528   0.909  11.354  1.00  0.00     0.189 HD
ENDBRANCH  28  30
ENDBRANCH  25  27
ENDBRANCH  19  21
ENDBRANCH   1  18
TORSDOF 7
ENDMDL
