MODEL 1
REMARK VINA RESULT: -7.085494362      0.000      0.000
REMARK  7 active torsions:
REMARK  status: ('A' for Active; 'I' for Inactive)
REMARK    1  A    between atoms: C2_7  and  C3_8 
REMARK    2  A    between atoms: C3_8  and  C4_9 
REMARK    3  A    between atoms: C5_10  and  C6_12 
REMARK    4  A    between atoms: C7_15  and  C8_16 
REMARK    5  A    between atoms: C8_16  and  O1_18 
REMARK    6  A    between atoms: C10_21  and  N6_22 
REMARK    7  A    between atoms: C11_27  and  N8_28 
ROOT
HETATM    1  C6  UNL     1      37.811  -1.643  13.278  1.00  0.00     0.167 A 
HETATM    2  N4  UNL     1      36.892  -0.678  13.325  1.00  0.00    -0.333 N 
ATOM      3  H4  UNL     1      35.904  -0.829  13.529  1.00  0.00     0.168 HD
HETATM    4  C7  UNL     1      37.457   0.556  13.060  1.00  0.00     0.115 A 
HETATM    5  C9  UNL     1      38.772   0.267  12.852  1.00  0.00     0.133 A 
HETATM    6  C10 UNL     1      39.853   1.064  12.557  1.00  0.00     0.146 A 
HETATM    7  N7  UNL     1      41.078   0.491  12.409  1.00  0.00    -0.174 N 
ATOM      8  H7  UNL     1      41.874   1.091  12.190  1.00  0.00     0.186 HD
HETATM    9  C11 UNL     1      41.286  -0.814  12.536  1.00  0.00     0.692 A 
HETATM   10  N9  UNL     1      40.219  -1.579  12.826  1.00  0.00    -0.123 N 
ATOM     11  H9  UNL     1      40.357  -2.584  12.928  1.00  0.00     0.206 HD
HETATM   12  N10 UNL     1      38.997  -1.094  12.986  1.00  0.00    -0.217 N 
ENDROOT
BRANCH   1  13
HETATM   13  C5  UNL     1      37.574  -3.068  13.507  1.00  0.00     0.158 C 
HETATM   14  C4  UNL     1      36.314  -3.496  13.662  1.00  0.00     0.027 C 
HETATM   15  F1  UNL     1      38.584  -3.944  13.563  1.00  0.00    -0.202 F 
BRANCH  14  16
HETATM   16  C3  UNL     1      35.953  -4.906  13.897  1.00  0.00     0.109 C 
BRANCH  16  17
HETATM   17  C2  UNL     1      35.450  -5.535  12.650  1.00  0.00     0.116 A 
HETATM   18  N3  UNL     1      34.714  -4.940  11.698  1.00  0.00    -0.272 N 
HETATM   19  N2  UNL     1      34.468  -5.850  10.742  1.00  0.00    -0.225 N 
ATOM     20  H3  UNL     1      34.398  -3.970  11.700  1.00  0.00     0.190 HD
HETATM   21  N1  UNL     1      35.031  -6.992  11.073  1.00  0.00    -0.223 N 
ATOM     22  H2  UNL     1      33.930  -5.683   9.892  1.00  0.00     0.210 HD
HETATM   23  C1  UNL     1      34.994  -8.213  10.304  1.00  0.00     0.202 C 
HETATM   24  N11 UNL     1      35.627  -6.794  12.234  1.00  0.00    -0.270 N 
ATOM     25  H11 UNL     1      36.150  -7.505  12.745  1.00  0.00     0.190 HD
ENDBRANCH  16  17
ENDBRANCH  14  16
ENDBRANCH   1  13
BRANCH   4  26
HETATM   26  C8  UNL     1      36.684   1.767  13.063  1.00  0.00     0.179 C 
HETATM   27  N5  UNL     1      36.822   2.888  12.264  1.00  0.00    -0.073 NA
BRANCH  26  28
HETATM   28  O1  UNL     1      35.708   1.849  13.923  1.00  0.00    -0.347 OA
ATOM     29  H1  UNL     1      35.470   2.717  14.228  1.00  0.00     0.219 HD
ENDBRANCH  26  28
ENDBRANCH   4  26
BRANCH   6  30
HETATM   30  N6  UNL     1      39.718   2.321  12.438  1.00  0.00    -0.383 N 
ATOM     31  H62 UNL     1      38.862   2.710  12.042  1.00  0.00     0.157 HD
ATOM     32  H61 UNL     1      40.466   2.955  12.724  1.00  0.00     0.157 HD
ENDBRANCH   6  30
BRANCH   9  33
HETATM   33  N8  UNL     1      42.474  -1.345  12.389  1.00  0.00    -0.233 N 
ATOM     34  H82 UNL     1      42.933  -1.825  13.163  1.00  0.00     0.174 HD
ATOM     35  H81 UNL     1      42.980  -1.299  11.504  1.00  0.00     0.174 HD
ENDBRANCH   9  33
TORSDOF 7
ENDMDL
MODEL 2
REMARK VINA RESULT: -6.902381105      1.737      1.951
REMARK  7 active torsions:
REMARK  status: ('A' for Active; 'I' for Inactive)
REMARK    1  A    between atoms: C2_7  and  C3_8 
REMARK    2  A    between atoms: C3_8  and  C4_9 
REMARK    3  A    between atoms: C5_10  and  C6_12 
REMARK    4  A    between atoms: C7_15  and  C8_16 
REMARK    5  A    between atoms: C8_16  and  O1_18 
REMARK    6  A    between atoms: C10_21  and  N6_22 
REMARK    7  A    between atoms: C11_27  and  N8_28 
ROOT
HETATM    1  C6  UNL     1      36.424  -1.619  12.519  1.00  0.00     0.167 A 
HETATM    2  N4  UNL     1      35.919  -0.384  12.508  1.00  0.00    -0.333 N 
ATOM      3  H4  UNL     1      34.972  -0.150  12.211  1.00  0.00     0.168 HD
HETATM    4  C7  UNL     1      36.851   0.535  12.951  1.00  0.00     0.115 A 
HETATM    5  C9  UNL     1      37.945  -0.227  13.229  1.00  0.00     0.133 A 
HETATM    6  C10 UNL     1      39.192   0.094  13.712  1.00  0.00     0.146 A 
HETATM    7  N7  UNL     1      40.105  -0.897  13.903  1.00  0.00    -0.174 N 
ATOM      8  H7  UNL     1      41.027  -0.648  14.263  1.00  0.00     0.186 HD
HETATM    9  C11 UNL     1      39.850  -2.174  13.644  1.00  0.00     0.692 A 
HETATM   10  N9  UNL     1      38.626  -2.472  13.173  1.00  0.00    -0.123 N 
ATOM     11  H9  UNL     1      38.410  -3.447  12.968  1.00  0.00     0.206 HD
HETATM   12  N10 UNL     1      37.686  -1.562  12.963  1.00  0.00    -0.217 N 
ENDROOT
BRANCH   1  13
HETATM   13  C5  UNL     1      35.723  -2.838  12.116  1.00  0.00     0.158 C 
HETATM   14  C4  UNL     1      35.338  -3.704  13.062  1.00  0.00     0.027 C 
HETATM   15  F1  UNL     1      35.462  -3.099  10.829  1.00  0.00    -0.202 F 
BRANCH  14  16
HETATM   16  C3  UNL     1      34.627  -4.963  12.776  1.00  0.00     0.109 C 
BRANCH  16  17
HETATM   17  C2  UNL     1      35.585  -6.037  12.410  1.00  0.00     0.116 A 
HETATM   18  N3  UNL     1      36.844  -6.168  12.857  1.00  0.00    -0.272 N 
HETATM   19  N2  UNL     1      37.368  -7.264  12.287  1.00  0.00    -0.225 N 
ATOM     20  H3  UNL     1      37.317  -5.546  13.513  1.00  0.00     0.190 HD
HETATM   21  N1  UNL     1      36.471  -7.817  11.499  1.00  0.00    -0.223 N 
ATOM     22  H2  UNL     1      38.314  -7.614  12.439  1.00  0.00     0.210 HD
HETATM   23  C1  UNL     1      36.653  -9.012  10.710  1.00  0.00     0.202 C 
HETATM   24  N11 UNL     1      35.388  -7.066  11.578  1.00  0.00    -0.270 N 
ATOM     25  H11 UNL     1      34.520  -7.246  11.073  1.00  0.00     0.190 HD
ENDBRANCH  16  17
ENDBRANCH  14  16
ENDBRANCH   1  13
BRANCH   4  26
HETATM   26  C8  UNL     1      36.554   1.938  13.049  1.00  0.00     0.179 C 
HETATM   27  N5  UNL     1      37.063   2.987  12.306  1.00  0.00    -0.073 NA
BRANCH  26  28
HETATM   28  O1  UNL     1      35.687   2.302  13.951  1.00  0.00    -0.347 OA
ATOM     29  H1  UNL     1      35.966   2.272  14.859  1.00  0.00     0.219 HD
ENDBRANCH  26  28
ENDBRANCH   4  26
BRANCH   6  30
HETATM   30  N6  UNL     1      39.488   1.297  13.992  1.00  0.00    -0.383 N 
ATOM     31  H62 UNL     1      38.827   2.047  13.793  1.00  0.00     0.157 HD
ATOM     32  H61 UNL     1      40.392   1.527  14.407  1.00  0.00     0.157 HD
ENDBRANCH   6  30
BRANCH   9  33
HETATM   33  N8  UNL     1      40.743  -3.112  13.835  1.00  0.00    -0.233 N 
ATOM     34  H82 UNL     1      40.973  -3.776  13.096  1.00  0.00     0.174 HD
ATOM     35  H81 UNL     1      41.239  -3.213  14.721  1.00  0.00     0.174 HD
ENDBRANCH   9  33
TORSDOF 7
ENDMDL
MODEL 3
REMARK VINA RESULT: -6.867364181      2.149      2.932
REMARK  7 active torsions:
REMARK  status: ('A' for Active; 'I' for Inactive)
REMARK    1  A    between atoms: C2_7  and  C3_8 
REMARK    2  A    between atoms: C3_8  and  C4_9 
REMARK    3  A    between atoms: C5_10  and  C6_12 
REMARK    4  A    between atoms: C7_15  and  C8_16 
REMARK    5  A    between atoms: C8_16  and  O1_18 
REMARK    6  A    between atoms: C10_21  and  N6_22 
REMARK    7  A    between atoms: C11_27  and  N8_28 
ROOT
HETATM    1  C6  UNL     1      36.167  -3.468  13.132  1.00  0.00     0.167 A 
HETATM    2  N4  UNL     1      35.777  -2.351  12.516  1.00  0.00    -0.333 N 
ATOM      3  H4  UNL     1      34.840  -2.190  12.148  1.00  0.00     0.168 HD
HETATM    4  C7  UNL     1      36.814  -1.440  12.442  1.00  0.00     0.115 A 
HETATM    5  C9  UNL     1      37.848  -2.082  13.053  1.00  0.00     0.133 A 
HETATM    6  C10 UNL     1      39.145  -1.703  13.307  1.00  0.00     0.146 A 
HETATM    7  N7  UNL     1      39.973  -2.565  13.958  1.00  0.00    -0.174 N 
ATOM      8  H7  UNL     1      40.934  -2.274  14.141  1.00  0.00     0.186 HD
HETATM    9  C11 UNL     1      39.588  -3.769  14.364  1.00  0.00     0.692 A 
HETATM   10  N9  UNL     1      38.317  -4.124  14.110  1.00  0.00    -0.123 N 
ATOM     11  H9  UNL     1      38.001  -5.044  14.414  1.00  0.00     0.206 HD
HETATM   12  N10 UNL     1      37.453  -3.339  13.483  1.00  0.00    -0.217 N 
ENDROOT
BRANCH   1  13
HETATM   13  C5  UNL     1      35.335  -4.643  13.388  1.00  0.00     0.158 C 
HETATM   14  C4  UNL     1      34.327  -4.915  12.550  1.00  0.00     0.027 C 
HETATM   15  F1  UNL     1      35.563  -5.445  14.435  1.00  0.00    -0.202 F 
BRANCH  14  16
HETATM   16  C3  UNL     1      33.423  -6.070  12.706  1.00  0.00     0.109 C 
BRANCH  16  17
HETATM   17  C2  UNL     1      33.738  -7.123  11.708  1.00  0.00     0.116 A 
HETATM   18  N3  UNL     1      33.069  -8.272  11.524  1.00  0.00    -0.272 N 
HETATM   19  N2  UNL     1      33.673  -8.942  10.530  1.00  0.00    -0.225 N 
ATOM     20  H3  UNL     1      32.248  -8.581  12.046  1.00  0.00     0.190 HD
HETATM   21  N1  UNL     1      34.696  -8.242  10.092  1.00  0.00    -0.223 N 
ATOM     22  H2  UNL     1      33.384  -9.852  10.170  1.00  0.00     0.210 HD
HETATM   23  C1  UNL     1      35.596  -8.624   9.028  1.00  0.00     0.202 C 
HETATM   24  N11 UNL     1      34.731  -7.137  10.812  1.00  0.00    -0.270 N 
ATOM     25  H11 UNL     1      35.422  -6.394  10.701  1.00  0.00     0.190 HD
ENDBRANCH  16  17
ENDBRANCH  14  16
ENDBRANCH   1  13
BRANCH   4  26
HETATM   26  C8  UNL     1      36.654  -0.147  11.836  1.00  0.00     0.179 C 
HETATM   27  N5  UNL     1      36.718   1.103  12.426  1.00  0.00    -0.073 NA
BRANCH  26  28
HETATM   28  O1  UNL     1      36.417  -0.114  10.555  1.00  0.00    -0.347 OA
ATOM     29  H1  UNL     1      36.342   0.742  10.149  1.00  0.00     0.219 HD
ENDBRANCH  26  28
ENDBRANCH   4  26
BRANCH   6  30
HETATM   30  N6  UNL     1      39.567  -0.557  12.955  1.00  0.00    -0.383 N 
ATOM     31  H62 UNL     1      40.399  -0.161  13.392  1.00  0.00     0.157 HD
ATOM     32  H61 UNL     1      39.074  -0.017  12.243  1.00  0.00     0.157 HD
ENDBRANCH   6  30
BRANCH   9  33
HETATM   33  N8  UNL     1      40.401  -4.583  14.988  1.00  0.00    -0.233 N 
ATOM     34  H82 UNL     1      41.269  -4.242  15.401  1.00  0.00     0.174 HD
ATOM     35  H81 UNL     1      40.201  -5.579  15.084  1.00  0.00     0.174 HD
ENDBRANCH   9  33
TORSDOF 7
ENDMDL
MODEL 4
REMARK VINA RESULT: -6.779221349      2.455      3.338
REMARK  7 active torsions:
REMARK  status: ('A' for Active; 'I' for Inactive)
REMARK    1  A    between atoms: C2_7  and  C3_8 
REMARK    2  A    between atoms: C3_8  and  C4_9 
REMARK    3  A    between atoms: C5_10  and  C6_12 
REMARK    4  A    between atoms: C7_15  and  C8_16 
REMARK    5  A    between atoms: C8_16  and  O1_18 
REMARK    6  A    between atoms: C10_21  and  N6_22 
REMARK    7  A    between atoms: C11_27  and  N8_28 
ROOT
HETATM    1  C6  UNL     1      37.122  -2.046  12.822  1.00  0.00     0.167 A 
HETATM    2  N4  UNL     1      37.890  -1.398  11.946  1.00  0.00    -0.333 N 
ATOM      3  H4  UNL     1      37.681  -1.305  10.952  1.00  0.00     0.168 HD
HETATM    4  C7  UNL     1      39.008  -0.870  12.564  1.00  0.00     0.115 A 
HETATM    5  C9  UNL     1      38.860  -1.243  13.865  1.00  0.00     0.133 A 
HETATM    6  C10 UNL     1      39.632  -1.017  14.980  1.00  0.00     0.146 A 
HETATM    7  N7  UNL     1      39.225  -1.514  16.181  1.00  0.00    -0.174 N 
ATOM      8  H7  UNL     1      39.806  -1.341  17.002  1.00  0.00     0.186 HD
HETATM    9  C11 UNL     1      38.107  -2.213  16.331  1.00  0.00     0.692 A 
HETATM   10  N9  UNL     1      37.362  -2.424  15.232  1.00  0.00    -0.123 N 
ATOM     11  H9  UNL     1      36.500  -2.959  15.326  1.00  0.00     0.206 HD
HETATM   12  N10 UNL     1      37.693  -1.972  14.031  1.00  0.00    -0.217 N 
ENDROOT
BRANCH   1  13
HETATM   13  C5  UNL     1      35.863  -2.728  12.523  1.00  0.00     0.158 C 
HETATM   14  C4  UNL     1      35.733  -4.019  12.854  1.00  0.00     0.027 C 
HETATM   15  F1  UNL     1      34.847  -2.088  11.931  1.00  0.00    -0.202 F 
BRANCH  14  16
HETATM   16  C3  UNL     1      34.514  -4.808  12.602  1.00  0.00     0.109 C 
BRANCH  16  17
HETATM   17  C2  UNL     1      34.827  -6.019  11.801  1.00  0.00     0.116 A 
HETATM   18  N3  UNL     1      34.186  -6.430  10.696  1.00  0.00    -0.272 N 
HETATM   19  N2  UNL     1      34.776  -7.562  10.279  1.00  0.00    -0.225 N 
ATOM     20  H3  UNL     1      33.394  -5.966  10.252  1.00  0.00     0.190 HD
HETATM   21  N1  UNL     1      35.764  -7.864  11.093  1.00  0.00    -0.223 N 
ATOM     22  H2  UNL     1      34.501  -8.104   9.459  1.00  0.00     0.210 HD
HETATM   23  C1  UNL     1      36.639  -9.008  10.983  1.00  0.00     0.202 C 
HETATM   24  N11 UNL     1      35.790  -6.922  12.017  1.00  0.00    -0.270 N 
ATOM     25  H11 UNL     1      36.454  -6.887  12.791  1.00  0.00     0.190 HD
ENDBRANCH  16  17
ENDBRANCH  14  16
ENDBRANCH   1  13
BRANCH   4  26
HETATM   26  C8  UNL     1      39.993  -0.111  11.843  1.00  0.00     0.179 C 
HETATM   27  N5  UNL     1      40.522   1.131  12.143  1.00  0.00    -0.073 NA
BRANCH  26  28
HETATM   28  O1  UNL     1      40.476  -0.641  10.755  1.00  0.00    -0.347 OA
ATOM     29  H1  UNL     1      41.065  -1.380  10.855  1.00  0.00     0.219 HD
ENDBRANCH  26  28
ENDBRANCH   4  26
BRANCH   6  30
HETATM   30  N6  UNL     1      40.705  -0.342  14.900  1.00  0.00    -0.383 N 
ATOM     31  H62 UNL     1      41.430  -0.610  14.235  1.00  0.00     0.157 HD
ATOM     32  H61 UNL     1      40.859   0.465  15.506  1.00  0.00     0.157 HD
ENDBRANCH   6  30
BRANCH   9  33
HETATM   33  N8  UNL     1      37.734  -2.682  17.495  1.00  0.00    -0.233 N 
ATOM     34  H82 UNL     1      37.914  -3.653  17.751  1.00  0.00     0.174 HD
ATOM     35  H81 UNL     1      37.255  -2.101  18.184  1.00  0.00     0.174 HD
ENDBRANCH   9  33
TORSDOF 7
ENDMDL
MODEL 5
REMARK VINA RESULT: -6.757876239      1.687      2.054
REMARK  7 active torsions:
REMARK  status: ('A' for Active; 'I' for Inactive)
REMARK    1  A    between atoms: C2_7  and  C3_8 
REMARK    2  A    between atoms: C3_8  and  C4_9 
REMARK    3  A    between atoms: C5_10  and  C6_12 
REMARK    4  A    between atoms: C7_15  and  C8_16 
REMARK    5  A    between atoms: C8_16  and  O1_18 
REMARK    6  A    between atoms: C10_21  and  N6_22 
REMARK    7  A    between atoms: C11_27  and  N8_28 
ROOT
HETATM    1  C6  UNL     1      36.867  -1.148  12.507  1.00  0.00     0.167 A 
HETATM    2  N4  UNL     1      36.188  -0.009  12.647  1.00  0.00    -0.333 N 
ATOM      3  H4  UNL     1      35.171   0.064  12.622  1.00  0.00     0.168 HD
HETATM    4  C7  UNL     1      37.046   1.059  12.829  1.00  0.00     0.115 A 
HETATM    5  C9  UNL     1      38.281   0.488  12.790  1.00  0.00     0.133 A 
HETATM    6  C10 UNL     1      39.544   1.017  12.918  1.00  0.00     0.146 A 
HETATM    7  N7  UNL     1      40.621   0.188  12.843  1.00  0.00    -0.174 N 
ATOM      8  H7  UNL     1      41.554   0.590  12.940  1.00  0.00     0.186 HD
HETATM    9  C11 UNL     1      40.513  -1.121  12.650  1.00  0.00     0.692 A 
HETATM   10  N9  UNL     1      39.272  -1.623  12.528  1.00  0.00    -0.123 N 
ATOM     11  H9  UNL     1      39.167  -2.626  12.379  1.00  0.00     0.206 HD
HETATM   12  N10 UNL     1      38.177  -0.880  12.591  1.00  0.00    -0.217 N 
ENDROOT
BRANCH   1  13
HETATM   13  C5  UNL     1      36.288  -2.475  12.298  1.00  0.00     0.158 C 
HETATM   14  C4  UNL     1      36.026  -3.240  13.365  1.00  0.00     0.027 C 
HETATM   15  F1  UNL     1      36.018  -2.932  11.069  1.00  0.00    -0.202 F 
BRANCH  14  16
HETATM   16  C3  UNL     1      35.443  -4.592  13.277  1.00  0.00     0.109 C 
BRANCH  16  17
HETATM   17  C2  UNL     1      36.482  -5.589  12.917  1.00  0.00     0.116 A 
HETATM   18  N3  UNL     1      36.279  -6.761  12.294  1.00  0.00    -0.272 N 
HETATM   19  N2  UNL     1      37.472  -7.363  12.157  1.00  0.00    -0.225 N 
ATOM     20  H3  UNL     1      35.380  -7.129  11.982  1.00  0.00     0.190 HD
HETATM   21  N1  UNL     1      38.408  -6.598  12.675  1.00  0.00    -0.223 N 
ATOM     22  H2  UNL     1      37.628  -8.271  11.719  1.00  0.00     0.210 HD
HETATM   23  C1  UNL     1      39.820  -6.896  12.722  1.00  0.00     0.202 C 
HETATM   24  N11 UNL     1      37.800  -5.521  13.136  1.00  0.00    -0.270 N 
ATOM     25  H11 UNL     1      38.272  -4.742  13.597  1.00  0.00     0.190 HD
ENDBRANCH  16  17
ENDBRANCH  14  16
ENDBRANCH   1  13
BRANCH   4  26
HETATM   26  C8  UNL     1      36.566   2.401  13.019  1.00  0.00     0.179 C 
HETATM   27  N5  UNL     1      36.921   3.554  12.343  1.00  0.00    -0.073 NA
BRANCH  26  28
HETATM   28  O1  UNL     1      35.670   2.588  13.946  1.00  0.00    -0.347 OA
ATOM     29  H1  UNL     1      35.803   3.318  14.539  1.00  0.00     0.219 HD
ENDBRANCH  26  28
ENDBRANCH   4  26
BRANCH   6  30
HETATM   30  N6  UNL     1      39.709   2.260  13.120  1.00  0.00    -0.383 N 
ATOM     31  H62 UNL     1      39.062   2.772  13.719  1.00  0.00     0.157 HD
ATOM     32  H61 UNL     1      40.480   2.761  12.677  1.00  0.00     0.157 HD
ENDBRANCH   6  30
BRANCH   9  33
HETATM   33  N8  UNL     1      41.563  -1.900  12.581  1.00  0.00    -0.233 N 
ATOM     34  H82 UNL     1      42.296  -1.857  13.289  1.00  0.00     0.174 HD
ATOM     35  H81 UNL     1      41.687  -2.573  11.824  1.00  0.00     0.174 HD
ENDBRANCH   9  33
TORSDOF 7
ENDMDL
