MODEL 1
REMARK VINA RESULT: -6.168279438      0.000      0.000
REMARK  7 active torsions:
REMARK  status: ('A' for Active; 'I' for Inactive)
REMARK    1  A    between atoms: C4_6  and  S1_7 
REMARK    2  A    between atoms: S1_7  and  C5_10 
REMARK    3  A    between atoms: C5_10  and  C6_11 
REMARK    4  A    between atoms: C5_10  and  C7_14 
REMARK    5  A    between atoms: C6_11  and  O4_12 
REMARK    6  A    between atoms: C8_19  and  N5_20 
REMARK    7  A    between atoms: C9_28  and  N8_29 
ROOT
HETATM    1  C5  UNL     1       0.564  58.434  26.586  1.00  0.00     0.178 C 
ENDROOT
BRANCH   1   2
HETATM    2  S1  UNL     1       0.735  56.890  25.716  1.00  0.00     0.201 S 
HETATM    3  O2  UNL     1       1.534  57.162  24.480  1.00  0.00    -0.221 OA
HETATM    4  O3  UNL     1      -0.652  56.454  25.318  1.00  0.00    -0.221 OA
BRANCH   2   5
HETATM    5  C4  UNL     1       1.456  55.676  26.723  1.00  0.00     0.149 A 
HETATM    6  C3  UNL     1       1.977  56.049  27.948  1.00  0.00     0.117 A 
HETATM    7  C2  UNL     1       2.561  55.136  28.793  1.00  0.00     0.264 A 
HETATM    8  N1  UNL     1       2.626  53.859  28.422  1.00  0.00    -0.152 N 
HETATM    9  O1  UNL     1       3.044  55.468  29.919  1.00  0.00    -0.267 OA
HETATM   10  C1  UNL     1       3.244  52.843  29.296  1.00  0.00     0.179 C 
HETATM   11  C9  UNL     1       2.118  53.504  27.234  1.00  0.00     0.681 A 
HETATM   12  N7  UNL     1       1.544  54.380  26.396  1.00  0.00    -0.181 N 
ATOM     13  H7  UNL     1       1.172  54.057  25.503  1.00  0.00     0.185 HD
BRANCH  11  14
HETATM   14  N8  UNL     1       2.177  52.249  26.859  1.00  0.00    -0.234 N 
ATOM     15  H82 UNL     1       2.389  51.550  27.570  1.00  0.00     0.174 HD
ATOM     16  H81 UNL     1       2.010  52.011  25.881  1.00  0.00     0.174 HD
ENDBRANCH  11  14
ENDBRANCH   2   5
ENDBRANCH   1   2
BRANCH   1  17
HETATM   17  C6  UNL     1      -0.832  58.524  27.158  1.00  0.00     0.188 C 
BRANCH  17  18
HETATM   18  O4  UNL     1      -0.772  59.022  28.478  1.00  0.00    -0.399 OA
ATOM     19  H4  UNL     1      -0.388  59.891  28.475  1.00  0.00     0.209 HD
ENDBRANCH  17  18
ENDBRANCH   1  17
BRANCH   1  20
HETATM   20  C7  UNL     1       0.778  59.620  25.672  1.00  0.00     0.213 C 
HETATM   21  N2  UNL     1       0.256  60.857  26.242  1.00  0.00    -0.100 NA
HETATM   22  N3  UNL     1       0.447  61.833  25.229  1.00  0.00    -0.031 NA
HETATM   23  N4  UNL     1       1.783  62.130  25.189  1.00  0.00    -0.277 N 
HETATM   24  C8  UNL     1       2.688  61.055  25.339  1.00  0.00     0.396 C 
ATOM     25  H4  UNL     1       2.112  63.086  25.058  1.00  0.00     0.181 HD
HETATM   26  N6  UNL     1       2.160  59.750  25.374  1.00  0.00    -0.359 N 
ATOM     27  H6  UNL     1       2.745  58.935  25.194  1.00  0.00     0.158 HD
BRANCH  24  28
HETATM   28  N5  UNL     1       3.660  61.132  24.235  1.00  0.00    -0.040 N 
ATOM     29  H53 UNL     1       3.982  60.216  23.925  1.00  0.00     0.279 HD
ATOM     30  H52 UNL     1       3.238  61.431  23.355  1.00  0.00     0.279 HD
ATOM     31  H51 UNL     1       4.422  61.739  24.536  1.00  0.00     0.279 HD
ENDBRANCH  24  28
ENDBRANCH   1  20
TORSDOF 7
ENDMDL
MODEL 2
REMARK VINA RESULT: -5.999945227      1.183      2.372
REMARK  7 active torsions:
REMARK  status: ('A' for Active; 'I' for Inactive)
REMARK    1  A    between atoms: C4_6  and  S1_7 
REMARK    2  A    between atoms: S1_7  and  C5_10 
REMARK    3  A    between atoms: C5_10  and  C6_11 
REMARK    4  A    between atoms: C5_10  and  C7_14 
REMARK    5  A    between atoms: C6_11  and  O4_12 
REMARK    6  A    between atoms: C8_19  and  N5_20 
REMARK    7  A    between atoms: C9_28  and  N8_29 
ROOT
HETATM    1  C5  UNL     1       0.307  57.720  25.723  1.00  0.00     0.178 C 
ENDROOT
BRANCH   1   2
HETATM    2  S1  UNL     1      -0.089  56.931  27.269  1.00  0.00     0.201 S 
HETATM    3  O2  UNL     1      -1.501  56.445  27.171  1.00  0.00    -0.221 OA
HETATM    4  O3  UNL     1      -0.007  57.991  28.337  1.00  0.00    -0.221 OA
BRANCH   2   5
HETATM    5  C4  UNL     1       1.032  55.658  27.632  1.00  0.00     0.149 A 
HETATM    6  C3  UNL     1       2.119  55.936  28.440  1.00  0.00     0.117 A 
HETATM    7  C2  UNL     1       3.042  54.973  28.765  1.00  0.00     0.264 A 
HETATM    8  N1  UNL     1       2.886  53.739  28.290  1.00  0.00    -0.152 N 
HETATM    9  O1  UNL     1       4.044  55.218  29.506  1.00  0.00    -0.267 OA
HETATM   10  C1  UNL     1       3.853  52.671  28.613  1.00  0.00     0.179 C 
HETATM   11  C9  UNL     1       1.830  53.475  27.508  1.00  0.00     0.681 A 
HETATM   12  N7  UNL     1       0.918  54.402  27.179  1.00  0.00    -0.181 N 
ATOM     13  H7  UNL     1       0.132  54.149  26.581  1.00  0.00     0.185 HD
BRANCH  11  14
HETATM   14  N8  UNL     1       1.667  52.263  27.035  1.00  0.00    -0.234 N 
ATOM     15  H82 UNL     1       2.276  51.965  26.273  1.00  0.00     0.174 HD
ATOM     16  H81 UNL     1       0.948  51.662  27.436  1.00  0.00     0.174 HD
ENDBRANCH  11  14
ENDBRANCH   2   5
ENDBRANCH   1   2
BRANCH   1  17
HETATM   17  C6  UNL     1       1.126  56.770  24.881  1.00  0.00     0.188 C 
BRANCH  17  18
HETATM   18  O4  UNL     1       0.676  56.812  23.543  1.00  0.00    -0.399 OA
ATOM     19  H4  UNL     1       0.749  55.949  23.154  1.00  0.00     0.209 HD
ENDBRANCH  17  18
ENDBRANCH   1  17
BRANCH   1  20
HETATM   20  C7  UNL     1       1.113  58.984  25.929  1.00  0.00     0.213 C 
HETATM   21  N2  UNL     1       2.214  59.097  24.978  1.00  0.00    -0.100 NA
HETATM   22  N3  UNL     1       2.913  60.269  25.371  1.00  0.00    -0.031 NA
HETATM   23  N4  UNL     1       2.157  61.346  24.994  1.00  0.00    -0.277 N 
HETATM   24  C8  UNL     1       0.759  61.245  25.168  1.00  0.00     0.396 C 
ATOM     25  H4  UNL     1       2.585  62.185  24.604  1.00  0.00     0.181 HD
HETATM   26  N6  UNL     1       0.259  60.115  25.842  1.00  0.00    -0.359 N 
ATOM     27  H6  UNL     1      -0.676  60.108  26.249  1.00  0.00     0.158 HD
BRANCH  24  28
HETATM   28  N5  UNL     1       0.311  62.450  25.888  1.00  0.00    -0.040 N 
ATOM     29  H53 UNL     1      -0.250  62.234  26.711  1.00  0.00     0.279 HD
ATOM     30  H52 UNL     1       1.072  62.932  26.366  1.00  0.00     0.279 HD
ATOM     31  H51 UNL     1      -0.179  63.044  25.220  1.00  0.00     0.279 HD
ENDBRANCH  24  28
ENDBRANCH   1  20
TORSDOF 7
ENDMDL
MODEL 3
REMARK VINA RESULT: -5.913287548      1.476      1.883
REMARK  7 active torsions:
REMARK  status: ('A' for Active; 'I' for Inactive)
REMARK    1  A    between atoms: C4_6  and  S1_7 
REMARK    2  A    between atoms: S1_7  and  C5_10 
REMARK    3  A    between atoms: C5_10  and  C6_11 
REMARK    4  A    between atoms: C5_10  and  C7_14 
REMARK    5  A    between atoms: C6_11  and  O4_12 
REMARK    6  A    between atoms: C8_19  and  N5_20 
REMARK    7  A    between atoms: C9_28  and  N8_29 
ROOT
HETATM    1  C5  UNL     1       0.063  58.512  26.545  1.00  0.00     0.178 C 
ENDROOT
BRANCH   1   2
HETATM    2  S1  UNL     1       0.084  56.971  25.653  1.00  0.00     0.201 S 
HETATM    3  O2  UNL     1       0.558  57.267  24.264  1.00  0.00    -0.221 OA
HETATM    4  O3  UNL     1      -1.340  56.480  25.592  1.00  0.00    -0.221 OA
BRANCH   2   5
HETATM    5  C4  UNL     1       1.068  55.791  26.456  1.00  0.00     0.149 A 
HETATM    6  C3  UNL     1       1.068  54.490  25.985  1.00  0.00     0.117 A 
HETATM    7  C2  UNL     1       1.825  53.508  26.576  1.00  0.00     0.264 A 
HETATM    8  N1  UNL     1       2.578  53.816  27.630  1.00  0.00    -0.152 N 
HETATM    9  O1  UNL     1       1.832  52.311  26.153  1.00  0.00    -0.267 OA
HETATM   10  C1  UNL     1       3.408  52.795  28.298  1.00  0.00     0.179 C 
HETATM   11  C9  UNL     1       2.574  55.079  28.081  1.00  0.00     0.681 A 
HETATM   12  N7  UNL     1       1.842  56.051  27.517  1.00  0.00    -0.181 N 
ATOM     13  H7  UNL     1       1.876  56.996  27.900  1.00  0.00     0.185 HD
BRANCH  11  14
HETATM   14  N8  UNL     1       3.312  55.393  29.118  1.00  0.00    -0.234 N 
ATOM     15  H82 UNL     1       3.592  54.641  29.748  1.00  0.00     0.174 HD
ATOM     16  H81 UNL     1       3.583  56.366  29.263  1.00  0.00     0.174 HD
ENDBRANCH  11  14
ENDBRANCH   2   5
ENDBRANCH   1   2
BRANCH   1  17
HETATM   17  C6  UNL     1      -1.335  58.765  27.058  1.00  0.00     0.188 C 
BRANCH  17  18
HETATM   18  O4  UNL     1      -2.162  59.188  25.994  1.00  0.00    -0.399 OA
ATOM     19  H4  UNL     1      -2.277  58.476  25.377  1.00  0.00     0.209 HD
ENDBRANCH  17  18
ENDBRANCH   1  17
BRANCH   1  20
HETATM   20  C7  UNL     1       0.463  59.675  25.664  1.00  0.00     0.213 C 
HETATM   21  N2  UNL     1       0.227  60.962  26.311  1.00  0.00    -0.100 NA
HETATM   22  N3  UNL     1       0.556  61.929  25.325  1.00  0.00    -0.031 NA
HETATM   23  N4  UNL     1       1.921  61.959  25.216  1.00  0.00    -0.277 N 
HETATM   24  C8  UNL     1       2.600  60.721  25.271  1.00  0.00     0.396 C 
ATOM     25  H4  UNL     1       2.426  62.837  25.101  1.00  0.00     0.181 HD
HETATM   26  N6  UNL     1       1.825  59.546  25.289  1.00  0.00    -0.359 N 
ATOM     27  H6  UNL     1       2.226  58.641  25.044  1.00  0.00     0.158 HD
BRANCH  24  28
HETATM   28  N5  UNL     1       3.509  60.659  24.114  1.00  0.00    -0.040 N 
ATOM     29  H53 UNL     1       4.210  61.400  24.121  1.00  0.00     0.279 HD
ATOM     30  H52 UNL     1       4.151  59.867  24.156  1.00  0.00     0.279 HD
ATOM     31  H51 UNL     1       2.937  60.663  23.271  1.00  0.00     0.279 HD
ENDBRANCH  24  28
ENDBRANCH   1  20
TORSDOF 7
ENDMDL
MODEL 4
REMARK VINA RESULT: -5.682534799      1.580      6.780
REMARK  7 active torsions:
REMARK  status: ('A' for Active; 'I' for Inactive)
REMARK    1  A    between atoms: C4_6  and  S1_7 
REMARK    2  A    between atoms: S1_7  and  C5_10 
REMARK    3  A    between atoms: C5_10  and  C6_11 
REMARK    4  A    between atoms: C5_10  and  C7_14 
REMARK    5  A    between atoms: C6_11  and  O4_12 
REMARK    6  A    between atoms: C8_19  and  N5_20 
REMARK    7  A    between atoms: C9_28  and  N8_29 
ROOT
HETATM    1  C5  UNL     1       1.118  56.205  25.870  1.00  0.00     0.178 C 
ENDROOT
BRANCH   1   2
HETATM    2  S1  UNL     1      -0.116  57.341  26.467  1.00  0.00     0.201 S 
HETATM    3  O2  UNL     1      -0.292  57.078  27.930  1.00  0.00    -0.221 OA
HETATM    4  O3  UNL     1      -1.400  57.013  25.751  1.00  0.00    -0.221 OA
BRANCH   2   5
HETATM    5  C4  UNL     1       0.327  58.985  26.134  1.00  0.00     0.149 A 
HETATM    6  C3  UNL     1      -0.600  59.985  26.362  1.00  0.00     0.117 A 
HETATM    7  C2  UNL     1      -0.312  61.306  26.118  1.00  0.00     0.264 A 
HETATM    8  N1  UNL     1       0.891  61.632  25.651  1.00  0.00    -0.152 N 
HETATM    9  O1  UNL     1      -1.157  62.232  26.323  1.00  0.00    -0.267 OA
HETATM   10  C1  UNL     1       1.246  63.037  25.375  1.00  0.00     0.179 C 
HETATM   11  C9  UNL     1       1.786  60.657  25.433  1.00  0.00     0.681 A 
HETATM   12  N7  UNL     1       1.523  59.363  25.665  1.00  0.00    -0.181 N 
ATOM     13  H7  UNL     1       2.241  58.660  25.482  1.00  0.00     0.185 HD
BRANCH  11  14
HETATM   14  N8  UNL     1       2.974  60.967  24.973  1.00  0.00    -0.234 N 
ATOM     15  H82 UNL     1       3.695  61.219  25.649  1.00  0.00     0.174 HD
ATOM     16  H81 UNL     1       3.141  60.947  23.967  1.00  0.00     0.174 HD
ENDBRANCH  11  14
ENDBRANCH   2   5
ENDBRANCH   1   2
BRANCH   1  17
HETATM   17  C6  UNL     1       0.760  55.787  24.463  1.00  0.00     0.188 C 
BRANCH  17  18
HETATM   18  O4  UNL     1       0.743  56.920  23.620  1.00  0.00    -0.399 OA
ATOM     19  H4  UNL     1       1.325  57.585  23.967  1.00  0.00     0.209 HD
ENDBRANCH  17  18
ENDBRANCH   1  17
BRANCH   1  20
HETATM   20  C7  UNL     1       1.198  54.962  26.728  1.00  0.00     0.213 C 
HETATM   21  N2  UNL     1       1.468  53.764  25.939  1.00  0.00    -0.100 NA
HETATM   22  N3  UNL     1       1.411  52.695  26.872  1.00  0.00    -0.031 NA
HETATM   23  N4  UNL     1       2.551  52.748  27.629  1.00  0.00    -0.277 N 
HETATM   24  C8  UNL     1       3.007  54.027  28.020  1.00  0.00     0.396 C 
ATOM     25  H4  UNL     1       3.050  51.901  27.899  1.00  0.00     0.181 HD
HETATM   26  N6  UNL     1       2.188  55.135  27.729  1.00  0.00    -0.359 N 
ATOM     27  H6  UNL     1       2.302  56.023  28.217  1.00  0.00     0.158 HD
BRANCH  24  28
HETATM   28  N5  UNL     1       3.240  53.992  29.474  1.00  0.00    -0.040 N 
ATOM     29  H53 UNL     1       2.867  54.810  29.955  1.00  0.00     0.279 HD
ATOM     30  H52 UNL     1       2.675  53.287  29.950  1.00  0.00     0.279 HD
ATOM     31  H51 UNL     1       4.240  53.865  29.624  1.00  0.00     0.279 HD
ENDBRANCH  24  28
ENDBRANCH   1  20
TORSDOF 7
ENDMDL
MODEL 5
REMARK VINA RESULT: -5.643392817      4.255      5.540
REMARK  7 active torsions:
REMARK  status: ('A' for Active; 'I' for Inactive)
REMARK    1  A    between atoms: C4_6  and  S1_7 
REMARK    2  A    between atoms: S1_7  and  C5_10 
REMARK    3  A    between atoms: C5_10  and  C6_11 
REMARK    4  A    between atoms: C5_10  and  C7_14 
REMARK    5  A    between atoms: C6_11  and  O4_12 
REMARK    6  A    between atoms: C8_19  and  N5_20 
REMARK    7  A    between atoms: C9_28  and  N8_29 
ROOT
HETATM    1  C5  UNL     1       1.111  55.236  25.436  1.00  0.00     0.178 C 
ENDROOT
BRANCH   1   2
HETATM    2  S1  UNL     1       0.518  55.668  27.058  1.00  0.00     0.201 S 
HETATM    3  O2  UNL     1      -0.920  55.262  27.130  1.00  0.00    -0.221 OA
HETATM    4  O3  UNL     1       0.611  57.168  27.175  1.00  0.00    -0.221 OA
BRANCH   2   5
HETATM    5  C4  UNL     1       1.483  54.932  28.298  1.00  0.00     0.149 A 
HETATM    6  C3  UNL     1       2.589  55.612  28.774  1.00  0.00     0.117 A 
HETATM    7  C2  UNL     1       3.393  55.084  29.755  1.00  0.00     0.264 A 
HETATM    8  N1  UNL     1       3.100  53.888  30.260  1.00  0.00    -0.152 N 
HETATM    9  O1  UNL     1       4.411  55.699  30.199  1.00  0.00    -0.267 OA
HETATM   10  C1  UNL     1       3.935  53.280  31.315  1.00  0.00     0.179 C 
HETATM   11  C9  UNL     1       2.026  53.235  29.794  1.00  0.00     0.681 A 
HETATM   12  N7  UNL     1       1.229  53.733  28.837  1.00  0.00    -0.181 N 
ATOM     13  H7  UNL     1       0.423  53.195  28.519  1.00  0.00     0.185 HD
BRANCH  11  14
HETATM   14  N8  UNL     1       1.728  52.055  30.284  1.00  0.00    -0.234 N 
ATOM     15  H82 UNL     1       2.463  51.348  30.301  1.00  0.00     0.174 HD
ATOM     16  H81 UNL     1       0.785  51.881  30.630  1.00  0.00     0.174 HD
ENDBRANCH  11  14
ENDBRANCH   2   5
ENDBRANCH   1   2
BRANCH   1  17
HETATM   17  C6  UNL     1       0.808  56.369  24.484  1.00  0.00     0.188 C 
BRANCH  17  18
HETATM   18  O4  UNL     1       1.892  57.275  24.464  1.00  0.00    -0.399 OA
ATOM     19  H4  UNL     1       1.585  58.145  24.692  1.00  0.00     0.209 HD
ENDBRANCH  17  18
ENDBRANCH   1  17
BRANCH   1  20
HETATM   20  C7  UNL     1       0.443  53.984  24.910  1.00  0.00     0.213 C 
HETATM   21  N2  UNL     1       0.619  53.830  23.470  1.00  0.00    -0.100 NA
HETATM   22  N3  UNL     1      -0.142  52.679  23.133  1.00  0.00    -0.031 NA
HETATM   23  N4  UNL     1       0.548  51.584  23.580  1.00  0.00    -0.277 N 
HETATM   24  C8  UNL     1       1.182  51.690  24.837  1.00  0.00     0.396 C 
ATOM     25  H4  UNL     1       0.602  50.728  23.028  1.00  0.00     0.181 HD
HETATM   26  N6  UNL     1       0.944  52.850  25.599  1.00  0.00    -0.359 N 
ATOM     27  H6  UNL     1       1.123  52.873  26.603  1.00  0.00     0.158 HD
BRANCH  24  28
HETATM   28  N5  UNL     1       0.784  50.519  25.638  1.00  0.00    -0.040 N 
ATOM     29  H53 UNL     1       0.005  50.714  26.266  1.00  0.00     0.279 HD
ATOM     30  H52 UNL     1       0.331  49.794  25.082  1.00  0.00     0.279 HD
ATOM     31  H51 UNL     1       1.613  50.184  26.128  1.00  0.00     0.279 HD
ENDBRANCH  24  28
ENDBRANCH   1  20
TORSDOF 7
ENDMDL
