MODEL 1
REMARK VINA RESULT: -5.656627762      0.000      0.000
REMARK  11 active torsions:
REMARK  status: ('A' for Active; 'I' for Inactive)
REMARK    1  A    between atoms: N1_1  and  N2_4 
REMARK    2  A    between atoms: C2_9  and  N4_10 
REMARK    3  A    between atoms: N4_10  and  C3_12 
REMARK    4  A    between atoms: C3_12  and  C4_13 
REMARK    5  A    between atoms: C3_12  and  C5_18 
REMARK    6  A    between atoms: C4_13  and  O2_14 
REMARK    7  A    between atoms: C4_13  and  O3_16 
REMARK    8  A    between atoms: C5_18  and  O4_19 
REMARK    9  A    between atoms: C5_18  and  O5_21 
REMARK   10  A    between atoms: N6_30  and  C9_31 
REMARK   11  A    between atoms: C9_31  and  O8_32 
ROOT
HETATM    1  N2  UNL     1       1.416  53.900  27.255  1.00  0.00    -0.194 N 
HETATM    2  C1  UNL     1       1.740  55.045  27.935  1.00  0.00     0.348 A 
HETATM    3  O1  UNL     1       2.097  54.993  29.151  1.00  0.00    -0.245 OA
HETATM    4  N3  UNL     1       1.685  56.237  27.329  1.00  0.00    -0.292 N 
ATOM      5  H3  UNL     1       1.930  57.078  27.853  1.00  0.00     0.172 HD
HETATM    6  C2  UNL     1       1.313  56.347  26.044  1.00  0.00     0.125 A 
HETATM    7  C6  UNL     1       0.991  55.174  25.377  1.00  0.00     0.122 A 
HETATM    8  C7  UNL     1       0.612  55.297  24.068  1.00  0.00     0.267 A 
HETATM    9  O6  UNL     1       0.556  56.391  23.492  1.00  0.00    -0.267 OA
HETATM   10  N5  UNL     1       0.298  54.168  23.415  1.00  0.00    -0.274 N 
ATOM     11  H5  UNL     1       0.011  54.224  22.437  1.00  0.00     0.173 HD
HETATM   12  C8  UNL     1       0.349  52.977  24.009  1.00  0.00     0.332 A 
HETATM   13  O7  UNL     1       0.047  51.971  23.354  1.00  0.00    -0.246 OA
HETATM   14  N6  UNL     1       0.726  52.797  25.331  1.00  0.00    -0.261 N 
HETATM   15  C10 UNL     1       1.039  53.919  25.982  1.00  0.00     0.159 A 
ENDROOT
BRANCH   6  16
HETATM   16  N4  UNL     1       1.248  57.474  25.424  1.00  0.00    -0.361 N 
ATOM     17  H4  UNL     1       1.459  57.480  24.425  1.00  0.00     0.161 HD
BRANCH  16  18
HETATM   18  C3  UNL     1       0.902  58.715  26.038  1.00  0.00     0.192 C 
BRANCH  18  19
HETATM   19  C4  UNL     1      -0.459  59.131  25.508  1.00  0.00     0.281 C 
BRANCH  19  20
HETATM   20  O2  UNL     1      -0.545  58.910  24.126  1.00  0.00    -0.369 OA
ATOM     21  H2  UNL     1      -0.945  59.653  23.689  1.00  0.00     0.212 HD
ENDBRANCH  19  20
BRANCH  19  22
HETATM   22  O3  UNL     1      -1.474  58.389  26.113  1.00  0.00    -0.369 OA
ATOM     23  H3  UNL     1      -1.592  57.556  25.671  1.00  0.00     0.212 HD
ENDBRANCH  19  22
ENDBRANCH  18  19
BRANCH  18  24
HETATM   24  C5  UNL     1       1.890  59.801  25.603  1.00  0.00     0.281 C 
BRANCH  24  25
HETATM   25  O4  UNL     1       2.476  59.413  24.412  1.00  0.00    -0.369 OA
ATOM     26  H4  UNL     1       2.047  59.874  23.700  1.00  0.00     0.212 HD
ENDBRANCH  24  25
BRANCH  24  27
HETATM   27  O5  UNL     1       1.130  60.968  25.414  1.00  0.00    -0.369 OA
ATOM     28  H5  UNL     1       1.101  61.405  26.257  1.00  0.00     0.212 HD
ENDBRANCH  24  27
ENDBRANCH  18  24
ENDBRANCH  16  18
ENDBRANCH   6  16
BRANCH   1  29
HETATM   29  N1  UNL     1       1.506  52.763  28.008  1.00  0.00    -0.333 N 
ATOM     30  H12 UNL     1       1.850  52.742  28.969  1.00  0.00     0.177 HD
ATOM     31  H11 UNL     1       1.205  51.919  27.522  1.00  0.00     0.177 HD
ENDBRANCH   1  29
BRANCH  14  32
HETATM   32  C9  UNL     1       0.751  51.471  25.851  1.00  0.00     0.302 C 
BRANCH  32  33
HETATM   33  O8  UNL     1       2.001  50.936  25.518  1.00  0.00    -0.382 OA
ATOM     34  H8  UNL     1       2.527  50.966  26.309  1.00  0.00     0.211 HD
ENDBRANCH  32  33
ENDBRANCH  14  32
TORSDOF 11
ENDMDL
MODEL 2
REMARK VINA RESULT: -5.385378319      1.543      1.579
REMARK  11 active torsions:
REMARK  status: ('A' for Active; 'I' for Inactive)
REMARK    1  A    between atoms: N1_1  and  N2_4 
REMARK    2  A    between atoms: C2_9  and  N4_10 
REMARK    3  A    between atoms: N4_10  and  C3_12 
REMARK    4  A    between atoms: C3_12  and  C4_13 
REMARK    5  A    between atoms: C3_12  and  C5_18 
REMARK    6  A    between atoms: C4_13  and  O2_14 
REMARK    7  A    between atoms: C4_13  and  O3_16 
REMARK    8  A    between atoms: C5_18  and  O4_19 
REMARK    9  A    between atoms: C5_18  and  O5_21 
REMARK   10  A    between atoms: N6_30  and  C9_31 
REMARK   11  A    between atoms: C9_31  and  O8_32 
ROOT
HETATM    1  N2  UNL     1       0.526  55.264  27.886  1.00  0.00    -0.194 N 
HETATM    2  C1  UNL     1       0.353  56.501  28.452  1.00  0.00     0.348 A 
HETATM    3  O1  UNL     1       0.242  56.623  29.709  1.00  0.00    -0.245 OA
HETATM    4  N3  UNL     1       0.297  57.598  27.688  1.00  0.00    -0.292 N 
ATOM      5  H3  UNL     1       0.167  58.509  28.129  1.00  0.00     0.172 HD
HETATM    6  C2  UNL     1       0.408  57.522  26.354  1.00  0.00     0.125 A 
HETATM    7  C6  UNL     1       0.584  56.260  25.804  1.00  0.00     0.122 A 
HETATM    8  C7  UNL     1       0.695  56.193  24.443  1.00  0.00     0.267 A 
HETATM    9  O6  UNL     1       0.645  57.198  23.721  1.00  0.00    -0.267 OA
HETATM   10  N5  UNL     1       0.864  54.977  23.902  1.00  0.00    -0.274 N 
ATOM     11  H5  UNL     1       0.950  54.891  22.889  1.00  0.00     0.173 HD
HETATM   12  C8  UNL     1       0.921  53.879  24.654  1.00  0.00     0.332 A 
HETATM   13  O7  UNL     1       1.079  52.784  24.098  1.00  0.00    -0.246 OA
HETATM   14  N6  UNL     1       0.814  53.890  26.036  1.00  0.00    -0.261 N 
HETATM   15  C10 UNL     1       0.646  55.099  26.574  1.00  0.00     0.159 A 
ENDROOT
BRANCH   6  16
HETATM   16  N4  UNL     1       0.360  58.554  25.583  1.00  0.00    -0.361 N 
ATOM     17  H4  UNL     1      -0.018  58.428  24.644  1.00  0.00     0.161 HD
BRANCH  16  18
HETATM   18  C3  UNL     1       0.800  59.859  25.954  1.00  0.00     0.192 C 
BRANCH  18  19
HETATM   19  C4  UNL     1      -0.041  60.867  25.187  1.00  0.00     0.281 C 
BRANCH  19  20
HETATM   20  O2  UNL     1       0.065  60.656  23.806  1.00  0.00    -0.369 OA
ATOM     21  H2  UNL     1       0.739  61.211  23.430  1.00  0.00     0.212 HD
ENDBRANCH  19  20
BRANCH  19  22
HETATM   22  O3  UNL     1      -1.389  60.747  25.526  1.00  0.00    -0.369 OA
ATOM     23  H3  UNL     1      -1.827  61.588  25.467  1.00  0.00     0.212 HD
ENDBRANCH  19  22
ENDBRANCH  18  19
BRANCH  18  24
HETATM   24  C5  UNL     1       2.248  60.066  25.503  1.00  0.00     0.281 C 
BRANCH  24  25
HETATM   25  O4  UNL     1       2.479  59.279  24.388  1.00  0.00    -0.369 OA
ATOM     26  H4  UNL     1       2.936  59.801  23.739  1.00  0.00     0.212 HD
ENDBRANCH  24  25
BRANCH  24  27
HETATM   27  O5  UNL     1       2.364  61.426  25.169  1.00  0.00    -0.369 OA
ATOM     28  H5  UNL     1       1.913  61.535  24.340  1.00  0.00     0.212 HD
ENDBRANCH  24  27
ENDBRANCH  18  24
ENDBRANCH  16  18
ENDBRANCH   6  16
BRANCH   1  29
HETATM   29  N1  UNL     1       0.550  54.239  28.790  1.00  0.00    -0.333 N 
ATOM     30  H12 UNL     1       0.904  54.328  29.743  1.00  0.00     0.177 HD
ATOM     31  H11 UNL     1       0.187  53.358  28.427  1.00  0.00     0.177 HD
ENDBRANCH   1  29
BRANCH  14  32
HETATM   32  C9  UNL     1       0.900  52.650  26.730  1.00  0.00     0.302 C 
BRANCH  32  33
HETATM   33  O8  UNL     1       2.264  52.388  26.913  1.00  0.00    -0.382 OA
ATOM     34  H8  UNL     1       2.728  52.921  26.277  1.00  0.00     0.211 HD
ENDBRANCH  32  33
ENDBRANCH  14  32
TORSDOF 11
ENDMDL
MODEL 3
REMARK VINA RESULT: -5.346509962      2.544      5.052
REMARK  11 active torsions:
REMARK  status: ('A' for Active; 'I' for Inactive)
REMARK    1  A    between atoms: N1_1  and  N2_4 
REMARK    2  A    between atoms: C2_9  and  N4_10 
REMARK    3  A    between atoms: N4_10  and  C3_12 
REMARK    4  A    between atoms: C3_12  and  C4_13 
REMARK    5  A    between atoms: C3_12  and  C5_18 
REMARK    6  A    between atoms: C4_13  and  O2_14 
REMARK    7  A    between atoms: C4_13  and  O3_16 
REMARK    8  A    between atoms: C5_18  and  O4_19 
REMARK    9  A    between atoms: C5_18  and  O5_21 
REMARK   10  A    between atoms: N6_30  and  C9_31 
REMARK   11  A    between atoms: C9_31  and  O8_32 
ROOT
HETATM    1  N2  UNL     1       0.890  55.643  28.458  1.00  0.00    -0.194 N 
HETATM    2  C1  UNL     1      -0.181  55.990  27.677  1.00  0.00     0.348 A 
HETATM    3  O1  UNL     1      -0.871  57.018  27.952  1.00  0.00    -0.245 OA
HETATM    4  N3  UNL     1      -0.519  55.250  26.615  1.00  0.00    -0.292 N 
ATOM      5  H3  UNL     1      -1.321  55.525  26.047  1.00  0.00     0.172 HD
HETATM    6  C2  UNL     1       0.177  54.152  26.282  1.00  0.00     0.125 A 
HETATM    7  C6  UNL     1       1.259  53.822  27.086  1.00  0.00     0.122 A 
HETATM    8  C7  UNL     1       1.962  52.701  26.740  1.00  0.00     0.267 A 
HETATM    9  O6  UNL     1       1.663  52.005  25.760  1.00  0.00    -0.267 OA
HETATM   10  N5  UNL     1       3.008  52.373  27.512  1.00  0.00    -0.274 N 
ATOM     11  H5  UNL     1       3.555  51.542  27.282  1.00  0.00     0.173 HD
HETATM   12  C8  UNL     1       3.352  53.103  28.572  1.00  0.00     0.332 A 
HETATM   13  O7  UNL     1       4.329  52.750  29.247  1.00  0.00    -0.246 OA
HETATM   14  N6  UNL     1       2.675  54.247  28.967  1.00  0.00    -0.261 N 
HETATM   15  C10 UNL     1       1.634  54.573  28.199  1.00  0.00     0.159 A 
ENDROOT
BRANCH   6  16
HETATM   16  N4  UNL     1      -0.114  53.414  25.267  1.00  0.00    -0.361 N 
ATOM     17  H4  UNL     1       0.086  52.415  25.333  1.00  0.00     0.161 HD
BRANCH  16  18
HETATM   18  C3  UNL     1      -0.697  53.897  24.059  1.00  0.00     0.192 C 
BRANCH  18  19
HETATM   19  C4  UNL     1      -1.151  52.694  23.249  1.00  0.00     0.281 C 
BRANCH  19  20
HETATM   20  O2  UNL     1      -1.212  53.005  21.884  1.00  0.00    -0.369 OA
ATOM     21  H2  UNL     1      -2.075  52.819  21.533  1.00  0.00     0.212 HD
ENDBRANCH  19  20
BRANCH  19  22
HETATM   22  O3  UNL     1      -0.256  51.633  23.396  1.00  0.00    -0.369 OA
ATOM     23  H3  UNL     1       0.637  51.923  23.251  1.00  0.00     0.212 HD
ENDBRANCH  19  22
ENDBRANCH  18  19
BRANCH  18  24
HETATM   24  C5  UNL     1       0.366  54.611  23.219  1.00  0.00     0.281 C 
BRANCH  24  25
HETATM   25  O4  UNL     1       0.585  55.865  23.761  1.00  0.00    -0.369 OA
ATOM     26  H4  UNL     1       1.226  56.318  23.226  1.00  0.00     0.212 HD
ENDBRANCH  24  25
BRANCH  24  27
HETATM   27  O5  UNL     1       1.531  53.830  23.316  1.00  0.00    -0.369 OA
ATOM     28  H5  UNL     1       2.250  54.395  23.059  1.00  0.00     0.212 HD
ENDBRANCH  24  27
ENDBRANCH  18  24
ENDBRANCH  16  18
ENDBRANCH   6  16
BRANCH   1  29
HETATM   29  N1  UNL     1       1.104  56.485  29.513  1.00  0.00    -0.333 N 
ATOM     30  H12 UNL     1       1.045  57.502  29.452  1.00  0.00     0.177 HD
ATOM     31  H11 UNL     1       1.340  56.007  30.383  1.00  0.00     0.177 HD
ENDBRANCH   1  29
BRANCH  14  32
HETATM   32  C9  UNL     1       3.146  54.948  30.114  1.00  0.00     0.302 C 
BRANCH  32  33
HETATM   33  O8  UNL     1       4.258  55.690  29.699  1.00  0.00    -0.382 OA
ATOM     34  H8  UNL     1       5.000  55.367  30.196  1.00  0.00     0.211 HD
ENDBRANCH  32  33
ENDBRANCH  14  32
TORSDOF 11
ENDMDL
MODEL 4
REMARK VINA RESULT: -5.302710499      2.613      5.344
REMARK  11 active torsions:
REMARK  status: ('A' for Active; 'I' for Inactive)
REMARK    1  A    between atoms: N1_1  and  N2_4 
REMARK    2  A    between atoms: C2_9  and  N4_10 
REMARK    3  A    between atoms: N4_10  and  C3_12 
REMARK    4  A    between atoms: C3_12  and  C4_13 
REMARK    5  A    between atoms: C3_12  and  C5_18 
REMARK    6  A    between atoms: C4_13  and  O2_14 
REMARK    7  A    between atoms: C4_13  and  O3_16 
REMARK    8  A    between atoms: C5_18  and  O4_19 
REMARK    9  A    between atoms: C5_18  and  O5_21 
REMARK   10  A    between atoms: N6_30  and  C9_31 
REMARK   11  A    between atoms: C9_31  and  O8_32 
ROOT
HETATM    1  N2  UNL     1       2.937  54.143  29.695  1.00  0.00    -0.194 N 
HETATM    2  C1  UNL     1       3.198  53.616  28.457  1.00  0.00     0.348 A 
HETATM    3  O1  UNL     1       4.074  52.711  28.314  1.00  0.00    -0.245 OA
HETATM    4  N3  UNL     1       2.533  54.047  27.379  1.00  0.00    -0.292 N 
ATOM      5  H3  UNL     1       2.742  53.643  26.466  1.00  0.00     0.172 HD
HETATM    6  C2  UNL     1       1.596  55.003  27.476  1.00  0.00     0.125 A 
HETATM    7  C6  UNL     1       1.349  55.520  28.739  1.00  0.00     0.122 A 
HETATM    8  C7  UNL     1       0.393  56.495  28.828  1.00  0.00     0.267 A 
HETATM    9  O6  UNL     1      -0.231  56.906  27.841  1.00  0.00    -0.267 OA
HETATM   10  N5  UNL     1       0.148  57.002  30.045  1.00  0.00    -0.274 N 
ATOM     11  H5  UNL     1      -0.559  57.730  30.147  1.00  0.00     0.173 HD
HETATM   12  C8  UNL     1       0.805  56.579  31.125  1.00  0.00     0.332 A 
HETATM   13  O7  UNL     1       0.534  57.085  32.222  1.00  0.00    -0.246 OA
HETATM   14  N6  UNL     1       1.782  55.595  31.092  1.00  0.00    -0.261 N 
HETATM   15  C10 UNL     1       2.025  55.091  29.881  1.00  0.00     0.159 A 
ENDROOT
BRANCH   6  16
HETATM   16  N4  UNL     1       0.934  55.445  26.463  1.00  0.00    -0.361 N 
ATOM     17  H4  UNL     1       0.031  55.886  26.642  1.00  0.00     0.161 HD
BRANCH  16  18
HETATM   18  C3  UNL     1       1.376  55.361  25.110  1.00  0.00     0.192 C 
BRANCH  18  19
HETATM   19  C4  UNL     1       0.902  56.611  24.388  1.00  0.00     0.281 C 
BRANCH  19  20
HETATM   20  O2  UNL     1      -0.219  57.160  25.025  1.00  0.00    -0.369 OA
ATOM     21  H2  UNL     1      -0.379  56.731  25.857  1.00  0.00     0.212 HD
ENDBRANCH  19  20
BRANCH  19  22
HETATM   22  O3  UNL     1       1.899  57.587  24.383  1.00  0.00    -0.369 OA
ATOM     23  H3  UNL     1       1.520  58.456  24.313  1.00  0.00     0.212 HD
ENDBRANCH  19  22
ENDBRANCH  18  19
BRANCH  18  24
HETATM   24  C5  UNL     1       0.700  54.174  24.417  1.00  0.00     0.281 C 
BRANCH  24  25
HETATM   25  O4  UNL     1      -0.590  54.540  24.076  1.00  0.00    -0.369 OA
ATOM     26  H4  UNL     1      -0.567  55.410  23.696  1.00  0.00     0.212 HD
ENDBRANCH  24  25
BRANCH  24  27
HETATM   27  O5  UNL     1       1.453  53.916  23.259  1.00  0.00    -0.369 OA
ATOM     28  H5  UNL     1       1.154  53.077  22.930  1.00  0.00     0.212 HD
ENDBRANCH  24  27
ENDBRANCH  18  24
ENDBRANCH  16  18
ENDBRANCH   6  16
BRANCH   1  29
HETATM   29  N1  UNL     1       3.703  53.613  30.696  1.00  0.00    -0.333 N 
ATOM     30  H12 UNL     1       3.354  52.951  31.390  1.00  0.00     0.177 HD
ATOM     31  H11 UNL     1       4.667  53.945  30.700  1.00  0.00     0.177 HD
ENDBRANCH   1  29
BRANCH  14  32
HETATM   32  C9  UNL     1       2.406  55.222  32.315  1.00  0.00     0.302 C 
BRANCH  32  33
HETATM   33  O8  UNL     1       3.476  56.105  32.503  1.00  0.00    -0.382 OA
ATOM     34  H8  UNL     1       3.778  55.979  33.395  1.00  0.00     0.211 HD
ENDBRANCH  32  33
ENDBRANCH  14  32
TORSDOF 11
ENDMDL
MODEL 5
REMARK VINA RESULT: -5.280845010      1.929      2.407
REMARK  11 active torsions:
REMARK  status: ('A' for Active; 'I' for Inactive)
REMARK    1  A    between atoms: N1_1  and  N2_4 
REMARK    2  A    between atoms: C2_9  and  N4_10 
REMARK    3  A    between atoms: N4_10  and  C3_12 
REMARK    4  A    between atoms: C3_12  and  C4_13 
REMARK    5  A    between atoms: C3_12  and  C5_18 
REMARK    6  A    between atoms: C4_13  and  O2_14 
REMARK    7  A    between atoms: C4_13  and  O3_16 
REMARK    8  A    between atoms: C5_18  and  O4_19 
REMARK    9  A    between atoms: C5_18  and  O5_21 
REMARK   10  A    between atoms: N6_30  and  C9_31 
REMARK   11  A    between atoms: C9_31  and  O8_32 
ROOT
HETATM    1  N2  UNL     1      -0.354  56.127  27.937  1.00  0.00    -0.194 N 
HETATM    2  C1  UNL     1      -0.510  57.452  28.248  1.00  0.00     0.348 A 
HETATM    3  O1  UNL     1      -1.100  57.797  29.317  1.00  0.00    -0.245 OA
HETATM    4  N3  UNL     1      -0.045  58.404  27.431  1.00  0.00    -0.292 N 
ATOM      5  H3  UNL     1      -0.172  59.385  27.681  1.00  0.00     0.172 HD
HETATM    6  C2  UNL     1       0.586  58.092  26.289  1.00  0.00     0.125 A 
HETATM    7  C6  UNL     1       0.734  56.744  25.996  1.00  0.00     0.122 A 
HETATM    8  C7  UNL     1       1.377  56.436  24.829  1.00  0.00     0.267 A 
HETATM    9  O6  UNL     1       1.814  57.304  24.061  1.00  0.00    -0.267 OA
HETATM   10  N5  UNL     1       1.523  55.135  24.537  1.00  0.00    -0.274 N 
ATOM     11  H5  UNL     1       1.999  54.870  23.673  1.00  0.00     0.173 HD
HETATM   12  C8  UNL     1       1.064  54.180  25.344  1.00  0.00     0.332 A 
HETATM   13  O7  UNL     1       1.230  52.996  25.020  1.00  0.00    -0.246 OA
HETATM   14  N6  UNL     1       0.405  54.436  26.537  1.00  0.00    -0.261 N 
HETATM   15  C10 UNL     1       0.260  55.730  26.828  1.00  0.00     0.159 A 
ENDROOT
BRANCH   6  16
HETATM   16  N4  UNL     1       1.049  58.977  25.476  1.00  0.00    -0.361 N 
ATOM     17  H4  UNL     1       1.121  58.726  24.490  1.00  0.00     0.161 HD
BRANCH  16  18
HETATM   18  C3  UNL     1       1.468  60.286  25.860  1.00  0.00     0.192 C 
BRANCH  18  19
HETATM   19  C4  UNL     1       0.485  61.281  25.266  1.00  0.00     0.281 C 
BRANCH  19  20
HETATM   20  O2  UNL     1       0.201  60.964  23.930  1.00  0.00    -0.369 OA
ATOM     21  H2  UNL     1       0.784  61.429  23.342  1.00  0.00     0.212 HD
ENDBRANCH  19  20
BRANCH  19  22
HETATM   22  O3  UNL     1      -0.722  61.262  25.965  1.00  0.00    -0.369 OA
ATOM     23  H3  UNL     1      -1.419  61.644  25.444  1.00  0.00     0.212 HD
ENDBRANCH  19  22
ENDBRANCH  18  19
BRANCH  18  24
HETATM   24  C5  UNL     1       2.833  60.596  25.239  1.00  0.00     0.281 C 
BRANCH  24  25
HETATM   25  O4  UNL     1       2.908  59.972  24.007  1.00  0.00    -0.369 OA
ATOM     26  H4  UNL     1       2.877  60.636  23.329  1.00  0.00     0.212 HD
ENDBRANCH  24  25
BRANCH  24  27
HETATM   27  O5  UNL     1       2.882  61.992  25.079  1.00  0.00    -0.369 OA
ATOM     28  H5  UNL     1       3.272  62.148  24.227  1.00  0.00     0.212 HD
ENDBRANCH  24  27
ENDBRANCH  18  24
ENDBRANCH  16  18
ENDBRANCH   6  16
BRANCH   1  29
HETATM   29  N1  UNL     1      -0.891  55.272  28.860  1.00  0.00    -0.333 N 
ATOM     30  H12 UNL     1      -1.260  55.569  29.763  1.00  0.00     0.177 HD
ATOM     31  H11 UNL     1      -0.887  54.294  28.570  1.00  0.00     0.177 HD
ENDBRANCH   1  29
BRANCH  14  32
HETATM   32  C9  UNL     1      -0.031  53.329  27.319  1.00  0.00     0.302 C 
BRANCH  32  33
HETATM   33  O8  UNL     1       1.098  52.846  27.991  1.00  0.00    -0.382 OA
ATOM     34  H8  UNL     1       1.059  53.198  28.872  1.00  0.00     0.211 HD
ENDBRANCH  32  33
ENDBRANCH  14  32
TORSDOF 11
ENDMDL
