MODEL 1
REMARK VINA RESULT: -10.899679618      0.000      0.000
REMARK  4 active torsions:
REMARK  status: ('A' for Active; 'I' for Inactive)
REMARK       I    between atoms: N1_5  and  C5_7 
REMARK    1  A    between atoms: C5_7  and  C6_9 
REMARK    2  A    between atoms: C9_14  and  C10_15 
REMARK    3  A    between atoms: N4_21  and  C14_22 
REMARK    4  A    between atoms: C14_22  and  C15_23 
ROOT
HETATM    1  C15 UNL     1      11.678  25.288 117.924  1.00  0.00    -0.039 A 
HETATM    2  C16 UNL     1      11.634  23.939 117.673  1.00  0.00     0.011 A 
HETATM    3  C17 UNL     1      12.434  23.020 118.345  1.00  0.00     0.031 A 
HETATM    4  C18 UNL     1      13.314  23.455 119.306  1.00  0.00     0.042 A 
HETATM    5  N5  UNL     1      14.112  22.584 119.983  1.00  0.00    -0.364 N 
ATOM      6  H5  UNL     1      14.049  21.590 119.767  1.00  0.00     0.165 HD
HETATM    7  C19 UNL     1      14.980  22.991 120.927  1.00  0.00     0.111 A 
HETATM    8  C20 UNL     1      15.076  24.331 121.230  1.00  0.00     0.060 A 
HETATM    9  C21 UNL     1      15.969  24.842 122.217  1.00  0.00     0.101 C 
HETATM   10  N6  UNL     1      16.702  25.257 123.033  1.00  0.00    -0.191 NA
HETATM   11  C22 UNL     1      14.269  25.248 120.550  1.00  0.00     0.038 A 
HETATM   12  C23 UNL     1      13.377  24.794 119.575  1.00  0.00    -0.007 A 
HETATM   13  C24 UNL     1      12.564  25.705 118.890  1.00  0.00     0.022 A 
ENDROOT
BRANCH   1  14
HETATM   14  C14 UNL     1      10.796  26.280 117.205  1.00  0.00     0.169 C 
BRANCH  14  15
HETATM   15  N4  UNL     1      11.370  27.596 117.141  1.00  0.00    -0.328 N 
HETATM   16  C10 UNL     1      12.330  28.044 116.334  1.00  0.00     0.096 A 
HETATM   17  C11 UNL     1      12.595  29.369 116.792  1.00  0.00     0.123 A 
HETATM   18  N3  UNL     1      11.792  29.604 117.803  1.00  0.00    -0.354 N 
HETATM   19  C12 UNL     1      11.014  28.547 118.061  1.00  0.00     0.080 A 
ATOM     20  H3  UNL     1      11.765  30.480 118.324  1.00  0.00     0.166 HD
HETATM   21  C13 UNL     1       9.995  28.515 119.128  1.00  0.00     0.089 C 
BRANCH  16  22
HETATM   22  C9  UNL     1      13.130  27.479 115.265  1.00  0.00     0.141 A 
HETATM   23  N2  UNL     1      13.756  26.280 115.530  1.00  0.00    -0.343 N 
HETATM   24  C7  UNL     1      14.588  25.679 114.693  1.00  0.00     0.025 A 
ATOM     25  H2  UNL     1      13.566  25.828 116.425  1.00  0.00     0.167 HD
HETATM   26  C6  UNL     1      14.838  26.287 113.501  1.00  0.00     0.081 A 
HETATM   27  C8  UNL     1      15.215  24.367 115.088  1.00  0.00     0.069 C 
HETATM   28  C29 UNL     1      14.234  27.484 113.206  1.00  0.00     0.059 A 
HETATM   29  N7  UNL     1      13.384  28.061 114.102  1.00  0.00    -0.304 N 
HETATM   30  C28 UNL     1      14.339  28.327 112.116  1.00  0.00     0.055 A 
HETATM   31  C25 UNL     1      12.991  29.247 113.550  1.00  0.00     0.121 A 
HETATM   32  C26 UNL     1      13.562  29.443 112.320  1.00  0.00     0.062 A 
HETATM   33  C27 UNL     1      13.366  30.583 111.456  1.00  0.00     0.101 C 
HETATM   34  N8  UNL     1      13.220  31.510 110.768  1.00  0.00    -0.191 NA
BRANCH  26  35
HETATM   35  C5  UNL     1      15.737  25.670 112.551  1.00  0.00     0.261 C 
HETATM   36  N1  UNL     1      15.271  24.871 111.475  1.00  0.00    -0.308 N 
HETATM   37  C4  UNL     1      15.715  25.067 110.272  1.00  0.00     0.124 A 
ATOM     38  H1  UNL     1      14.583  24.138 111.648  1.00  0.00     0.170 HD
HETATM   39  C3  UNL     1      16.632  25.987 109.809  1.00  0.00     0.076 A 
HETATM   40  N9  UNL     1      15.349  24.371 109.160  1.00  0.00    -0.285 N 
HETATM   41  C2  UNL     1      16.809  25.839 108.438  1.00  0.00     0.025 A 
HETATM   42  C1  UNL     1      17.700  26.619 107.542  1.00  0.00     0.070 C 
HETATM   43  N10 UNL     1      15.990  24.827 108.099  1.00  0.00    -0.304 N 
ATOM     44  H10 UNL     1      15.879  24.462 107.153  1.00  0.00     0.186 HD
ATOM     45  H9  UNL     1      14.675  23.606 109.149  1.00  0.00     0.188 HD
HETATM   46  O1  UNL     1      16.978  25.870 112.712  1.00  0.00    -0.267 OA
ENDBRANCH  26  35
ENDBRANCH  16  22
ENDBRANCH  14  15
ENDBRANCH   1  14
TORSDOF 4
ENDMDL
MODEL 2
REMARK VINA RESULT: -10.721222997      1.405      3.096
REMARK  4 active torsions:
REMARK  status: ('A' for Active; 'I' for Inactive)
REMARK       I    between atoms: N1_5  and  C5_7 
REMARK    1  A    between atoms: C5_7  and  C6_9 
REMARK    2  A    between atoms: C9_14  and  C10_15 
REMARK    3  A    between atoms: N4_21  and  C14_22 
REMARK    4  A    between atoms: C14_22  and  C15_23 
ROOT
HETATM    1  C15 UNL     1      12.155  25.278 117.348  1.00  0.00    -0.039 A 
HETATM    2  C16 UNL     1      12.088  23.919 117.166  1.00  0.00     0.011 A 
HETATM    3  C17 UNL     1      12.719  23.013 118.013  1.00  0.00     0.031 A 
HETATM    4  C18 UNL     1      13.446  23.472 119.084  1.00  0.00     0.042 A 
HETATM    5  N5  UNL     1      14.076  22.614 119.933  1.00  0.00    -0.364 N 
ATOM      6  H5  UNL     1      14.002  21.611 119.764  1.00  0.00     0.165 HD
HETATM    7  C19 UNL     1      14.793  23.044 120.987  1.00  0.00     0.111 A 
HETATM    8  C20 UNL     1      14.902  24.396 121.229  1.00  0.00     0.060 A 
HETATM    9  C21 UNL     1      15.642  24.931 122.324  1.00  0.00     0.101 C 
HETATM   10  N6  UNL     1      16.246  25.367 123.229  1.00  0.00    -0.191 NA
HETATM   11  C22 UNL     1      14.265  25.299 120.373  1.00  0.00     0.038 A 
HETATM   12  C23 UNL     1      13.528  24.822 119.287  1.00  0.00    -0.007 A 
HETATM   13  C24 UNL     1      12.886  25.720 118.425  1.00  0.00     0.022 A 
ENDROOT
BRANCH   1  14
HETATM   14  C14 UNL     1      11.455  26.257 116.437  1.00  0.00     0.169 C 
BRANCH  14  15
HETATM   15  N4  UNL     1      11.992  27.588 116.526  1.00  0.00    -0.328 N 
HETATM   16  C10 UNL     1      12.930  28.157 115.771  1.00  0.00     0.096 A 
HETATM   17  C11 UNL     1      13.163  29.425 116.383  1.00  0.00     0.123 A 
HETATM   18  N3  UNL     1      12.366  29.514 117.420  1.00  0.00    -0.354 N 
HETATM   19  C12 UNL     1      11.620  28.411 117.557  1.00  0.00     0.080 A 
ATOM     20  H3  UNL     1      12.320  30.320 118.043  1.00  0.00     0.166 HD
HETATM   21  C13 UNL     1      10.614  28.222 118.619  1.00  0.00     0.089 C 
BRANCH  16  22
HETATM   22  C9  UNL     1      13.733  27.746 114.636  1.00  0.00     0.141 A 
HETATM   23  N2  UNL     1      13.719  28.577 113.537  1.00  0.00    -0.343 N 
HETATM   24  C7  UNL     1      14.328  28.302 112.394  1.00  0.00     0.025 A 
ATOM     25  H2  UNL     1      13.210  29.458 113.609  1.00  0.00     0.167 HD
HETATM   26  C6  UNL     1      15.006  27.124 112.304  1.00  0.00     0.081 A 
HETATM   27  C8  UNL     1      14.247  29.286 111.257  1.00  0.00     0.069 C 
HETATM   28  C29 UNL     1      15.038  26.272 113.379  1.00  0.00     0.059 A 
HETATM   29  N7  UNL     1      14.395  26.602 114.534  1.00  0.00    -0.304 N 
HETATM   30  C28 UNL     1      15.597  25.019 113.547  1.00  0.00     0.055 A 
HETATM   31  C25 UNL     1      14.566  25.548 115.384  1.00  0.00     0.121 A 
HETATM   32  C26 UNL     1      15.306  24.550 114.807  1.00  0.00     0.062 A 
HETATM   33  C27 UNL     1      15.681  23.297 115.417  1.00  0.00     0.101 C 
HETATM   34  N8  UNL     1      15.967  22.280 115.905  1.00  0.00    -0.191 NA
BRANCH  26  35
HETATM   35  C5  UNL     1      15.690  26.778 111.077  1.00  0.00     0.261 C 
HETATM   36  N1  UNL     1      15.117  25.914 110.107  1.00  0.00    -0.308 N 
HETATM   37  C4  UNL     1      15.115  26.247 108.854  1.00  0.00     0.124 A 
ATOM     38  H1  UNL     1      14.704  25.028 110.397  1.00  0.00     0.170 HD
HETATM   39  C3  UNL     1      15.609  27.380 108.240  1.00  0.00     0.076 A 
HETATM   40  N9  UNL     1      14.599  25.511 107.830  1.00  0.00    -0.285 N 
HETATM   41  C2  UNL     1      15.388  27.316 106.869  1.00  0.00     0.025 A 
HETATM   42  C1  UNL     1      15.758  28.317 105.837  1.00  0.00     0.070 C 
HETATM   43  N10 UNL     1      14.763  26.140 106.681  1.00  0.00    -0.304 N 
ATOM     44  H10 UNL     1      14.457  25.784 105.776  1.00  0.00     0.186 HD
ATOM     45  H9  UNL     1      14.150  24.601 107.937  1.00  0.00     0.188 HD
HETATM   46  O1  UNL     1      16.839  27.278 110.892  1.00  0.00    -0.267 OA
ENDBRANCH  26  35
ENDBRANCH  16  22
ENDBRANCH  14  15
ENDBRANCH   1  14
TORSDOF 4
ENDMDL
MODEL 3
REMARK VINA RESULT: -10.671138472      3.110      4.174
REMARK  4 active torsions:
REMARK  status: ('A' for Active; 'I' for Inactive)
REMARK       I    between atoms: N1_5  and  C5_7 
REMARK    1  A    between atoms: C5_7  and  C6_9 
REMARK    2  A    between atoms: C9_14  and  C10_15 
REMARK    3  A    between atoms: N4_21  and  C14_22 
REMARK    4  A    between atoms: C14_22  and  C15_23 
ROOT
HETATM    1  C15 UNL     1      12.030  26.029 118.365  1.00  0.00    -0.039 A 
HETATM    2  C16 UNL     1      11.883  24.703 118.042  1.00  0.00     0.011 A 
HETATM    3  C17 UNL     1      12.608  23.691 118.664  1.00  0.00     0.031 A 
HETATM    4  C18 UNL     1      13.515  24.005 119.647  1.00  0.00     0.042 A 
HETATM    5  N5  UNL     1      14.241  23.041 120.276  1.00  0.00    -0.364 N 
ATOM      6  H5  UNL     1      14.104  22.067 120.007  1.00  0.00     0.165 HD
HETATM    7  C19 UNL     1      15.135  23.329 121.240  1.00  0.00     0.111 A 
HETATM    8  C20 UNL     1      15.331  24.640 121.615  1.00  0.00     0.060 A 
HETATM    9  C21 UNL     1      16.257  25.027 122.627  1.00  0.00     0.101 C 
HETATM   10  N6  UNL     1      17.016  25.340 123.465  1.00  0.00    -0.191 NA
HETATM   11  C22 UNL     1      14.599  25.650 120.985  1.00  0.00     0.038 A 
HETATM   12  C23 UNL     1      13.679  25.319 119.987  1.00  0.00    -0.007 A 
HETATM   13  C24 UNL     1      12.941  26.325 119.352  1.00  0.00     0.022 A 
ENDROOT
BRANCH   1  14
HETATM   14  C14 UNL     1      11.229  27.122 117.701  1.00  0.00     0.169 C 
BRANCH  14  15
HETATM   15  N4  UNL     1      12.032  27.981 116.873  1.00  0.00    -0.328 N 
HETATM   16  C10 UNL     1      12.766  27.658 115.809  1.00  0.00     0.096 A 
HETATM   17  C11 UNL     1      13.449  28.863 115.465  1.00  0.00     0.123 A 
HETATM   18  N3  UNL     1      13.077  29.784 116.321  1.00  0.00    -0.354 N 
HETATM   19  C12 UNL     1      12.204  29.298 117.211  1.00  0.00     0.080 A 
ATOM     20  H3  UNL     1      13.410  30.748 116.310  1.00  0.00     0.166 HD
HETATM   21  C13 UNL     1      11.590  30.099 118.287  1.00  0.00     0.089 C 
BRANCH  16  22
HETATM   22  C9  UNL     1      13.044  26.438 115.076  1.00  0.00     0.141 A 
HETATM   23  N2  UNL     1      14.367  26.177 114.791  1.00  0.00    -0.343 N 
HETATM   24  C7  UNL     1      14.777  25.154 114.057  1.00  0.00     0.025 A 
ATOM     25  H2  UNL     1      15.072  26.809 115.168  1.00  0.00     0.167 HD
HETATM   26  C6  UNL     1      13.830  24.313 113.555  1.00  0.00     0.081 A 
HETATM   27  C8  UNL     1      16.251  24.964 113.811  1.00  0.00     0.069 C 
HETATM   28  C29 UNL     1      12.503  24.546 113.818  1.00  0.00     0.059 A 
HETATM   29  N7  UNL     1      12.133  25.613 114.579  1.00  0.00    -0.304 N 
HETATM   30  C28 UNL     1      11.354  23.897 113.407  1.00  0.00     0.055 A 
HETATM   31  C25 UNL     1      10.768  25.604 114.617  1.00  0.00     0.121 A 
HETATM   32  C26 UNL     1      10.252  24.555 113.903  1.00  0.00     0.062 A 
HETATM   33  C27 UNL     1       8.854  24.239 113.732  1.00  0.00     0.101 C 
HETATM   34  N8  UNL     1       7.727  23.996 113.581  1.00  0.00    -0.191 NA
BRANCH  26  35
HETATM   35  C5  UNL     1      14.227  23.179 112.750  1.00  0.00     0.261 C 
HETATM   36  N1  UNL     1      14.706  21.972 113.324  1.00  0.00    -0.308 N 
HETATM   37  C4  UNL     1      14.232  20.829 112.936  1.00  0.00     0.124 A 
ATOM     38  H1  UNL     1      15.427  22.004 114.044  1.00  0.00     0.170 HD
HETATM   39  C3  UNL     1      13.267  20.548 111.991  1.00  0.00     0.076 A 
HETATM   40  N9  UNL     1      14.606  19.606 113.405  1.00  0.00    -0.285 N 
HETATM   41  C2  UNL     1      13.072  19.175 111.901  1.00  0.00     0.025 A 
HETATM   42  C1  UNL     1      12.131  18.442 111.015  1.00  0.00     0.070 C 
HETATM   43  N10 UNL     1      13.926  18.651 112.798  1.00  0.00    -0.304 N 
ATOM     44  H10 UNL     1      14.034  17.654 112.984  1.00  0.00     0.186 HD
ATOM     45  H9  UNL     1      15.312  19.451 114.125  1.00  0.00     0.188 HD
HETATM   46  O1  UNL     1      14.131  23.298 111.492  1.00  0.00    -0.267 OA
ENDBRANCH  26  35
ENDBRANCH  16  22
ENDBRANCH  14  15
ENDBRANCH   1  14
TORSDOF 4
ENDMDL
MODEL 4
REMARK VINA RESULT: -10.622739563      2.855      9.074
REMARK  4 active torsions:
REMARK  status: ('A' for Active; 'I' for Inactive)
REMARK       I    between atoms: N1_5  and  C5_7 
REMARK    1  A    between atoms: C5_7  and  C6_9 
REMARK    2  A    between atoms: C9_14  and  C10_15 
REMARK    3  A    between atoms: N4_21  and  C14_22 
REMARK    4  A    between atoms: C14_22  and  C15_23 
ROOT
HETATM    1  C15 UNL     1      15.239  23.374 114.102  1.00  0.00    -0.039 A 
HETATM    2  C16 UNL     1      15.412  24.279 115.120  1.00  0.00     0.011 A 
HETATM    3  C17 UNL     1      15.787  25.601 114.897  1.00  0.00     0.031 A 
HETATM    4  C18 UNL     1      15.997  26.045 113.615  1.00  0.00     0.042 A 
HETATM    5  N5  UNL     1      16.364  27.331 113.360  1.00  0.00    -0.364 N 
ATOM      6  H5  UNL     1      16.483  27.973 114.143  1.00  0.00     0.165 HD
HETATM    7  C19 UNL     1      16.575  27.784 112.111  1.00  0.00     0.111 A 
HETATM    8  C20 UNL     1      16.418  26.929 111.042  1.00  0.00     0.060 A 
HETATM    9  C21 UNL     1      16.622  27.331 109.690  1.00  0.00     0.101 C 
HETATM   10  N6  UNL     1      16.785  27.668 108.579  1.00  0.00    -0.191 NA
HETATM   11  C22 UNL     1      16.042  25.603 111.275  1.00  0.00     0.038 A 
HETATM   12  C23 UNL     1      15.830  25.162 112.583  1.00  0.00    -0.007 A 
HETATM   13  C24 UNL     1      15.453  23.836 112.825  1.00  0.00     0.022 A 
ENDROOT
BRANCH   1  14
HETATM   14  C14 UNL     1      14.816  21.946 114.347  1.00  0.00     0.169 C 
BRANCH  14  15
HETATM   15  N4  UNL     1      13.429  21.714 114.049  1.00  0.00    -0.328 N 
HETATM   16  C10 UNL     1      12.356  22.279 114.599  1.00  0.00     0.096 A 
HETATM   17  C11 UNL     1      11.250  21.585 114.024  1.00  0.00     0.123 A 
HETATM   18  N3  UNL     1      11.734  20.690 113.197  1.00  0.00    -0.354 N 
HETATM   19  C12 UNL     1      13.071  20.725 113.170  1.00  0.00     0.080 A 
ATOM     20  H3  UNL     1      11.164  20.050 112.644  1.00  0.00     0.166 HD
HETATM   21  C13 UNL     1      13.901  19.851 112.320  1.00  0.00     0.089 C 
BRANCH  16  22
HETATM   22  C9  UNL     1      12.125  23.283 115.620  1.00  0.00     0.141 A 
HETATM   23  N2  UNL     1      11.470  24.428 115.223  1.00  0.00    -0.343 N 
HETATM   24  C7  UNL     1      11.260  25.471 116.011  1.00  0.00     0.025 A 
ATOM     25  H2  UNL     1      11.124  24.475 114.264  1.00  0.00     0.167 HD
HETATM   26  C6  UNL     1      11.724  25.404 117.289  1.00  0.00     0.081 A 
HETATM   27  C8  UNL     1      10.530  26.672 115.470  1.00  0.00     0.069 C 
HETATM   28  C29 UNL     1      12.384  24.278 117.717  1.00  0.00     0.059 A 
HETATM   29  N7  UNL     1      12.573  23.231 116.867  1.00  0.00    -0.304 N 
HETATM   30  C28 UNL     1      12.987  23.964 118.920  1.00  0.00     0.055 A 
HETATM   31  C25 UNL     1      13.293  22.299 117.558  1.00  0.00     0.121 A 
HETATM   32  C26 UNL     1      13.565  22.719 118.833  1.00  0.00     0.062 A 
HETATM   33  C27 UNL     1      14.300  21.989 119.838  1.00  0.00     0.101 C 
HETATM   34  N8  UNL     1      14.907  21.405 120.641  1.00  0.00    -0.191 NA
BRANCH  26  35
HETATM   35  C5  UNL     1      11.518  26.516 118.191  1.00  0.00     0.261 C 
HETATM   36  N1  UNL     1      12.302  27.697 118.129  1.00  0.00    -0.308 N 
HETATM   37  C4  UNL     1      11.733  28.863 118.137  1.00  0.00     0.124 A 
ATOM     38  H1  UNL     1      13.318  27.630 118.077  1.00  0.00     0.170 HD
HETATM   39  C3  UNL     1      10.394  29.191 118.201  1.00  0.00     0.076 A 
HETATM   40  N9  UNL     1      12.369  30.066 118.083  1.00  0.00    -0.285 N 
HETATM   41  C2  UNL     1      10.239  30.572 118.184  1.00  0.00     0.025 A 
HETATM   42  C1  UNL     1       8.975  31.350 118.236  1.00  0.00     0.070 C 
HETATM   43  N10 UNL     1      11.493  31.053 118.110  1.00  0.00    -0.304 N 
ATOM     44  H10 UNL     1      11.734  32.044 118.079  1.00  0.00     0.186 HD
ATOM     45  H9  UNL     1      13.381  30.186 118.028  1.00  0.00     0.188 HD
HETATM   46  O1  UNL     1      10.599  26.401 119.055  1.00  0.00    -0.267 OA
ENDBRANCH  26  35
ENDBRANCH  16  22
ENDBRANCH  14  15
ENDBRANCH   1  14
TORSDOF 4
ENDMDL
MODEL 5
REMARK VINA RESULT: -10.442584537      1.882      2.654
REMARK  4 active torsions:
REMARK  status: ('A' for Active; 'I' for Inactive)
REMARK       I    between atoms: N1_5  and  C5_7 
REMARK    1  A    between atoms: C5_7  and  C6_9 
REMARK    2  A    between atoms: C9_14  and  C10_15 
REMARK    3  A    between atoms: N4_21  and  C14_22 
REMARK    4  A    between atoms: C14_22  and  C15_23 
ROOT
HETATM    1  C15 UNL     1      12.042  25.651 117.833  1.00  0.00    -0.039 A 
HETATM    2  C16 UNL     1      12.084  24.317 117.513  1.00  0.00     0.011 A 
HETATM    3  C17 UNL     1      12.829  23.390 118.238  1.00  0.00     0.031 A 
HETATM    4  C18 UNL     1      13.561  23.803 119.324  1.00  0.00     0.042 A 
HETATM    5  N5  UNL     1      14.300  22.925 120.055  1.00  0.00    -0.364 N 
ATOM      6  H5  UNL     1      14.306  21.941 119.785  1.00  0.00     0.165 HD
HETATM    7  C19 UNL     1      15.025  23.310 121.122  1.00  0.00     0.111 A 
HETATM    8  C20 UNL     1      15.027  24.634 121.500  1.00  0.00     0.060 A 
HETATM    9  C21 UNL     1      15.767  25.122 122.617  1.00  0.00     0.101 C 
HETATM   10  N6  UNL     1      16.372  25.516 123.540  1.00  0.00    -0.191 NA
HETATM   11  C22 UNL     1      14.277  25.558 120.766  1.00  0.00     0.038 A 
HETATM   12  C23 UNL     1      13.535  25.127 119.663  1.00  0.00    -0.007 A 
HETATM   13  C24 UNL     1      12.780  26.046 118.923  1.00  0.00     0.022 A 
ENDROOT
BRANCH   1  14
HETATM   14  C14 UNL     1      11.220  26.649 117.055  1.00  0.00     0.169 C 
BRANCH  14  15
HETATM   15  N4  UNL     1      11.969  27.816 116.673  1.00  0.00    -0.328 N 
HETATM   16  C10 UNL     1      12.817  27.961 115.657  1.00  0.00     0.096 A 
HETATM   17  C11 UNL     1      13.366  29.267 115.831  1.00  0.00     0.123 A 
HETATM   18  N3  UNL     1      12.815  29.785 116.902  1.00  0.00    -0.354 N 
HETATM   19  C12 UNL     1      11.944  28.936 117.461  1.00  0.00     0.080 A 
ATOM     20  H3  UNL     1      13.022  30.716 117.263  1.00  0.00     0.166 HD
HETATM   21  C13 UNL     1      11.153  29.243 118.668  1.00  0.00     0.089 C 
BRANCH  16  22
HETATM   22  C9  UNL     1      13.304  27.113 114.586  1.00  0.00     0.141 A 
HETATM   23  N2  UNL     1      14.570  27.380 114.114  1.00  0.00    -0.343 N 
HETATM   24  C7  UNL     1      15.123  26.755 113.085  1.00  0.00     0.025 A 
ATOM     25  H2  UNL     1      15.115  28.102 114.585  1.00  0.00     0.167 HD
HETATM   26  C6  UNL     1      14.391  25.792 112.460  1.00  0.00     0.081 A 
HETATM   27  C8  UNL     1      16.517  27.128 112.656  1.00  0.00     0.069 C 
HETATM   28  C29 UNL     1      13.124  25.503 112.903  1.00  0.00     0.059 A 
HETATM   29  N7  UNL     1      12.601  26.175 113.966  1.00  0.00    -0.304 N 
HETATM   30  C28 UNL     1      12.161  24.627 112.438  1.00  0.00     0.055 A 
HETATM   31  C25 UNL     1      11.329  25.705 114.130  1.00  0.00     0.121 A 
HETATM   32  C26 UNL     1      11.024  24.745 113.203  1.00  0.00     0.062 A 
HETATM   33  C27 UNL     1       9.774  24.033 113.084  1.00  0.00     0.101 C 
HETATM   34  N8  UNL     1       8.760  23.473 112.979  1.00  0.00    -0.191 NA
BRANCH  26  35
HETATM   35  C5  UNL     1      14.950  25.078 111.333  1.00  0.00     0.261 C 
HETATM   36  N1  UNL     1      14.667  25.440 109.990  1.00  0.00    -0.308 N 
HETATM   37  C4  UNL     1      15.629  25.563 109.128  1.00  0.00     0.124 A 
ATOM     38  H1  UNL     1      13.703  25.604 109.701  1.00  0.00     0.170 HD
HETATM   39  C3  UNL     1      16.988  25.394 109.292  1.00  0.00     0.076 A 
HETATM   40  N9  UNL     1      15.489  25.903 107.817  1.00  0.00    -0.285 N 
HETATM   41  C2  UNL     1      17.647  25.630 108.091  1.00  0.00     0.025 A 
HETATM   42  C1  UNL     1      19.106  25.559 107.820  1.00  0.00     0.070 C 
HETATM   43  N10 UNL     1      16.668  25.939 107.222  1.00  0.00    -0.304 N 
ATOM     44  H10 UNL     1      16.815  26.171 106.240  1.00  0.00     0.186 HD
ATOM     45  H9  UNL     1      14.600  26.102 107.359  1.00  0.00     0.188 HD
HETATM   46  O1  UNL     1      15.716  24.101 111.587  1.00  0.00    -0.267 OA
ENDBRANCH  26  35
ENDBRANCH  16  22
ENDBRANCH  14  15
ENDBRANCH   1  14
TORSDOF 4
ENDMDL
