MODEL 1
REMARK VINA RESULT: -6.442562755      0.000      0.000
REMARK  16 active torsions:
REMARK  status: ('A' for Active; 'I' for Inactive)
REMARK    1  A    between atoms: C2_3  and  C3_4 
REMARK    2  A    between atoms: C4_5  and  C5_6 
REMARK    3  A    between atoms: C6_7  and  C7_8 
REMARK    4  A    between atoms: C7_8  and  C8_9 
REMARK    5  A    between atoms: C8_9  and  C9_10 
REMARK    6  A    between atoms: C9_10  and  C10_11 
REMARK    7  A    between atoms: C10_11  and  C11_12 
REMARK    8  A    between atoms: C11_12  and  C12_13 
REMARK    9  A    between atoms: C12_13  and  C13_14 
REMARK   10  A    between atoms: C13_14  and  C14_15 
REMARK   11  A    between atoms: C15_18  and  C16_19 
REMARK   12  A    between atoms: C16_19  and  O1_20 
REMARK   13  A    between atoms: C17_22  and  O2_23 
REMARK   14  A    between atoms: C18_25  and  O3_26 
REMARK   15  A    between atoms: C19_28  and  O4_29 
REMARK   16  A    between atoms: C20_31  and  O5_32 
ROOT
HETATM    1  N1  UNL     1      53.059  43.070  67.810  1.00  0.00    -0.197 NA
HETATM    2  C1  UNL     1      52.998  43.922  68.582  1.00  0.00     0.062 C 
HETATM    3  C2  UNL     1      52.924  45.028  69.571  1.00  0.00     0.151 C 
ENDROOT
BRANCH   3   4
HETATM    4  C3  UNL     1      52.734  46.281  68.841  1.00  0.00    -0.013 C 
HETATM    5  C4  UNL     1      52.916  47.454  69.386  1.00  0.00    -0.003 C 
BRANCH   5   6
HETATM    6  C5  UNL     1      53.316  47.700  70.736  1.00  0.00    -0.004 C 
HETATM    7  C6  UNL     1      52.466  47.900  71.718  1.00  0.00    -0.027 C 
BRANCH   7   8
HETATM    8  C7  UNL     1      51.004  47.903  71.586  1.00  0.00     0.027 C 
BRANCH   8   9
HETATM    9  C8  UNL     1      50.538  49.255  71.071  1.00  0.00     0.004 C 
BRANCH   9  10
HETATM   10  C9  UNL     1      49.857  49.137  69.728  1.00  0.00     0.000 C 
BRANCH  10  11
HETATM   11  C10 UNL     1      49.206  47.771  69.679  1.00  0.00     0.000 C 
BRANCH  11  12
HETATM   12  C11 UNL     1      49.014  47.320  68.226  1.00  0.00     0.000 C 
BRANCH  12  13
HETATM   13  C12 UNL     1      47.520  47.188  68.027  1.00  0.00     0.002 C 
BRANCH  13  14
HETATM   14  C13 UNL     1      46.763  47.437  69.315  1.00  0.00     0.027 C 
BRANCH  14  15
HETATM   15  C14 UNL     1      45.649  48.406  69.079  1.00  0.00     0.108 C 
HETATM   16  N2  UNL     1      44.467  48.132  69.840  1.00  0.00    -0.406 N 
HETATM   17  C15 UNL     1      44.544  48.287  71.230  1.00  0.00     0.132 C 
ATOM     18  H2  UNL     1      43.602  47.835  69.388  1.00  0.00     0.154 HD
HETATM   19  C17 UNL     1      45.327  49.427  71.764  1.00  0.00     0.173 C 
HETATM   20  C18 UNL     1      45.023  50.757  71.145  1.00  0.00     0.180 C 
HETATM   21  C19 UNL     1      44.916  50.635  69.663  1.00  0.00     0.180 C 
HETATM   22  C20 UNL     1      46.127  49.815  69.193  1.00  0.00     0.171 C 
BRANCH  17  23
HETATM   23  C16 UNL     1      43.110  48.416  71.766  1.00  0.00     0.191 C 
BRANCH  23  24
HETATM   24  O1  UNL     1      42.235  48.486  70.657  1.00  0.00    -0.399 OA
ATOM     25  H1  UNL     1      42.168  47.616  70.282  1.00  0.00     0.209 HD
ENDBRANCH  23  24
ENDBRANCH  17  23
BRANCH  19  26
HETATM   26  O2  UNL     1      44.990  49.550  73.136  1.00  0.00    -0.391 OA
ATOM     27  H2  UNL     1      44.556  48.743  73.386  1.00  0.00     0.210 HD
ENDBRANCH  19  26
BRANCH  20  28
HETATM   28  O3  UNL     1      46.135  51.589  71.411  1.00  0.00    -0.390 OA
ATOM     29  H3  UNL     1      46.314  52.066  70.610  1.00  0.00     0.210 HD
ENDBRANCH  20  28
BRANCH  21  30
HETATM   30  O4  UNL     1      44.995  51.921  69.104  1.00  0.00    -0.390 OA
ATOM     31  H4  UNL     1      44.127  52.176  68.813  1.00  0.00     0.210 HD
ENDBRANCH  21  30
BRANCH  22  32
HETATM   32  O5  UNL     1      46.483  50.334  67.925  1.00  0.00    -0.391 OA
ATOM     33  H5  UNL     1      47.398  50.591  67.907  1.00  0.00     0.210 HD
ENDBRANCH  22  32
ENDBRANCH  14  15
ENDBRANCH  13  14
ENDBRANCH  12  13
ENDBRANCH  11  12
ENDBRANCH  10  11
ENDBRANCH   9  10
ENDBRANCH   8   9
ENDBRANCH   7   8
ENDBRANCH   5   6
ENDBRANCH   3   4
TORSDOF 16
ENDMDL
MODEL 2
REMARK VINA RESULT: -6.377637037      3.372      6.894
REMARK  16 active torsions:
REMARK  status: ('A' for Active; 'I' for Inactive)
REMARK    1  A    between atoms: C2_3  and  C3_4 
REMARK    2  A    between atoms: C4_5  and  C5_6 
REMARK    3  A    between atoms: C6_7  and  C7_8 
REMARK    4  A    between atoms: C7_8  and  C8_9 
REMARK    5  A    between atoms: C8_9  and  C9_10 
REMARK    6  A    between atoms: C9_10  and  C10_11 
REMARK    7  A    between atoms: C10_11  and  C11_12 
REMARK    8  A    between atoms: C11_12  and  C12_13 
REMARK    9  A    between atoms: C12_13  and  C13_14 
REMARK   10  A    between atoms: C13_14  and  C14_15 
REMARK   11  A    between atoms: C15_18  and  C16_19 
REMARK   12  A    between atoms: C16_19  and  O1_20 
REMARK   13  A    between atoms: C17_22  and  O2_23 
REMARK   14  A    between atoms: C18_25  and  O3_26 
REMARK   15  A    between atoms: C19_28  and  O4_29 
REMARK   16  A    between atoms: C20_31  and  O5_32 
ROOT
HETATM    1  N1  UNL     1      47.625  43.797  67.817  1.00  0.00    -0.197 NA
HETATM    2  C1  UNL     1      47.420  44.909  68.033  1.00  0.00     0.062 C 
HETATM    3  C2  UNL     1      47.143  46.342  68.310  1.00  0.00     0.151 C 
ENDROOT
BRANCH   3   4
HETATM    4  C3  UNL     1      45.834  46.438  68.954  1.00  0.00    -0.013 C 
HETATM    5  C4  UNL     1      45.175  47.562  69.056  1.00  0.00    -0.003 C 
BRANCH   5   6
HETATM    6  C5  UNL     1      45.606  48.835  68.573  1.00  0.00    -0.004 C 
HETATM    7  C6  UNL     1      45.205  49.978  69.083  1.00  0.00    -0.027 C 
BRANCH   7   8
HETATM    8  C7  UNL     1      44.269  50.122  70.206  1.00  0.00     0.027 C 
BRANCH   8   9
HETATM    9  C8  UNL     1      45.014  50.625  71.432  1.00  0.00     0.004 C 
BRANCH   9  10
HETATM   10  C9  UNL     1      45.496  49.485  72.299  1.00  0.00     0.000 C 
BRANCH  10  11
HETATM   11  C10 UNL     1      47.009  49.535  72.296  1.00  0.00     0.000 C 
BRANCH  11  12
HETATM   12  C11 UNL     1      47.589  48.211  71.785  1.00  0.00     0.000 C 
BRANCH  12  13
HETATM   13  C12 UNL     1      48.617  48.585  70.739  1.00  0.00     0.002 C 
BRANCH  13  14
HETATM   14  C13 UNL     1      49.826  49.252  71.363  1.00  0.00     0.027 C 
BRANCH  14  15
HETATM   15  C14 UNL     1      50.785  49.679  70.298  1.00  0.00     0.108 C 
HETATM   16  N2  UNL     1      52.098  49.123  70.440  1.00  0.00    -0.406 N 
HETATM   17  C15 UNL     1      52.236  47.741  70.258  1.00  0.00     0.132 C 
ATOM     18  H2  UNL     1      52.902  49.710  70.664  1.00  0.00     0.154 HD
HETATM   19  C17 UNL     1      51.444  47.094  69.185  1.00  0.00     0.173 C 
HETATM   20  C18 UNL     1      51.509  47.766  67.848  1.00  0.00     0.180 C 
HETATM   21  C19 UNL     1      51.382  49.244  67.996  1.00  0.00     0.180 C 
HETATM   22  C20 UNL     1      50.197  49.499  68.938  1.00  0.00     0.171 C 
BRANCH  17  23
HETATM   23  C16 UNL     1      53.719  47.451  69.979  1.00  0.00     0.191 C 
BRANCH  23  24
HETATM   24  O1  UNL     1      54.136  46.427  70.861  1.00  0.00    -0.399 OA
ATOM     25  H1  UNL     1      54.884  45.991  70.471  1.00  0.00     0.209 HD
ENDBRANCH  23  24
ENDBRANCH  17  23
BRANCH  19  26
HETATM   26  O2  UNL     1      51.988  45.797  68.997  1.00  0.00    -0.391 OA
ATOM     27  H2  UNL     1      52.413  45.798  68.147  1.00  0.00     0.210 HD
ENDBRANCH  19  26
BRANCH  20  28
HETATM   28  O3  UNL     1      50.381  47.326  67.119  1.00  0.00    -0.390 OA
ATOM     29  H3  UNL     1      50.657  46.560  66.630  1.00  0.00     0.210 HD
ENDBRANCH  20  28
BRANCH  21  30
HETATM   30  O4  UNL     1      51.087  49.793  66.737  1.00  0.00    -0.390 OA
ATOM     31  H4  UNL     1      51.027  50.737  66.828  1.00  0.00     0.210 HD
ENDBRANCH  21  30
BRANCH  22  32
HETATM   32  O5  UNL     1      49.588  50.694  68.488  1.00  0.00    -0.391 OA
ATOM     33  H5  UNL     1      48.640  50.626  68.519  1.00  0.00     0.210 HD
ENDBRANCH  22  32
ENDBRANCH  14  15
ENDBRANCH  13  14
ENDBRANCH  12  13
ENDBRANCH  11  12
ENDBRANCH  10  11
ENDBRANCH   9  10
ENDBRANCH   8   9
ENDBRANCH   7   8
ENDBRANCH   5   6
ENDBRANCH   3   4
TORSDOF 16
ENDMDL
MODEL 3
REMARK VINA RESULT: -6.344920803      2.168      3.046
REMARK  16 active torsions:
REMARK  status: ('A' for Active; 'I' for Inactive)
REMARK    1  A    between atoms: C2_3  and  C3_4 
REMARK    2  A    between atoms: C4_5  and  C5_6 
REMARK    3  A    between atoms: C6_7  and  C7_8 
REMARK    4  A    between atoms: C7_8  and  C8_9 
REMARK    5  A    between atoms: C8_9  and  C9_10 
REMARK    6  A    between atoms: C9_10  and  C10_11 
REMARK    7  A    between atoms: C10_11  and  C11_12 
REMARK    8  A    between atoms: C11_12  and  C12_13 
REMARK    9  A    between atoms: C12_13  and  C13_14 
REMARK   10  A    between atoms: C13_14  and  C14_15 
REMARK   11  A    between atoms: C15_18  and  C16_19 
REMARK   12  A    between atoms: C16_19  and  O1_20 
REMARK   13  A    between atoms: C17_22  and  O2_23 
REMARK   14  A    between atoms: C18_25  and  O3_26 
REMARK   15  A    between atoms: C19_28  and  O4_29 
REMARK   16  A    between atoms: C20_31  and  O5_32 
ROOT
HETATM    1  N1  UNL     1      49.614  51.280  70.354  1.00  0.00    -0.197 NA
HETATM    2  C1  UNL     1      50.497  50.789  70.908  1.00  0.00     0.062 C 
HETATM    3  C2  UNL     1      51.628  50.151  71.628  1.00  0.00     0.151 C 
ENDROOT
BRANCH   3   4
HETATM    4  C3  UNL     1      51.224  48.796  72.004  1.00  0.00    -0.013 C 
HETATM    5  C4  UNL     1      51.967  47.746  71.777  1.00  0.00    -0.003 C 
BRANCH   5   6
HETATM    6  C5  UNL     1      53.250  47.745  71.149  1.00  0.00    -0.004 C 
HETATM    7  C6  UNL     1      53.439  47.425  69.888  1.00  0.00    -0.027 C 
BRANCH   7   8
HETATM    8  C7  UNL     1      52.384  47.024  68.949  1.00  0.00     0.027 C 
BRANCH   8   9
HETATM    9  C8  UNL     1      51.890  48.242  68.184  1.00  0.00     0.004 C 
BRANCH   9  10
HETATM   10  C9  UNL     1      50.383  48.262  68.081  1.00  0.00     0.000 C 
BRANCH  10  11
HETATM   11  C10 UNL     1      49.864  47.112  68.917  1.00  0.00     0.000 C 
BRANCH  11  12
HETATM   12  C11 UNL     1      48.465  46.696  68.448  1.00  0.00     0.000 C 
BRANCH  12  13
HETATM   13  C12 UNL     1      47.508  47.192  69.510  1.00  0.00     0.002 C 
BRANCH  13  14
HETATM   14  C13 UNL     1      46.087  47.261  68.988  1.00  0.00     0.027 C 
BRANCH  14  15
HETATM   15  C14 UNL     1      45.611  48.678  68.972  1.00  0.00     0.108 C 
HETATM   16  N2  UNL     1      44.317  48.866  69.558  1.00  0.00    -0.406 N 
HETATM   17  C15 UNL     1      44.197  48.655  70.937  1.00  0.00     0.132 C 
ATOM     18  H2  UNL     1      43.514  49.142  68.992  1.00  0.00     0.154 HD
HETATM   19  C17 UNL     1      45.303  49.111  71.813  1.00  0.00     0.173 C 
HETATM   20  C18 UNL     1      45.768  50.516  71.577  1.00  0.00     0.180 C 
HETATM   21  C19 UNL     1      45.895  50.789  70.117  1.00  0.00     0.180 C 
HETATM   22  C20 UNL     1      46.655  49.603  69.505  1.00  0.00     0.171 C 
BRANCH  17  23
HETATM   23  C16 UNL     1      42.913  49.356  71.407  1.00  0.00     0.191 C 
BRANCH  23  24
HETATM   24  O1  UNL     1      42.169  48.432  72.177  1.00  0.00    -0.399 OA
ATOM     25  H1  UNL     1      41.616  48.924  72.772  1.00  0.00     0.209 HD
ENDBRANCH  23  24
ENDBRANCH  17  23
BRANCH  19  26
HETATM   26  O2  UNL     1      44.812  49.082  73.144  1.00  0.00    -0.391 OA
ATOM     27  H2  UNL     1      45.449  49.537  73.682  1.00  0.00     0.210 HD
ENDBRANCH  19  26
BRANCH  20  28
HETATM   28  O3  UNL     1      47.067  50.609  72.129  1.00  0.00    -0.390 OA
ATOM     29  H3  UNL     1      47.675  50.449  71.417  1.00  0.00     0.210 HD
ENDBRANCH  20  28
BRANCH  21  30
HETATM   30  O4  UNL     1      46.660  51.954  69.948  1.00  0.00    -0.390 OA
ATOM     31  H4  UNL     1      47.531  51.703  69.662  1.00  0.00     0.210 HD
ENDBRANCH  21  30
BRANCH  22  32
HETATM   32  O5  UNL     1      47.439  50.140  68.455  1.00  0.00    -0.391 OA
ATOM     33  H5  UNL     1      48.366  50.022  68.629  1.00  0.00     0.210 HD
ENDBRANCH  22  32
ENDBRANCH  14  15
ENDBRANCH  13  14
ENDBRANCH  12  13
ENDBRANCH  11  12
ENDBRANCH  10  11
ENDBRANCH   9  10
ENDBRANCH   8   9
ENDBRANCH   7   8
ENDBRANCH   5   6
ENDBRANCH   3   4
TORSDOF 16
ENDMDL
MODEL 4
REMARK VINA RESULT: -6.240126639      1.459      2.659
REMARK  16 active torsions:
REMARK  status: ('A' for Active; 'I' for Inactive)
REMARK    1  A    between atoms: C2_3  and  C3_4 
REMARK    2  A    between atoms: C4_5  and  C5_6 
REMARK    3  A    between atoms: C6_7  and  C7_8 
REMARK    4  A    between atoms: C7_8  and  C8_9 
REMARK    5  A    between atoms: C8_9  and  C9_10 
REMARK    6  A    between atoms: C9_10  and  C10_11 
REMARK    7  A    between atoms: C10_11  and  C11_12 
REMARK    8  A    between atoms: C11_12  and  C12_13 
REMARK    9  A    between atoms: C12_13  and  C13_14 
REMARK   10  A    between atoms: C13_14  and  C14_15 
REMARK   11  A    between atoms: C15_18  and  C16_19 
REMARK   12  A    between atoms: C16_19  and  O1_20 
REMARK   13  A    between atoms: C17_22  and  O2_23 
REMARK   14  A    between atoms: C18_25  and  O3_26 
REMARK   15  A    between atoms: C19_28  and  O4_29 
REMARK   16  A    between atoms: C20_31  and  O5_32 
ROOT
HETATM    1  N1  UNL     1      53.410  43.445  67.832  1.00  0.00    -0.197 NA
HETATM    2  C1  UNL     1      53.045  44.219  68.602  1.00  0.00     0.062 C 
HETATM    3  C2  UNL     1      52.584  45.220  69.597  1.00  0.00     0.151 C 
ENDROOT
BRANCH   3   4
HETATM    4  C3  UNL     1      53.508  46.354  69.566  1.00  0.00    -0.013 C 
HETATM    5  C4  UNL     1      53.420  47.363  70.390  1.00  0.00    -0.003 C 
BRANCH   5   6
HETATM    6  C5  UNL     1      52.445  47.522  71.422  1.00  0.00    -0.004 C 
HETATM    7  C6  UNL     1      51.651  48.565  71.514  1.00  0.00    -0.027 C 
BRANCH   7   8
HETATM    8  C7  UNL     1      51.643  49.708  70.591  1.00  0.00     0.027 C 
BRANCH   8   9
HETATM    9  C8  UNL     1      50.595  49.487  69.512  1.00  0.00     0.004 C 
BRANCH   9  10
HETATM   10  C9  UNL     1      51.226  49.108  68.192  1.00  0.00     0.000 C 
BRANCH  10  11
HETATM   11  C10 UNL     1      50.457  47.919  67.656  1.00  0.00     0.000 C 
BRANCH  11  12
HETATM   12  C11 UNL     1      49.608  47.286  68.765  1.00  0.00     0.000 C 
BRANCH  12  13
HETATM   13  C12 UNL     1      48.322  46.845  68.101  1.00  0.00     0.002 C 
BRANCH  13  14
HETATM   14  C13 UNL     1      47.115  47.163  68.960  1.00  0.00     0.027 C 
BRANCH  14  15
HETATM   15  C14 UNL     1      47.384  48.370  69.800  1.00  0.00     0.108 C 
HETATM   16  N2  UNL     1      46.873  49.590  69.250  1.00  0.00    -0.406 N 
HETATM   17  C15 UNL     1      45.482  49.731  69.178  1.00  0.00     0.132 C 
ATOM     18  H2  UNL     1      47.499  50.327  68.922  1.00  0.00     0.154 HD
HETATM   19  C17 UNL     1      44.667  49.217  70.305  1.00  0.00     0.173 C 
HETATM   20  C18 UNL     1      45.127  49.634  71.669  1.00  0.00     0.180 C 
HETATM   21  C19 UNL     1      46.608  49.513  71.785  1.00  0.00     0.180 C 
HETATM   22  C20 UNL     1      46.990  48.136  71.221  1.00  0.00     0.171 C 
BRANCH  17  23
HETATM   23  C16 UNL     1      45.172  51.229  69.027  1.00  0.00     0.191 C 
BRANCH  23  24
HETATM   24  O1  UNL     1      46.065  51.764  68.070  1.00  0.00    -0.399 OA
ATOM     25  H1  UNL     1      45.589  52.399  67.548  1.00  0.00     0.209 HD
ENDBRANCH  23  24
ENDBRANCH  17  23
BRANCH  19  26
HETATM   26  O2  UNL     1      43.364  49.756  70.151  1.00  0.00    -0.391 OA
ATOM     27  H2  UNL     1      43.021  49.900  71.024  1.00  0.00     0.210 HD
ENDBRANCH  19  26
BRANCH  20  28
HETATM   28  O3  UNL     1      44.565  48.713  72.583  1.00  0.00    -0.390 OA
ATOM     29  H3  UNL     1      44.713  49.068  73.451  1.00  0.00     0.210 HD
ENDBRANCH  20  28
BRANCH  21  30
HETATM   30  O4  UNL     1      46.952  49.558  73.145  1.00  0.00    -0.390 OA
ATOM     31  H4  UNL     1      47.508  48.812  73.339  1.00  0.00     0.210 HD
ENDBRANCH  21  30
BRANCH  22  32
HETATM   32  O5  UNL     1      48.094  47.692  71.987  1.00  0.00    -0.391 OA
ATOM     33  H5  UNL     1      48.563  48.427  72.365  1.00  0.00     0.210 HD
ENDBRANCH  22  32
ENDBRANCH  14  15
ENDBRANCH  13  14
ENDBRANCH  12  13
ENDBRANCH  11  12
ENDBRANCH  10  11
ENDBRANCH   9  10
ENDBRANCH   8   9
ENDBRANCH   7   8
ENDBRANCH   5   6
ENDBRANCH   3   4
TORSDOF 16
ENDMDL
MODEL 5
REMARK VINA RESULT: -6.068541387      2.470      4.758
REMARK  16 active torsions:
REMARK  status: ('A' for Active; 'I' for Inactive)
REMARK    1  A    between atoms: C2_3  and  C3_4 
REMARK    2  A    between atoms: C4_5  and  C5_6 
REMARK    3  A    between atoms: C6_7  and  C7_8 
REMARK    4  A    between atoms: C7_8  and  C8_9 
REMARK    5  A    between atoms: C8_9  and  C9_10 
REMARK    6  A    between atoms: C9_10  and  C10_11 
REMARK    7  A    between atoms: C10_11  and  C11_12 
REMARK    8  A    between atoms: C11_12  and  C12_13 
REMARK    9  A    between atoms: C12_13  and  C13_14 
REMARK   10  A    between atoms: C13_14  and  C14_15 
REMARK   11  A    between atoms: C15_18  and  C16_19 
REMARK   12  A    between atoms: C16_19  and  O1_20 
REMARK   13  A    between atoms: C17_22  and  O2_23 
REMARK   14  A    between atoms: C18_25  and  O3_26 
REMARK   15  A    between atoms: C19_28  and  O4_29 
REMARK   16  A    between atoms: C20_31  and  O5_32 
ROOT
HETATM    1  N1  UNL     1      44.370  46.189  68.896  1.00  0.00    -0.197 NA
HETATM    2  C1  UNL     1      45.478  46.071  68.607  1.00  0.00     0.062 C 
HETATM    3  C2  UNL     1      46.911  45.929  68.241  1.00  0.00     0.151 C 
ENDROOT
BRANCH   3   4
HETATM    4  C3  UNL     1      47.719  46.390  69.370  1.00  0.00    -0.013 C 
HETATM    5  C4  UNL     1      48.828  47.063  69.219  1.00  0.00    -0.003 C 
BRANCH   5   6
HETATM    6  C5  UNL     1      49.415  47.447  67.975  1.00  0.00    -0.004 C 
HETATM    7  C6  UNL     1      50.484  48.206  67.881  1.00  0.00    -0.027 C 
BRANCH   7   8
HETATM    8  C7  UNL     1      51.227  48.766  69.018  1.00  0.00     0.027 C 
BRANCH   8   9
HETATM    9  C8  UNL     1      52.328  47.805  69.435  1.00  0.00     0.004 C 
BRANCH   9  10
HETATM   10  C9  UNL     1      52.137  47.321  70.854  1.00  0.00     0.000 C 
BRANCH  10  11
HETATM   11  C10 UNL     1      51.521  48.463  71.634  1.00  0.00     0.000 C 
BRANCH  11  12
HETATM   12  C11 UNL     1      50.375  47.953  72.516  1.00  0.00     0.000 C 
BRANCH  12  13
HETATM   13  C12 UNL     1      49.407  49.109  72.646  1.00  0.00     0.002 C 
BRANCH  13  14
HETATM   14  C13 UNL     1      47.994  48.692  72.293  1.00  0.00     0.027 C 
BRANCH  14  15
HETATM   15  C14 UNL     1      47.110  49.894  72.197  1.00  0.00     0.108 C 
HETATM   16  N2  UNL     1      47.520  50.842  71.205  1.00  0.00    -0.406 N 
HETATM   17  C15 UNL     1      47.430  50.450  69.863  1.00  0.00     0.132 C 
ATOM     18  H2  UNL     1      47.863  51.767  71.465  1.00  0.00     0.154 HD
HETATM   19  C17 UNL     1      46.258  49.643  69.446  1.00  0.00     0.173 C 
HETATM   20  C18 UNL     1      44.928  50.174  69.885  1.00  0.00     0.180 C 
HETATM   21  C19 UNL     1      44.982  50.619  71.307  1.00  0.00     0.180 C 
HETATM   22  C20 UNL     1      45.673  49.500  72.099  1.00  0.00     0.171 C 
BRANCH  17  23
HETATM   23  C16 UNL     1      47.448  51.723  69.002  1.00  0.00     0.191 C 
BRANCH  23  24
HETATM   24  O1  UNL     1      48.604  51.682  68.189  1.00  0.00    -0.399 OA
ATOM     25  H1  UNL     1      49.286  52.180  68.624  1.00  0.00     0.209 HD
ENDBRANCH  23  24
ENDBRANCH  17  23
BRANCH  19  26
HETATM   26  O2  UNL     1      46.235  49.654  68.028  1.00  0.00    -0.391 OA
ATOM     27  H2  UNL     1      45.724  48.901  67.756  1.00  0.00     0.210 HD
ENDBRANCH  19  26
BRANCH  20  28
HETATM   28  O3  UNL     1      44.021  49.091  69.825  1.00  0.00    -0.390 OA
ATOM     29  H3  UNL     1      43.798  48.975  68.910  1.00  0.00     0.210 HD
ENDBRANCH  20  28
BRANCH  21  30
HETATM   30  O4  UNL     1      43.667  50.762  71.777  1.00  0.00    -0.390 OA
ATOM     31  H4  UNL     1      43.338  49.903  72.018  1.00  0.00     0.210 HD
ENDBRANCH  21  30
BRANCH  22  32
HETATM   32  O5  UNL     1      45.062  49.489  73.376  1.00  0.00    -0.391 OA
ATOM     33  H5  UNL     1      44.731  48.623  73.587  1.00  0.00     0.210 HD
ENDBRANCH  22  32
ENDBRANCH  14  15
ENDBRANCH  13  14
ENDBRANCH  12  13
ENDBRANCH  11  12
ENDBRANCH  10  11
ENDBRANCH   9  10
ENDBRANCH   8   9
ENDBRANCH   7   8
ENDBRANCH   5   6
ENDBRANCH   3   4
TORSDOF 16
ENDMDL
