MODEL 1
REMARK VINA RESULT: -6.580657769      0.000      0.000
REMARK  7 active torsions:
REMARK  status: ('A' for Active; 'I' for Inactive)
REMARK       I    between atoms: C1_4  and  N3_6 
REMARK    1  A    between atoms: N3_6  and  C2_8 
REMARK    2  A    between atoms: C2_8  and  C3_9 
REMARK    3  A    between atoms: C3_9  and  C4_10 
REMARK    4  A    between atoms: C4_10  and  N4_11 
REMARK    5  A    between atoms: C4_10  and  C5_15 
REMARK       I    between atoms: C5_15  and  N5_17 
REMARK    6  A    between atoms: N5_17  and  C6_19 
REMARK    7  A    between atoms: C6_19  and  C7_20 
ROOT
HETATM    1  C5  UNL     1     -34.321  58.296  74.213  1.00  0.00     0.249 C 
HETATM    2  O1  UNL     1     -33.759  59.213  74.926  1.00  0.00    -0.271 OA
HETATM    3  N5  UNL     1     -33.681  57.093  74.043  1.00  0.00    -0.335 N 
ATOM      4  H5  UNL     1     -34.175  56.420  73.457  1.00  0.00     0.164 HD
ENDROOT
BRANCH   1   5
HETATM    5  C4  UNL     1     -35.636  58.574  73.603  1.00  0.00     0.276 C 
BRANCH   5   6
HETATM    6  C3  UNL     1     -36.486  59.454  74.526  1.00  0.00     0.062 C 
BRANCH   6   7
HETATM    7  C2  UNL     1     -36.600  58.827  75.888  1.00  0.00     0.125 C 
BRANCH   7   8
HETATM    8  N3  UNL     1     -36.292  59.750  76.941  1.00  0.00    -0.365 N 
HETATM    9  C1  UNL     1     -35.432  59.390  78.024  1.00  0.00     0.181 C 
HETATM   10  N1  UNL     1     -34.289  58.832  77.776  1.00  0.00    -0.374 N 
HETATM   11  N2  UNL     1     -35.834  59.653  79.341  1.00  0.00    -0.064 NA
ATOM     12  H12 UNL     1     -33.676  58.576  78.549  1.00  0.00     0.158 HD
ATOM     13  H11 UNL     1     -33.996  58.641  76.818  1.00  0.00     0.158 HD
ATOM     14  H3  UNL     1     -36.697  60.686  76.917  1.00  0.00     0.162 HD
ENDBRANCH   7   8
ENDBRANCH   6   7
ENDBRANCH   5   6
BRANCH   5  15
HETATM   15  N4  UNL     1     -36.339  57.296  73.440  1.00  0.00    -0.066 N 
ATOM     16  H43 UNL     1     -35.814  56.622  72.882  1.00  0.00     0.275 HD
ATOM     17  H42 UNL     1     -36.380  56.752  74.302  1.00  0.00     0.275 HD
ATOM     18  H41 UNL     1     -37.260  57.500  73.053  1.00  0.00     0.275 HD
ENDBRANCH   5  15
ENDBRANCH   1   5
BRANCH   3  19
HETATM   19  C6  UNL     1     -32.413  56.636  74.568  1.00  0.00     0.176 C 
HETATM   20  C8  UNL     1     -32.173  55.307  73.662  1.00  0.00     0.151 C 
HETATM   21  C9  UNL     1     -31.133  54.686  74.493  1.00  0.00     0.226 C 
HETATM   22  O3  UNL     1     -30.123  54.024  74.134  1.00  0.00    -0.273 OA
HETATM   23  N7  UNL     1     -31.501  54.985  75.819  1.00  0.00    -0.316 N 
HETATM   24  C10 UNL     1     -32.233  56.103  75.850  1.00  0.00     0.134 C 
ATOM     25  H7  UNL     1     -31.247  54.430  76.637  1.00  0.00     0.169 HD
HETATM   26  N8  UNL     1     -32.636  56.489  77.199  1.00  0.00    -0.084 NA
BRANCH  19  27
HETATM   27  C7  UNL     1     -31.359  57.515  74.032  1.00  0.00     0.267 C 
HETATM   28  N6  UNL     1     -30.444  58.126  74.964  1.00  0.00    -0.059 NA
HETATM   29  O2  UNL     1     -31.241  57.754  72.822  1.00  0.00    -0.274 OA
ENDBRANCH  19  27
ENDBRANCH   3  19
TORSDOF 7
ENDMDL
MODEL 2
REMARK VINA RESULT: -6.056167243      1.983      3.352
REMARK  7 active torsions:
REMARK  status: ('A' for Active; 'I' for Inactive)
REMARK       I    between atoms: C1_4  and  N3_6 
REMARK    1  A    between atoms: N3_6  and  C2_8 
REMARK    2  A    between atoms: C2_8  and  C3_9 
REMARK    3  A    between atoms: C3_9  and  C4_10 
REMARK    4  A    between atoms: C4_10  and  N4_11 
REMARK    5  A    between atoms: C4_10  and  C5_15 
REMARK       I    between atoms: C5_15  and  N5_17 
REMARK    6  A    between atoms: N5_17  and  C6_19 
REMARK    7  A    between atoms: C6_19  and  C7_20 
ROOT
HETATM    1  C5  UNL     1     -34.426  58.289  74.325  1.00  0.00     0.249 C 
HETATM    2  O1  UNL     1     -34.009  59.039  75.289  1.00  0.00    -0.271 OA
HETATM    3  N5  UNL     1     -33.682  57.196  73.956  1.00  0.00    -0.335 N 
ATOM      4  H5  UNL     1     -34.062  56.655  73.179  1.00  0.00     0.164 HD
ENDROOT
BRANCH   1   5
HETATM    5  C4  UNL     1     -35.692  58.635  73.650  1.00  0.00     0.276 C 
BRANCH   5   6
HETATM    6  C3  UNL     1     -36.263  57.417  72.914  1.00  0.00     0.062 C 
BRANCH   6   7
HETATM    7  C2  UNL     1     -37.718  57.237  73.250  1.00  0.00     0.125 C 
BRANCH   7   8
HETATM    8  N3  UNL     1     -38.217  55.957  72.843  1.00  0.00    -0.365 N 
HETATM    9  C1  UNL     1     -39.002  55.146  73.719  1.00  0.00     0.181 C 
HETATM   10  N1  UNL     1     -40.007  55.670  74.347  1.00  0.00    -0.374 N 
HETATM   11  N2  UNL     1     -38.677  53.793  73.883  1.00  0.00    -0.064 NA
ATOM     12  H12 UNL     1     -40.567  55.090  74.973  1.00  0.00     0.158 HD
ATOM     13  H11 UNL     1     -40.244  56.654  74.229  1.00  0.00     0.158 HD
ATOM     14  H3  UNL     1     -38.007  55.616  71.904  1.00  0.00     0.162 HD
ENDBRANCH   7   8
ENDBRANCH   6   7
ENDBRANCH   5   6
BRANCH   5  15
HETATM   15  N4  UNL     1     -35.402  59.664  72.644  1.00  0.00    -0.066 N 
ATOM     16  H43 UNL     1     -34.720  59.360  71.949  1.00  0.00     0.275 HD
ATOM     17  H42 UNL     1     -36.181  59.825  72.005  1.00  0.00     0.275 HD
ATOM     18  H41 UNL     1     -35.115  60.507  73.141  1.00  0.00     0.275 HD
ENDBRANCH   5  15
ENDBRANCH   1   5
BRANCH   3  19
HETATM   19  C6  UNL     1     -32.439  56.694  74.502  1.00  0.00     0.176 C 
HETATM   20  C8  UNL     1     -32.189  55.403  73.545  1.00  0.00     0.151 C 
HETATM   21  C9  UNL     1     -31.188  54.728  74.382  1.00  0.00     0.226 C 
HETATM   22  O3  UNL     1     -30.176  54.066  74.027  1.00  0.00    -0.273 OA
HETATM   23  N7  UNL     1     -31.596  54.974  75.707  1.00  0.00    -0.316 N 
HETATM   24  C10 UNL     1     -32.311  56.102  75.764  1.00  0.00     0.134 C 
ATOM     25  H7  UNL     1     -31.379  54.378  76.507  1.00  0.00     0.169 HD
HETATM   26  N8  UNL     1     -32.754  56.433  77.115  1.00  0.00    -0.084 NA
BRANCH  19  27
HETATM   27  C7  UNL     1     -31.354  57.578  74.042  1.00  0.00     0.267 C 
HETATM   28  N6  UNL     1     -30.442  58.106  75.027  1.00  0.00    -0.059 NA
HETATM   29  O2  UNL     1     -31.207  57.890  72.852  1.00  0.00    -0.274 OA
ENDBRANCH  19  27
ENDBRANCH   3  19
TORSDOF 7
ENDMDL
MODEL 3
REMARK VINA RESULT: -6.014538321      2.413      3.384
REMARK  7 active torsions:
REMARK  status: ('A' for Active; 'I' for Inactive)
REMARK       I    between atoms: C1_4  and  N3_6 
REMARK    1  A    between atoms: N3_6  and  C2_8 
REMARK    2  A    between atoms: C2_8  and  C3_9 
REMARK    3  A    between atoms: C3_9  and  C4_10 
REMARK    4  A    between atoms: C4_10  and  N4_11 
REMARK    5  A    between atoms: C4_10  and  C5_15 
REMARK       I    between atoms: C5_15  and  N5_17 
REMARK    6  A    between atoms: N5_17  and  C6_19 
REMARK    7  A    between atoms: C6_19  and  C7_20 
ROOT
HETATM    1  C5  UNL     1     -32.231  56.375  74.133  1.00  0.00     0.249 C 
HETATM    2  O1  UNL     1     -30.957  56.407  74.331  1.00  0.00    -0.271 OA
HETATM    3  N5  UNL     1     -32.786  55.284  73.513  1.00  0.00    -0.335 N 
ATOM      4  H5  UNL     1     -33.796  55.330  73.376  1.00  0.00     0.164 HD
ENDROOT
BRANCH   1   5
HETATM    5  C4  UNL     1     -33.051  57.518  74.582  1.00  0.00     0.276 C 
BRANCH   5   6
HETATM    6  C3  UNL     1     -33.265  57.468  76.099  1.00  0.00     0.062 C 
BRANCH   6   7
HETATM    7  C2  UNL     1     -33.781  58.790  76.599  1.00  0.00     0.125 C 
BRANCH   7   8
HETATM    8  N3  UNL     1     -35.110  58.693  77.125  1.00  0.00    -0.365 N 
HETATM    9  C1  UNL     1     -35.401  59.003  78.489  1.00  0.00     0.181 C 
HETATM   10  N1  UNL     1     -34.960  60.109  79.001  1.00  0.00    -0.374 N 
HETATM   11  N2  UNL     1     -36.165  58.110  79.252  1.00  0.00    -0.064 NA
ATOM     12  H12 UNL     1     -35.168  60.330  79.975  1.00  0.00     0.158 HD
ATOM     13  H11 UNL     1     -34.404  60.759  78.446  1.00  0.00     0.158 HD
ATOM     14  H3  UNL     1     -35.868  58.394  76.510  1.00  0.00     0.162 HD
ENDBRANCH   7   8
ENDBRANCH   6   7
ENDBRANCH   5   6
BRANCH   5  15
HETATM   15  N4  UNL     1     -34.369  57.407  73.946  1.00  0.00    -0.066 N 
ATOM     16  H43 UNL     1     -35.139  57.494  74.609  1.00  0.00     0.275 HD
ATOM     17  H42 UNL     1     -34.600  58.215  73.367  1.00  0.00     0.275 HD
ATOM     18  H41 UNL     1     -34.387  56.529  73.428  1.00  0.00     0.275 HD
ENDBRANCH   5  15
ENDBRANCH   1   5
BRANCH   3  19
HETATM   19  C6  UNL     1     -32.156  54.077  73.022  1.00  0.00     0.176 C 
HETATM   20  C8  UNL     1     -33.450  53.268  72.460  1.00  0.00     0.151 C 
HETATM   21  C9  UNL     1     -32.828  51.940  72.367  1.00  0.00     0.226 C 
HETATM   22  O3  UNL     1     -33.009  51.040  71.504  1.00  0.00    -0.273 OA
HETATM   23  N7  UNL     1     -31.959  51.868  73.473  1.00  0.00    -0.316 N 
HETATM   24  C10 UNL     1     -31.581  53.097  73.839  1.00  0.00     0.134 C 
ATOM     25  H7  UNL     1     -31.663  51.004  73.929  1.00  0.00     0.169 HD
HETATM   26  N8  UNL     1     -30.660  53.100  74.972  1.00  0.00    -0.084 NA
BRANCH  19  27
HETATM   27  C7  UNL     1     -31.478  54.404  71.756  1.00  0.00     0.267 C 
HETATM   28  N6  UNL     1     -32.165  55.256  70.816  1.00  0.00    -0.059 NA
HETATM   29  O2  UNL     1     -30.354  53.970  71.469  1.00  0.00    -0.274 OA
ENDBRANCH  19  27
ENDBRANCH   3  19
TORSDOF 7
ENDMDL
MODEL 4
REMARK VINA RESULT: -5.924069559      2.185      3.376
REMARK  7 active torsions:
REMARK  status: ('A' for Active; 'I' for Inactive)
REMARK       I    between atoms: C1_4  and  N3_6 
REMARK    1  A    between atoms: N3_6  and  C2_8 
REMARK    2  A    between atoms: C2_8  and  C3_9 
REMARK    3  A    between atoms: C3_9  and  C4_10 
REMARK    4  A    between atoms: C4_10  and  N4_11 
REMARK    5  A    between atoms: C4_10  and  C5_15 
REMARK       I    between atoms: C5_15  and  N5_17 
REMARK    6  A    between atoms: N5_17  and  C6_19 
REMARK    7  A    between atoms: C6_19  and  C7_20 
ROOT
HETATM    1  C5  UNL     1     -34.187  58.745  74.467  1.00  0.00     0.249 C 
HETATM    2  O1  UNL     1     -33.731  59.389  75.488  1.00  0.00    -0.271 OA
HETATM    3  N5  UNL     1     -33.529  57.619  74.037  1.00  0.00    -0.335 N 
ATOM      4  H5  UNL     1     -33.936  57.167  73.218  1.00  0.00     0.164 HD
ENDROOT
BRANCH   1   5
HETATM    5  C4  UNL     1     -35.403  59.243  73.795  1.00  0.00     0.276 C 
BRANCH   5   6
HETATM    6  C3  UNL     1     -36.571  58.271  73.999  1.00  0.00     0.062 C 
BRANCH   6   7
HETATM    7  C2  UNL     1     -37.620  58.484  72.942  1.00  0.00     0.125 C 
BRANCH   7   8
HETATM    8  N3  UNL     1     -38.545  59.521  73.292  1.00  0.00    -0.365 N 
HETATM    9  C1  UNL     1     -39.749  59.733  72.552  1.00  0.00     0.181 C 
HETATM   10  N1  UNL     1     -40.520  58.726  72.284  1.00  0.00    -0.374 N 
HETATM   11  N2  UNL     1     -40.082  61.027  72.133  1.00  0.00    -0.064 NA
ATOM     12  H12 UNL     1     -41.379  58.877  71.755  1.00  0.00     0.158 HD
ATOM     13  H11 UNL     1     -40.277  57.784  72.589  1.00  0.00     0.158 HD
ATOM     14  H3  UNL     1     -38.339  60.123  74.090  1.00  0.00     0.162 HD
ENDBRANCH   7   8
ENDBRANCH   6   7
ENDBRANCH   5   6
BRANCH   5  15
HETATM   15  N4  UNL     1     -35.129  59.309  72.355  1.00  0.00    -0.066 N 
ATOM     16  H43 UNL     1     -35.115  58.391  71.910  1.00  0.00     0.275 HD
ATOM     17  H42 UNL     1     -35.904  59.704  71.821  1.00  0.00     0.275 HD
ATOM     18  H41 UNL     1     -34.257  59.825  72.231  1.00  0.00     0.275 HD
ENDBRANCH   5  15
ENDBRANCH   1   5
BRANCH   3  19
HETATM   19  C6  UNL     1     -32.347  56.976  74.569  1.00  0.00     0.176 C 
HETATM   20  C8  UNL     1     -32.169  55.751  73.514  1.00  0.00     0.151 C 
HETATM   21  C9  UNL     1     -31.250  54.932  74.315  1.00  0.00     0.226 C 
HETATM   22  O3  UNL     1     -30.283  54.222  73.931  1.00  0.00    -0.273 OA
HETATM   23  N7  UNL     1     -31.678  55.102  75.646  1.00  0.00    -0.316 N 
HETATM   24  C10 UNL     1     -32.305  56.275  75.779  1.00  0.00     0.134 C 
ATOM     25  H7  UNL     1     -31.532  54.428  76.398  1.00  0.00     0.169 HD
HETATM   26  N8  UNL     1     -32.762  56.530  77.142  1.00  0.00    -0.084 NA
BRANCH  19  27
HETATM   27  C7  UNL     1     -31.183  57.805  74.210  1.00  0.00     0.267 C 
HETATM   28  N6  UNL     1     -31.064  58.259  72.847  1.00  0.00    -0.059 NA
HETATM   29  O2  UNL     1     -30.306  58.113  75.029  1.00  0.00    -0.274 OA
ENDBRANCH  19  27
ENDBRANCH   3  19
TORSDOF 7
ENDMDL
MODEL 5
REMARK VINA RESULT: -5.904766358      2.565      5.918
REMARK  7 active torsions:
REMARK  status: ('A' for Active; 'I' for Inactive)
REMARK       I    between atoms: C1_4  and  N3_6 
REMARK    1  A    between atoms: N3_6  and  C2_8 
REMARK    2  A    between atoms: C2_8  and  C3_9 
REMARK    3  A    between atoms: C3_9  and  C4_10 
REMARK    4  A    between atoms: C4_10  and  N4_11 
REMARK    5  A    between atoms: C4_10  and  C5_15 
REMARK       I    between atoms: C5_15  and  N5_17 
REMARK    6  A    between atoms: N5_17  and  C6_19 
REMARK    7  A    between atoms: C6_19  and  C7_20 
ROOT
HETATM    1  C5  UNL     1     -33.262  56.570  77.395  1.00  0.00     0.249 C 
HETATM    2  O1  UNL     1     -33.910  55.965  78.332  1.00  0.00    -0.271 OA
HETATM    3  N5  UNL     1     -33.729  57.771  76.924  1.00  0.00    -0.335 N 
ATOM      4  H5  UNL     1     -33.176  58.187  76.174  1.00  0.00     0.164 HD
ENDROOT
BRANCH   1   5
HETATM    5  C4  UNL     1     -32.036  55.945  76.860  1.00  0.00     0.276 C 
BRANCH   5   6
HETATM    6  C3  UNL     1     -31.277  56.927  75.960  1.00  0.00     0.062 C 
BRANCH   6   7
HETATM    7  C2  UNL     1     -31.461  56.561  74.513  1.00  0.00     0.125 C 
BRANCH   7   8
HETATM    8  N3  UNL     1     -32.173  57.568  73.782  1.00  0.00    -0.365 N 
HETATM    9  C1  UNL     1     -31.628  58.874  73.582  1.00  0.00     0.181 C 
HETATM   10  N1  UNL     1     -30.412  59.001  73.154  1.00  0.00    -0.374 N 
HETATM   11  N2  UNL     1     -32.420  59.999  73.846  1.00  0.00    -0.064 NA
ATOM     12  H12 UNL     1     -30.023  59.933  73.012  1.00  0.00     0.158 HD
ATOM     13  H11 UNL     1     -29.835  58.182  72.963  1.00  0.00     0.158 HD
ATOM     14  H3  UNL     1     -33.091  57.347  73.395  1.00  0.00     0.162 HD
ENDBRANCH   7   8
ENDBRANCH   6   7
ENDBRANCH   5   6
BRANCH   5  15
HETATM   15  N4  UNL     1     -32.436  54.803  76.029  1.00  0.00    -0.066 N 
ATOM     16  H43 UNL     1     -33.416  54.547  76.150  1.00  0.00     0.275 HD
ATOM     17  H42 UNL     1     -32.479  55.030  75.036  1.00  0.00     0.275 HD
ATOM     18  H41 UNL     1     -31.797  54.035  76.235  1.00  0.00     0.275 HD
ENDBRANCH   5  15
ENDBRANCH   1   5
BRANCH   3  19
HETATM   19  C6  UNL     1     -34.888  58.538  77.328  1.00  0.00     0.176 C 
HETATM   20  C8  UNL     1     -34.237  60.023  77.459  1.00  0.00     0.151 C 
HETATM   21  C9  UNL     1     -35.313  60.642  78.243  1.00  0.00     0.226 C 
HETATM   22  O3  UNL     1     -35.761  61.818  78.183  1.00  0.00    -0.273 OA
HETATM   23  N7  UNL     1     -35.763  59.626  79.109  1.00  0.00    -0.316 N 
HETATM   24  C10 UNL     1     -35.515  58.426  78.574  1.00  0.00     0.134 C 
ATOM     25  H7  UNL     1     -36.213  59.783  80.011  1.00  0.00     0.169 HD
HETATM   26  N8  UNL     1     -35.973  57.320  79.409  1.00  0.00    -0.084 NA
BRANCH  19  27
HETATM   27  C7  UNL     1     -35.740  58.727  76.141  1.00  0.00     0.267 C 
HETATM   28  N6  UNL     1     -35.168  58.467  74.843  1.00  0.00    -0.059 NA
HETATM   29  O2  UNL     1     -36.916  59.108  76.219  1.00  0.00    -0.274 OA
ENDBRANCH  19  27
ENDBRANCH   3  19
TORSDOF 7
ENDMDL
