MODEL 1
REMARK VINA RESULT: -4.342693500      0.000      0.000
REMARK  2 active torsions:
REMARK  status: ('A' for Active; 'I' for Inactive)
REMARK    1  A    between atoms: C2_2  and  O1_3 
REMARK    2  A    between atoms: C4_8  and  O4_10 
ROOT
HETATM    1  C1  UNL     1      12.654   1.953  16.083  1.00  0.00     0.085 C 
HETATM    2  C2  UNL     1      11.368   1.341  15.659  1.00  0.00     0.217 C 
HETATM    3  O2  UNL     1      10.399   2.336  15.391  1.00  0.00    -0.326 OA
HETATM    4  C3  UNL     1       9.571   1.627  14.501  1.00  0.00     0.345 C 
HETATM    5  O3  UNL     1      10.534   1.177  13.577  1.00  0.00    -0.326 OA
HETATM    6  C4  UNL     1      11.406   0.493  14.458  1.00  0.00     0.217 C 
HETATM    7  C5  UNL     1      12.710   0.351  13.767  1.00  0.00     0.085 C 
ENDROOT
BRANCH   2   8
HETATM    8  O1  UNL     1      10.843   0.644  16.768  1.00  0.00    -0.361 OA
ATOM      9  H1  UNL     1      10.362   1.269  17.297  1.00  0.00     0.213 HD
ENDBRANCH   2   8
BRANCH   6  10
HETATM   10  O4  UNL     1      10.773  -0.748  14.691  1.00  0.00    -0.361 OA
ATOM     11  H4  UNL     1      11.020  -1.105  15.535  1.00  0.00     0.213 HD
ENDBRANCH   6  10
TORSDOF 2
ENDMDL
MODEL 2
REMARK VINA RESULT: -4.305802689      1.292      2.436
REMARK  2 active torsions:
REMARK  status: ('A' for Active; 'I' for Inactive)
REMARK    1  A    between atoms: C2_2  and  O1_3 
REMARK    2  A    between atoms: C4_8  and  O4_10 
ROOT
HETATM    1  C1  UNL     1      12.051   0.073  13.105  1.00  0.00     0.085 C 
HETATM    2  C2  UNL     1      11.252   0.589  14.246  1.00  0.00     0.217 C 
HETATM    3  O2  UNL     1      12.084   1.212  15.206  1.00  0.00    -0.326 OA
HETATM    4  C3  UNL     1      11.150   2.078  15.803  1.00  0.00     0.345 C 
HETATM    5  O3  UNL     1      10.637   2.713  14.656  1.00  0.00    -0.326 OA
HETATM    6  C4  UNL     1      10.210   1.576  13.928  1.00  0.00     0.217 C 
HETATM    7  C5  UNL     1      10.073   1.987  12.509  1.00  0.00     0.085 C 
ENDROOT
BRANCH   2   8
HETATM    8  O1  UNL     1      10.718  -0.524  14.929  1.00  0.00    -0.361 OA
ATOM      9  H1  UNL     1      10.747  -0.330  15.859  1.00  0.00     0.213 HD
ENDBRANCH   2   8
BRANCH   6  10
HETATM   10  O4  UNL     1       8.976   1.222  14.515  1.00  0.00    -0.361 OA
ATOM     11  H4  UNL     1       8.904   1.569  15.397  1.00  0.00     0.213 HD
ENDBRANCH   6  10
TORSDOF 2
ENDMDL
MODEL 3
REMARK VINA RESULT: -4.290420287      1.300      2.470
REMARK  2 active torsions:
REMARK  status: ('A' for Active; 'I' for Inactive)
REMARK    1  A    between atoms: C2_2  and  O1_3 
REMARK    2  A    between atoms: C4_8  and  O4_10 
ROOT
HETATM    1  C1  UNL     1       9.757   3.304  14.906  1.00  0.00     0.085 C 
HETATM    2  C2  UNL     1      10.036   1.885  14.568  1.00  0.00     0.217 C 
HETATM    3  O2  UNL     1      10.669   1.779  13.308  1.00  0.00    -0.326 OA
HETATM    4  C3  UNL     1      11.329   0.548  13.476  1.00  0.00     0.345 C 
HETATM    5  O3  UNL     1      11.998   0.793  14.690  1.00  0.00    -0.326 OA
HETATM    6  C4  UNL     1      10.892   1.141  15.503  1.00  0.00     0.217 C 
HETATM    7  C5  UNL     1      11.421   1.880  16.676  1.00  0.00     0.085 C 
ENDROOT
BRANCH   2   8
HETATM    8  O1  UNL     1       8.794   1.241  14.381  1.00  0.00    -0.361 OA
ATOM      9  H1  UNL     1       8.328   1.711  13.700  1.00  0.00     0.213 HD
ENDBRANCH   2   8
BRANCH   6  10
HETATM   10  O4  UNL     1      10.309  -0.096  15.856  1.00  0.00    -0.361 OA
ATOM     11  H4  UNL     1       9.741  -0.416  15.165  1.00  0.00     0.213 HD
ENDBRANCH   6  10
TORSDOF 2
ENDMDL
MODEL 4
REMARK VINA RESULT: -4.158226178      8.679     10.115
REMARK  2 active torsions:
REMARK  status: ('A' for Active; 'I' for Inactive)
REMARK    1  A    between atoms: C2_2  and  O1_3 
REMARK    2  A    between atoms: C4_8  and  O4_10 
ROOT
HETATM    1  C1  UNL     1      17.196   2.004  19.743  1.00  0.00     0.085 C 
HETATM    2  C2  UNL     1      18.602   1.893  20.210  1.00  0.00     0.217 C 
HETATM    3  O2  UNL     1      19.041   3.107  20.786  1.00  0.00    -0.326 OA
HETATM    4  C3  UNL     1      20.057   2.617  21.627  1.00  0.00     0.345 C 
HETATM    5  O3  UNL     1      19.343   1.616  22.315  1.00  0.00    -0.326 OA
HETATM    6  C4  UNL     1      18.883   0.855  21.213  1.00  0.00     0.217 C 
HETATM    7  C5  UNL     1      17.739   0.039  21.687  1.00  0.00     0.085 C 
ENDROOT
BRANCH   2   8
HETATM    8  O1  UNL     1      19.418   1.742  19.069  1.00  0.00    -0.361 OA
ATOM      9  H1  UNL     1      19.031   2.257  18.370  1.00  0.00     0.213 HD
ENDBRANCH   2   8
BRANCH   6  10
HETATM   10  O4  UNL     1      19.994   0.070  20.837  1.00  0.00    -0.361 OA
ATOM     11  H4  UNL     1      20.383   0.390  20.031  1.00  0.00     0.213 HD
ENDBRANCH   6  10
TORSDOF 2
ENDMDL
MODEL 5
REMARK VINA RESULT: -4.113933960      7.664      8.981
REMARK  2 active torsions:
REMARK  status: ('A' for Active; 'I' for Inactive)
REMARK    1  A    between atoms: C2_2  and  O1_3 
REMARK    2  A    between atoms: C4_8  and  O4_10 
ROOT
HETATM    1  C1  UNL     1      15.974   2.617  19.699  1.00  0.00     0.085 C 
HETATM    2  C2  UNL     1      17.452   2.761  19.732  1.00  0.00     0.217 C 
HETATM    3  O2  UNL     1      17.852   3.633  20.771  1.00  0.00    -0.326 OA
HETATM    4  C3  UNL     1      19.162   3.164  20.984  1.00  0.00     0.345 C 
HETATM    5  O3  UNL     1      18.904   1.789  21.148  1.00  0.00    -0.326 OA
HETATM    6  C4  UNL     1      18.229   1.528  19.931  1.00  0.00     0.217 C 
HETATM    7  C5  UNL     1      17.470   0.266  20.108  1.00  0.00     0.085 C 
ENDROOT
BRANCH   2   8
HETATM    8  O1  UNL     1      17.841   3.433  18.554  1.00  0.00    -0.361 OA
ATOM      9  H1  UNL     1      18.738   3.721  18.673  1.00  0.00     0.213 HD
ENDBRANCH   2   8
BRANCH   6  10
HETATM   10  O4  UNL     1      19.259   1.415  18.971  1.00  0.00    -0.361 OA
ATOM     11  H4  UNL     1      19.670   2.256  18.809  1.00  0.00     0.213 HD
ENDBRANCH   6  10
TORSDOF 2
ENDMDL
