MODEL 1
REMARK VINA RESULT: -5.971381804      0.000      0.000
REMARK  5 active torsions:
REMARK  status: ('A' for Active; 'I' for Inactive)
REMARK    1  A    between atoms: N1_2  and  C3_4 
REMARK    2  A    between atoms: C3_4  and  C4_5 
REMARK    3  A    between atoms: C4_5  and  N2_6 
REMARK    4  A    between atoms: N2_6  and  C5_8 
REMARK    5  A    between atoms: C5_8  and  C6_9 
ROOT
HETATM    1  C6  UNL     1      64.049  37.361  69.393  1.00  0.00     0.119 C 
HETATM    2  C7  UNL     1      64.934  37.273  70.588  1.00  0.00     0.031 C 
HETATM    3  C8  UNL     1      65.162  35.769  70.867  1.00  0.00     0.016 C 
HETATM    4  C9  UNL     1      63.844  35.235  71.363  1.00  0.00    -0.016 C 
HETATM    5  C10 UNL     1      63.592  35.763  72.753  1.00  0.00     0.020 C 
HETATM    6  C11 UNL     1      63.980  33.728  71.460  1.00  0.00     0.020 C 
HETATM    7  C12 UNL     1      62.709  35.627  70.452  1.00  0.00     0.065 C 
HETATM    8  N3  UNL     1      63.098  36.286  69.280  1.00  0.00    -0.392 N 
ATOM      9  H3  UNL     1      62.719  36.013  68.373  1.00  0.00     0.159 HD
ENDROOT
BRANCH   1  10
HETATM   10  C5  UNL     1      63.402  38.697  69.248  1.00  0.00     0.080 C 
BRANCH  10  11
HETATM   11  N2  UNL     1      62.797  39.111  68.082  1.00  0.00    -0.399 N 
ATOM     12  H2  UNL     1      61.777  39.124  68.079  1.00  0.00     0.158 HD
BRANCH  11  13
HETATM   13  C4  UNL     1      63.422  39.512  66.910  1.00  0.00     0.138 C 
BRANCH  13  14
HETATM   14  C3  UNL     1      62.351  39.783  65.807  1.00  0.00     0.135 C 
BRANCH  14  15
HETATM   15  N1  UNL     1      61.978  41.143  65.924  1.00  0.00    -0.419 N 
HETATM   16  C1  UNL     1      60.583  41.358  66.199  1.00  0.00     0.142 C 
HETATM   17  C2  UNL     1      62.512  42.058  64.980  1.00  0.00     0.142 C 
ENDBRANCH  14  15
ENDBRANCH  13  14
ENDBRANCH  11  13
ENDBRANCH  10  11
ENDBRANCH   1  10
TORSDOF 5
ENDMDL
MODEL 2
REMARK VINA RESULT: -5.951348786      1.390      2.004
REMARK  5 active torsions:
REMARK  status: ('A' for Active; 'I' for Inactive)
REMARK    1  A    between atoms: N1_2  and  C3_4 
REMARK    2  A    between atoms: C3_4  and  C4_5 
REMARK    3  A    between atoms: C4_5  and  N2_6 
REMARK    4  A    between atoms: N2_6  and  C5_8 
REMARK    5  A    between atoms: C5_8  and  C6_9 
ROOT
HETATM    1  C6  UNL     1      63.754  38.391  69.606  1.00  0.00     0.119 C 
HETATM    2  C7  UNL     1      63.376  36.990  69.266  1.00  0.00     0.031 C 
HETATM    3  C8  UNL     1      62.989  36.296  70.592  1.00  0.00     0.016 C 
HETATM    4  C9  UNL     1      64.269  36.138  71.368  1.00  0.00    -0.016 C 
HETATM    5  C10 UNL     1      65.115  35.076  70.709  1.00  0.00     0.020 C 
HETATM    6  C11 UNL     1      63.897  35.639  72.750  1.00  0.00     0.020 C 
HETATM    7  C12 UNL     1      65.038  37.433  71.439  1.00  0.00     0.065 C 
HETATM    8  N3  UNL     1      64.374  38.540  70.897  1.00  0.00    -0.392 N 
ATOM      9  H3  UNL     1      64.330  39.425  71.402  1.00  0.00     0.159 HD
ENDROOT
BRANCH   1  10
HETATM   10  C5  UNL     1      64.540  39.057  68.529  1.00  0.00     0.080 C 
BRANCH  10  11
HETATM   11  N2  UNL     1      64.455  40.407  68.268  1.00  0.00    -0.399 N 
ATOM     12  H2  UNL     1      64.413  41.024  69.079  1.00  0.00     0.158 HD
BRANCH  11  13
HETATM   13  C4  UNL     1      64.422  41.020  67.024  1.00  0.00     0.138 C 
BRANCH  13  14
HETATM   14  C3  UNL     1      63.758  40.066  65.983  1.00  0.00     0.135 C 
BRANCH  14  15
HETATM   15  N1  UNL     1      62.465  40.578  65.724  1.00  0.00    -0.419 N 
HETATM   16  C1  UNL     1      61.546  39.624  65.164  1.00  0.00     0.142 C 
HETATM   17  C2  UNL     1      62.371  41.864  65.129  1.00  0.00     0.142 C 
ENDBRANCH  14  15
ENDBRANCH  13  14
ENDBRANCH  11  13
ENDBRANCH  10  11
ENDBRANCH   1  10
TORSDOF 5
ENDMDL
MODEL 3
REMARK VINA RESULT: -5.817835758      6.317      9.156
REMARK  5 active torsions:
REMARK  status: ('A' for Active; 'I' for Inactive)
REMARK    1  A    between atoms: N1_2  and  C3_4 
REMARK    2  A    between atoms: C3_4  and  C4_5 
REMARK    3  A    between atoms: C4_5  and  N2_6 
REMARK    4  A    between atoms: N2_6  and  C5_8 
REMARK    5  A    between atoms: C5_8  and  C6_9 
ROOT
HETATM    1  C6  UNL     1      69.118  31.587  70.915  1.00  0.00     0.119 C 
HETATM    2  C7  UNL     1      69.758  30.706  69.897  1.00  0.00     0.031 C 
HETATM    3  C8  UNL     1      70.549  29.628  70.672  1.00  0.00     0.016 C 
HETATM    4  C9  UNL     1      71.714  30.342  71.305  1.00  0.00    -0.016 C 
HETATM    5  C10 UNL     1      72.700  30.722  70.229  1.00  0.00     0.020 C 
HETATM    6  C11 UNL     1      72.398  29.354  72.228  1.00  0.00     0.020 C 
HETATM    7  C12 UNL     1      71.271  31.575  72.050  1.00  0.00     0.065 C 
HETATM    8  N3  UNL     1      69.883  31.749  72.123  1.00  0.00    -0.392 N 
ATOM      9  H3  UNL     1      69.428  31.983  73.006  1.00  0.00     0.159 HD
ENDROOT
BRANCH   1  10
HETATM   10  C5  UNL     1      68.677  32.896  70.353  1.00  0.00     0.080 C 
BRANCH  10  11
HETATM   11  N2  UNL     1      67.895  33.785  71.057  1.00  0.00    -0.399 N 
ATOM     12  H2  UNL     1      68.350  34.644  71.366  1.00  0.00     0.158 HD
BRANCH  11  13
HETATM   13  C4  UNL     1      66.556  33.641  71.392  1.00  0.00     0.138 C 
BRANCH  13  14
HETATM   14  C3  UNL     1      66.184  34.651  72.523  1.00  0.00     0.135 C 
BRANCH  14  15
HETATM   15  N1  UNL     1      64.838  34.392  72.875  1.00  0.00    -0.419 N 
HETATM   16  C1  UNL     1      64.317  33.149  72.371  1.00  0.00     0.142 C 
HETATM   17  C2  UNL     1      63.913  35.466  72.785  1.00  0.00     0.142 C 
ENDBRANCH  14  15
ENDBRANCH  13  14
ENDBRANCH  11  13
ENDBRANCH  10  11
ENDBRANCH   1  10
TORSDOF 5
ENDMDL
MODEL 4
REMARK VINA RESULT: -5.768769925      1.554      7.404
REMARK  5 active torsions:
REMARK  status: ('A' for Active; 'I' for Inactive)
REMARK    1  A    between atoms: N1_2  and  C3_4 
REMARK    2  A    between atoms: C3_4  and  C4_5 
REMARK    3  A    between atoms: C4_5  and  N2_6 
REMARK    4  A    between atoms: N2_6  and  C5_8 
REMARK    5  A    between atoms: C5_8  and  C6_9 
ROOT
HETATM    1  C6  UNL     1      63.101  39.967  66.553  1.00  0.00     0.119 C 
HETATM    2  C7  UNL     1      62.185  41.139  66.639  1.00  0.00     0.031 C 
HETATM    3  C8  UNL     1      62.262  41.868  65.278  1.00  0.00     0.016 C 
HETATM    4  C9  UNL     1      63.631  42.493  65.218  1.00  0.00    -0.016 C 
HETATM    5  C10 UNL     1      63.685  43.651  66.183  1.00  0.00     0.020 C 
HETATM    6  C11 UNL     1      63.810  43.049  63.820  1.00  0.00     0.020 C 
HETATM    7  C12 UNL     1      64.711  41.496  65.556  1.00  0.00     0.065 C 
HETATM    8  N3  UNL     1      64.262  40.181  65.729  1.00  0.00    -0.392 N 
ATOM      9  H3  UNL     1      64.742  39.399  65.284  1.00  0.00     0.159 HD
ENDROOT
BRANCH   1  10
HETATM   10  C5  UNL     1      63.460  39.413  67.890  1.00  0.00     0.080 C 
BRANCH  10  11
HETATM   11  N2  UNL     1      63.421  38.066  68.175  1.00  0.00    -0.399 N 
ATOM     12  H2  UNL     1      62.884  37.481  67.534  1.00  0.00     0.158 HD
BRANCH  11  13
HETATM   13  C4  UNL     1      64.032  37.415  69.237  1.00  0.00     0.138 C 
BRANCH  13  14
HETATM   14  C3  UNL     1      63.078  36.317  69.803  1.00  0.00     0.135 C 
BRANCH  14  15
HETATM   15  N1  UNL     1      63.268  36.292  71.205  1.00  0.00    -0.419 N 
HETATM   16  C1  UNL     1      64.601  36.623  71.632  1.00  0.00     0.142 C 
HETATM   17  C2  UNL     1      62.697  35.214  71.931  1.00  0.00     0.142 C 
ENDBRANCH  14  15
ENDBRANCH  13  14
ENDBRANCH  11  13
ENDBRANCH  10  11
ENDBRANCH   1  10
TORSDOF 5
ENDMDL
MODEL 5
REMARK VINA RESULT: -5.768339691      4.925      8.575
REMARK  5 active torsions:
REMARK  status: ('A' for Active; 'I' for Inactive)
REMARK    1  A    between atoms: N1_2  and  C3_4 
REMARK    2  A    between atoms: C3_4  and  C4_5 
REMARK    3  A    between atoms: C4_5  and  N2_6 
REMARK    4  A    between atoms: N2_6  and  C5_8 
REMARK    5  A    between atoms: C5_8  and  C6_9 
ROOT
HETATM    1  C6  UNL     1      66.356  34.358  71.523  1.00  0.00     0.119 C 
HETATM    2  C7  UNL     1      65.315  33.414  72.017  1.00  0.00     0.031 C 
HETATM    3  C8  UNL     1      63.990  33.807  71.324  1.00  0.00     0.016 C 
HETATM    4  C9  UNL     1      63.583  35.128  71.922  1.00  0.00    -0.016 C 
HETATM    5  C10 UNL     1      63.124  34.904  73.341  1.00  0.00     0.020 C 
HETATM    6  C11 UNL     1      62.395  35.633  71.128  1.00  0.00     0.020 C 
HETATM    7  C12 UNL     1      64.720  36.119  71.903  1.00  0.00     0.065 C 
HETATM    8  N3  UNL     1      65.868  35.681  71.232  1.00  0.00    -0.392 N 
ATOM      9  H3  UNL     1      66.344  36.281  70.558  1.00  0.00     0.159 HD
ENDROOT
BRANCH   1  10
HETATM   10  C5  UNL     1      67.569  34.388  72.390  1.00  0.00     0.080 C 
BRANCH  10  11
HETATM   11  N2  UNL     1      68.739  33.741  72.059  1.00  0.00    -0.399 N 
ATOM     12  H2  UNL     1      69.538  33.904  72.673  1.00  0.00     0.158 HD
BRANCH  11  13
HETATM   13  C4  UNL     1      68.953  32.891  70.983  1.00  0.00     0.138 C 
BRANCH  13  14
HETATM   14  C3  UNL     1      70.076  31.866  71.335  1.00  0.00     0.135 C 
BRANCH  14  15
HETATM   15  N1  UNL     1      69.701  30.633  70.750  1.00  0.00    -0.419 N 
HETATM   16  C1  UNL     1      69.317  29.618  71.694  1.00  0.00     0.142 C 
HETATM   17  C2  UNL     1      70.498  30.137  69.685  1.00  0.00     0.142 C 
ENDBRANCH  14  15
ENDBRANCH  13  14
ENDBRANCH  11  13
ENDBRANCH  10  11
ENDBRANCH   1  10
TORSDOF 5
ENDMDL
