MODEL 1
REMARK VINA RESULT: -8.938930254      0.000      0.000
REMARK  10 active torsions:
REMARK  status: ('A' for Active; 'I' for Inactive)
REMARK    1  A    between atoms: C2_2  and  C3_3 
REMARK    2  A    between atoms: C4_4  and  C5_5 
REMARK    3  A    between atoms: C5_5  and  N1_6 
REMARK    4  A    between atoms: C5_5  and  C9_16 
REMARK       I    between atoms: N1_6  and  C6_7 
REMARK    5  A    between atoms: C6_7  and  C7_9 
REMARK       I    between atoms: C7_9  and  N2_11 
REMARK       I    between atoms: C9_16  and  N5_18 
REMARK    6  A    between atoms: N5_18  and  C10_20 
REMARK    7  A    between atoms: C10_20  and  N6_21 
REMARK    8  A    between atoms: C10_20  and  C12_26 
REMARK       I    between atoms: C12_26  and  N9_28 
REMARK    9  A    between atoms: N9_28  and  C13_30 
REMARK   10  A    between atoms: C13_30  and  C14_31 
REMARK       I    between atoms: C14_31  and  N10_33 
ROOT
HETATM    1  C9  UNL     1      44.794  21.742  37.527  1.00  0.00     0.267 C 
HETATM    2  O3  UNL     1      45.790  21.908  38.250  1.00  0.00    -0.269 OA
HETATM    3  N5  UNL     1      44.290  20.394  37.336  1.00  0.00    -0.328 N 
ATOM      4  H5  UNL     1      43.466  20.240  36.754  1.00  0.00     0.165 HD
ENDROOT
BRANCH   3   5
HETATM    5  C10 UNL     1      44.943  19.273  37.963  1.00  0.00     0.280 C 
BRANCH   5   6
HETATM    6  N6  UNL     1      46.255  19.110  37.494  1.00  0.00    -0.338 N 
HETATM    7  C11 UNL     1      46.831  19.090  36.396  1.00  0.00     0.198 C 
HETATM    8  N7  UNL     1      48.266  18.875  36.440  1.00  0.00    -0.067 NA
HETATM    9  N8  UNL     1      46.267  19.259  35.109  1.00  0.00    -0.067 NA
ATOM     10  H6  UNL     1      46.911  18.969  38.262  1.00  0.00     0.164 HD
ENDBRANCH   5   6
BRANCH   5  11
HETATM   11  C12 UNL     1      44.141  17.998  37.825  1.00  0.00     0.260 C 
HETATM   12  O4  UNL     1      43.284  17.892  36.928  1.00  0.00    -0.269 OA
HETATM   13  N9  UNL     1      44.382  16.970  38.724  1.00  0.00    -0.349 N 
ATOM     14  H9  UNL     1      45.090  17.107  39.446  1.00  0.00     0.163 HD
BRANCH  13  15
HETATM   15  C13 UNL     1      43.675  15.721  38.680  1.00  0.00     0.225 C 
BRANCH  15  16
HETATM   16  C14 UNL     1      44.385  14.589  39.296  1.00  0.00     0.241 C 
HETATM   17  O5  UNL     1      44.678  14.578  40.533  1.00  0.00    -0.271 OA
HETATM   18  N10 UNL     1      44.759  13.469  38.499  1.00  0.00    -0.302 N 
HETATM   19  C15 UNL     1      44.457  12.241  38.814  1.00  0.00     0.203 C 
ATOM     20  H10 UNL     1      45.287  13.637  37.642  1.00  0.00     0.171 HD
HETATM   21  N11 UNL     1      44.855  11.162  37.986  1.00  0.00    -0.066 NA
HETATM   22  N12 UNL     1      43.734  11.955  40.010  1.00  0.00    -0.066 NA
ENDBRANCH  15  16
ENDBRANCH  13  15
ENDBRANCH   5  11
ENDBRANCH   3   5
BRANCH   1  23
HETATM   23  C5  UNL     1      44.083  22.847  36.846  1.00  0.00     0.337 C 
BRANCH  23  24
HETATM   24  C4  UNL     1      44.985  23.085  35.615  1.00  0.00    -0.057 C 
HETATM   25  C3  UNL     1      45.687  23.262  34.654  1.00  0.00    -0.103 C 
BRANCH  25  26
HETATM   26  C2  UNL     1      46.509  23.481  33.467  1.00  0.00     0.089 C 
HETATM   27  C1  UNL     1      45.819  22.812  32.309  1.00  0.00     0.018 C 
ENDBRANCH  25  26
ENDBRANCH  23  24
BRANCH  23  28
HETATM   28  N1  UNL     1      43.975  24.062  37.470  1.00  0.00    -0.379 NA
HETATM   29  C6  UNL     1      43.865  25.278  38.095  1.00  0.00     0.381 C 
HETATM   30  O1  UNL     1      42.835  26.001  38.099  1.00  0.00    -0.246 OA
BRANCH  29  31
HETATM   31  C7  UNL     1      45.030  25.827  38.851  1.00  0.00     0.330 C 
HETATM   32  O2  UNL     1      46.044  25.188  39.122  1.00  0.00    -0.261 OA
HETATM   33  N2  UNL     1      44.956  27.198  39.296  1.00  0.00    -0.294 N 
HETATM   34  C8  UNL     1      45.027  27.465  40.561  1.00  0.00     0.203 C 
ATOM     35  H2  UNL     1      44.848  27.953  38.617  1.00  0.00     0.171 HD
HETATM   36  N3  UNL     1      44.953  28.818  40.966  1.00  0.00    -0.066 NA
HETATM   37  N4  UNL     1      45.161  26.474  41.559  1.00  0.00    -0.066 NA
ENDBRANCH  29  31
ENDBRANCH  23  28
ENDBRANCH   1  23
TORSDOF 10
ENDMDL
MODEL 2
REMARK VINA RESULT: -8.869638248      2.822      5.009
REMARK  10 active torsions:
REMARK  status: ('A' for Active; 'I' for Inactive)
REMARK    1  A    between atoms: C2_2  and  C3_3 
REMARK    2  A    between atoms: C4_4  and  C5_5 
REMARK    3  A    between atoms: C5_5  and  N1_6 
REMARK    4  A    between atoms: C5_5  and  C9_16 
REMARK       I    between atoms: N1_6  and  C6_7 
REMARK    5  A    between atoms: C6_7  and  C7_9 
REMARK       I    between atoms: C7_9  and  N2_11 
REMARK       I    between atoms: C9_16  and  N5_18 
REMARK    6  A    between atoms: N5_18  and  C10_20 
REMARK    7  A    between atoms: C10_20  and  N6_21 
REMARK    8  A    between atoms: C10_20  and  C12_26 
REMARK       I    between atoms: C12_26  and  N9_28 
REMARK    9  A    between atoms: N9_28  and  C13_30 
REMARK   10  A    between atoms: C13_30  and  C14_31 
REMARK       I    between atoms: C14_31  and  N10_33 
ROOT
HETATM    1  C9  UNL     1      45.924  22.844  37.579  1.00  0.00     0.267 C 
HETATM    2  O3  UNL     1      45.721  22.790  38.803  1.00  0.00    -0.269 OA
HETATM    3  N5  UNL     1      46.001  21.601  36.832  1.00  0.00    -0.328 N 
ATOM      4  H5  UNL     1      46.157  21.626  35.824  1.00  0.00     0.165 HD
ENDROOT
BRANCH   3   5
HETATM    5  C10 UNL     1      45.859  20.333  37.503  1.00  0.00     0.280 C 
BRANCH   5   6
HETATM    6  N6  UNL     1      46.972  19.506  37.287  1.00  0.00    -0.338 N 
HETATM    7  C11 UNL     1      48.143  19.641  36.903  1.00  0.00     0.198 C 
HETATM    8  N7  UNL     1      48.931  18.423  36.844  1.00  0.00    -0.067 NA
HETATM    9  N8  UNL     1      48.808  20.832  36.526  1.00  0.00    -0.067 NA
ATOM     10  H6  UNL     1      46.760  18.532  37.503  1.00  0.00     0.164 HD
ENDBRANCH   5   6
BRANCH   5  11
HETATM   11  C12 UNL     1      44.569  19.636  37.135  1.00  0.00     0.260 C 
HETATM   12  O4  UNL     1      43.642  20.276  36.604  1.00  0.00    -0.269 OA
HETATM   13  N9  UNL     1      44.451  18.283  37.413  1.00  0.00    -0.349 N 
ATOM     14  H9  UNL     1      45.235  17.804  37.855  1.00  0.00     0.163 HD
BRANCH  13  15
HETATM   15  C13 UNL     1      43.268  17.529  37.104  1.00  0.00     0.225 C 
BRANCH  15  16
HETATM   16  C14 UNL     1      42.957  16.454  38.058  1.00  0.00     0.241 C 
HETATM   17  O5  UNL     1      41.952  16.519  38.833  1.00  0.00    -0.271 OA
HETATM   18  N10 UNL     1      43.795  15.303  38.126  1.00  0.00    -0.302 N 
HETATM   19  C15 UNL     1      43.337  14.086  38.040  1.00  0.00     0.203 C 
ATOM     20  H10 UNL     1      44.799  15.438  38.247  1.00  0.00     0.171 HD
HETATM   21  N11 UNL     1      44.213  12.975  38.116  1.00  0.00    -0.066 NA
HETATM   22  N12 UNL     1      41.939  13.845  37.887  1.00  0.00    -0.066 NA
ENDBRANCH  15  16
ENDBRANCH  13  15
ENDBRANCH   5  11
ENDBRANCH   3   5
BRANCH   1  23
HETATM   23  C5  UNL     1      46.088  24.110  36.830  1.00  0.00     0.337 C 
BRANCH  23  24
HETATM   24  C4  UNL     1      44.678  24.729  36.956  1.00  0.00    -0.057 C 
HETATM   25  C3  UNL     1      43.577  25.203  37.058  1.00  0.00    -0.103 C 
BRANCH  25  26
HETATM   26  C2  UNL     1      42.249  25.790  37.215  1.00  0.00     0.089 C 
HETATM   27  C1  UNL     1      42.348  27.240  36.827  1.00  0.00     0.018 C 
ENDBRANCH  25  26
ENDBRANCH  23  24
BRANCH  23  28
HETATM   28  N1  UNL     1      46.358  24.067  35.488  1.00  0.00    -0.379 NA
HETATM   29  C6  UNL     1      46.630  24.024  34.144  1.00  0.00     0.381 C 
HETATM   30  O1  UNL     1      47.245  24.913  33.501  1.00  0.00    -0.246 OA
BRANCH  29  31
HETATM   31  C7  UNL     1      46.191  22.845  33.340  1.00  0.00     0.330 C 
HETATM   32  O2  UNL     1      45.019  22.552  33.120  1.00  0.00    -0.261 OA
HETATM   33  N2  UNL     1      47.216  21.990  32.789  1.00  0.00    -0.294 N 
HETATM   34  C8  UNL     1      47.255  20.740  33.125  1.00  0.00     0.203 C 
ATOM     35  H2  UNL     1      47.904  22.368  32.138  1.00  0.00     0.171 HD
HETATM   36  N3  UNL     1      48.270  19.927  32.568  1.00  0.00    -0.066 NA
HETATM   37  N4  UNL     1      46.346  20.149  34.031  1.00  0.00    -0.066 NA
ENDBRANCH  29  31
ENDBRANCH  23  28
ENDBRANCH   1  23
TORSDOF 10
ENDMDL
MODEL 3
REMARK VINA RESULT: -8.743279779      2.908      5.212
REMARK  10 active torsions:
REMARK  status: ('A' for Active; 'I' for Inactive)
REMARK    1  A    between atoms: C2_2  and  C3_3 
REMARK    2  A    between atoms: C4_4  and  C5_5 
REMARK    3  A    between atoms: C5_5  and  N1_6 
REMARK    4  A    between atoms: C5_5  and  C9_16 
REMARK       I    between atoms: N1_6  and  C6_7 
REMARK    5  A    between atoms: C6_7  and  C7_9 
REMARK       I    between atoms: C7_9  and  N2_11 
REMARK       I    between atoms: C9_16  and  N5_18 
REMARK    6  A    between atoms: N5_18  and  C10_20 
REMARK    7  A    between atoms: C10_20  and  N6_21 
REMARK    8  A    between atoms: C10_20  and  C12_26 
REMARK       I    between atoms: C12_26  and  N9_28 
REMARK    9  A    between atoms: N9_28  and  C13_30 
REMARK   10  A    between atoms: C13_30  and  C14_31 
REMARK       I    between atoms: C14_31  and  N10_33 
ROOT
HETATM    1  C9  UNL     1      46.117  22.620  37.581  1.00  0.00     0.267 C 
HETATM    2  O3  UNL     1      45.719  22.532  38.753  1.00  0.00    -0.269 OA
HETATM    3  N5  UNL     1      46.475  21.402  36.875  1.00  0.00    -0.328 N 
ATOM      4  H5  UNL     1      46.795  21.454  35.908  1.00  0.00     0.165 HD
ENDROOT
BRANCH   3   5
HETATM    5  C10 UNL     1      46.382  20.122  37.531  1.00  0.00     0.280 C 
BRANCH   5   6
HETATM    6  N6  UNL     1      47.636  19.500  37.633  1.00  0.00    -0.338 N 
HETATM    7  C11 UNL     1      48.649  19.377  36.928  1.00  0.00     0.198 C 
HETATM    8  N7  UNL     1      49.729  18.599  37.507  1.00  0.00    -0.067 NA
HETATM    9  N8  UNL     1      48.885  19.906  35.637  1.00  0.00    -0.067 NA
ATOM     10  H6  UNL     1      47.743  19.020  38.526  1.00  0.00     0.164 HD
ENDBRANCH   5   6
BRANCH   5  11
HETATM   11  C12 UNL     1      45.366  19.218  36.871  1.00  0.00     0.260 C 
HETATM   12  O4  UNL     1      45.350  19.094  35.632  1.00  0.00    -0.269 OA
HETATM   13  N9  UNL     1      44.459  18.549  37.679  1.00  0.00    -0.349 N 
ATOM     14  H9  UNL     1      44.507  18.688  38.688  1.00  0.00     0.163 HD
BRANCH  13  15
HETATM   15  C13 UNL     1      43.454  17.669  37.152  1.00  0.00     0.225 C 
BRANCH  15  16
HETATM   16  C14 UNL     1      43.020  16.607  38.073  1.00  0.00     0.241 C 
HETATM   17  O5  UNL     1      41.988  16.737  38.803  1.00  0.00    -0.271 OA
HETATM   18  N10 UNL     1      43.767  15.397  38.160  1.00  0.00    -0.302 N 
HETATM   19  C15 UNL     1      43.225  14.218  38.033  1.00  0.00     0.203 C 
ATOM     20  H10 UNL     1      44.771  15.456  38.328  1.00  0.00     0.171 HD
HETATM   21  N11 UNL     1      44.013  13.044  38.130  1.00  0.00    -0.066 NA
HETATM   22  N12 UNL     1      41.822  14.084  37.813  1.00  0.00    -0.066 NA
ENDBRANCH  15  16
ENDBRANCH  13  15
ENDBRANCH   5  11
ENDBRANCH   3   5
BRANCH   1  23
HETATM   23  C5  UNL     1      46.246  23.902  36.852  1.00  0.00     0.337 C 
BRANCH  23  24
HETATM   24  C4  UNL     1      44.848  24.524  37.072  1.00  0.00    -0.057 C 
HETATM   25  C3  UNL     1      43.760  25.009  37.234  1.00  0.00    -0.103 C 
BRANCH  25  26
HETATM   26  C2  UNL     1      42.423  25.566  37.426  1.00  0.00     0.089 C 
HETATM   27  C1  UNL     1      42.475  27.014  37.022  1.00  0.00     0.018 C 
ENDBRANCH  25  26
ENDBRANCH  23  24
BRANCH  23  28
HETATM   28  N1  UNL     1      46.438  23.888  35.497  1.00  0.00    -0.379 NA
HETATM   29  C6  UNL     1      46.633  23.874  34.138  1.00  0.00     0.381 C 
HETATM   30  O1  UNL     1      47.185  24.791  33.476  1.00  0.00    -0.246 OA
BRANCH  29  31
HETATM   31  C7  UNL     1      46.180  22.696  33.340  1.00  0.00     0.330 C 
HETATM   32  O2  UNL     1      46.109  21.550  33.774  1.00  0.00    -0.261 OA
HETATM   33  N2  UNL     1      45.806  22.922  31.964  1.00  0.00    -0.294 N 
HETATM   34  C8  UNL     1      46.446  22.311  31.018  1.00  0.00     0.203 C 
ATOM     35  H2  UNL     1      45.043  23.560  31.738  1.00  0.00     0.171 HD
HETATM   36  N3  UNL     1      46.056  22.551  29.680  1.00  0.00    -0.066 NA
HETATM   37  N4  UNL     1      47.522  21.427  31.253  1.00  0.00    -0.066 NA
ENDBRANCH  29  31
ENDBRANCH  23  28
ENDBRANCH   1  23
TORSDOF 10
ENDMDL
MODEL 4
REMARK VINA RESULT: -8.715574720      1.060      1.376
REMARK  10 active torsions:
REMARK  status: ('A' for Active; 'I' for Inactive)
REMARK    1  A    between atoms: C2_2  and  C3_3 
REMARK    2  A    between atoms: C4_4  and  C5_5 
REMARK    3  A    between atoms: C5_5  and  N1_6 
REMARK    4  A    between atoms: C5_5  and  C9_16 
REMARK       I    between atoms: N1_6  and  C6_7 
REMARK    5  A    between atoms: C6_7  and  C7_9 
REMARK       I    between atoms: C7_9  and  N2_11 
REMARK       I    between atoms: C9_16  and  N5_18 
REMARK    6  A    between atoms: N5_18  and  C10_20 
REMARK    7  A    between atoms: C10_20  and  N6_21 
REMARK    8  A    between atoms: C10_20  and  C12_26 
REMARK       I    between atoms: C12_26  and  N9_28 
REMARK    9  A    between atoms: N9_28  and  C13_30 
REMARK   10  A    between atoms: C13_30  and  C14_31 
REMARK       I    between atoms: C14_31  and  N10_33 
ROOT
HETATM    1  C9  UNL     1      44.766  21.797  37.507  1.00  0.00     0.267 C 
HETATM    2  O3  UNL     1      45.747  21.974  38.246  1.00  0.00    -0.269 OA
HETATM    3  N5  UNL     1      44.260  20.447  37.334  1.00  0.00    -0.328 N 
ATOM      4  H5  UNL     1      43.448  20.284  36.738  1.00  0.00     0.165 HD
ENDROOT
BRANCH   3   5
HETATM    5  C10 UNL     1      44.895  19.337  37.998  1.00  0.00     0.280 C 
BRANCH   5   6
HETATM    6  N6  UNL     1      46.207  19.142  37.541  1.00  0.00    -0.338 N 
HETATM    7  C11 UNL     1      46.785  19.058  36.447  1.00  0.00     0.198 C 
HETATM    8  N7  UNL     1      48.220  18.841  36.506  1.00  0.00    -0.067 NA
HETATM    9  N8  UNL     1      46.224  19.155  35.152  1.00  0.00    -0.067 NA
ATOM     10  H6  UNL     1      46.862  19.044  38.317  1.00  0.00     0.164 HD
ENDBRANCH   5   6
BRANCH   5  11
HETATM   11  C12 UNL     1      44.077  18.069  37.894  1.00  0.00     0.260 C 
HETATM   12  O4  UNL     1      43.221  17.949  36.998  1.00  0.00    -0.269 OA
HETATM   13  N9  UNL     1      44.303  17.064  38.822  1.00  0.00    -0.349 N 
ATOM     14  H9  UNL     1      45.011  17.212  39.541  1.00  0.00     0.163 HD
BRANCH  13  15
HETATM   15  C13 UNL     1      43.580  15.823  38.812  1.00  0.00     0.225 C 
BRANCH  15  16
HETATM   16  C14 UNL     1      44.319  14.675  39.359  1.00  0.00     0.241 C 
HETATM   17  O5  UNL     1      44.687  14.636  40.575  1.00  0.00    -0.271 OA
HETATM   18  N10 UNL     1      44.636  13.570  38.517  1.00  0.00    -0.302 N 
HETATM   19  C15 UNL     1      44.346  12.337  38.825  1.00  0.00     0.203 C 
ATOM     20  H10 UNL     1      45.112  13.753  37.633  1.00  0.00     0.171 HD
HETATM   21  N11 UNL     1      44.686  11.274  37.952  1.00  0.00    -0.066 NA
HETATM   22  N12 UNL     1      43.696  12.030  40.057  1.00  0.00    -0.066 NA
ENDBRANCH  15  16
ENDBRANCH  13  15
ENDBRANCH   5  11
ENDBRANCH   3   5
BRANCH   1  23
HETATM   23  C5  UNL     1      44.074  22.890  36.788  1.00  0.00     0.337 C 
BRANCH  23  24
HETATM   24  C4  UNL     1      45.025  23.127  35.593  1.00  0.00    -0.057 C 
HETATM   25  C3  UNL     1      45.764  23.302  34.661  1.00  0.00    -0.103 C 
BRANCH  25  26
HETATM   26  C2  UNL     1      46.633  23.522  33.507  1.00  0.00     0.089 C 
HETATM   27  C1  UNL     1      45.967  22.894  32.314  1.00  0.00     0.018 C 
ENDBRANCH  25  26
ENDBRANCH  23  24
BRANCH  23  28
HETATM   28  N1  UNL     1      43.929  24.108  37.396  1.00  0.00    -0.379 NA
HETATM   29  C6  UNL     1      43.783  25.329  38.006  1.00  0.00     0.381 C 
HETATM   30  O1  UNL     1      42.893  26.175  37.730  1.00  0.00    -0.246 OA
BRANCH  29  31
HETATM   31  C7  UNL     1      44.723  25.727  39.096  1.00  0.00     0.330 C 
HETATM   32  O2  UNL     1      44.470  26.562  39.960  1.00  0.00    -0.261 OA
HETATM   33  N2  UNL     1      46.017  25.088  39.131  1.00  0.00    -0.294 N 
HETATM   34  C8  UNL     1      47.089  25.808  39.032  1.00  0.00     0.203 C 
ATOM     35  H2  UNL     1      46.088  24.076  39.234  1.00  0.00     0.171 HD
HETATM   36  N3  UNL     1      48.343  25.155  39.071  1.00  0.00    -0.066 NA
HETATM   37  N4  UNL     1      47.071  27.212  38.872  1.00  0.00    -0.066 NA
ENDBRANCH  29  31
ENDBRANCH  23  28
ENDBRANCH   1  23
TORSDOF 10
ENDMDL
MODEL 5
REMARK VINA RESULT: -8.571579863      1.483      1.914
REMARK  10 active torsions:
REMARK  status: ('A' for Active; 'I' for Inactive)
REMARK    1  A    between atoms: C2_2  and  C3_3 
REMARK    2  A    between atoms: C4_4  and  C5_5 
REMARK    3  A    between atoms: C5_5  and  N1_6 
REMARK    4  A    between atoms: C5_5  and  C9_16 
REMARK       I    between atoms: N1_6  and  C6_7 
REMARK    5  A    between atoms: C6_7  and  C7_9 
REMARK       I    between atoms: C7_9  and  N2_11 
REMARK       I    between atoms: C9_16  and  N5_18 
REMARK    6  A    between atoms: N5_18  and  C10_20 
REMARK    7  A    between atoms: C10_20  and  N6_21 
REMARK    8  A    between atoms: C10_20  and  C12_26 
REMARK       I    between atoms: C12_26  and  N9_28 
REMARK    9  A    between atoms: N9_28  and  C13_30 
REMARK   10  A    between atoms: C13_30  and  C14_31 
REMARK       I    between atoms: C14_31  and  N10_33 
ROOT
HETATM    1  C9  UNL     1      45.012  21.839  37.708  1.00  0.00     0.267 C 
HETATM    2  O3  UNL     1      46.084  21.938  38.327  1.00  0.00    -0.269 OA
HETATM    3  N5  UNL     1      44.418  20.523  37.552  1.00  0.00    -0.328 N 
ATOM      4  H5  UNL     1      43.533  20.424  37.055  1.00  0.00     0.165 HD
ENDROOT
BRANCH   3   5
HETATM    5  C10 UNL     1      45.070  19.357  38.094  1.00  0.00     0.280 C 
BRANCH   5   6
HETATM    6  N6  UNL     1      46.354  19.185  37.555  1.00  0.00    -0.338 N 
HETATM    7  C11 UNL     1      46.866  19.133  36.427  1.00  0.00     0.198 C 
HETATM    8  N7  UNL     1      48.303  18.925  36.396  1.00  0.00    -0.067 NA
HETATM    9  N8  UNL     1      46.228  19.259  35.170  1.00  0.00    -0.067 NA
ATOM     10  H6  UNL     1      47.054  19.072  38.288  1.00  0.00     0.164 HD
ENDBRANCH   5   6
BRANCH   5  11
HETATM   11  C12 UNL     1      44.229  18.111  37.935  1.00  0.00     0.260 C 
HETATM   12  O4  UNL     1      43.354  18.055  37.050  1.00  0.00    -0.269 OA
HETATM   13  N9  UNL     1      44.454  17.052  38.801  1.00  0.00    -0.349 N 
ATOM     14  H9  UNL     1      45.177  17.148  39.514  1.00  0.00     0.163 HD
BRANCH  13  15
HETATM   15  C13 UNL     1      43.710  15.825  38.735  1.00  0.00     0.225 C 
BRANCH  15  16
HETATM   16  C14 UNL     1      44.393  14.658  39.314  1.00  0.00     0.241 C 
HETATM   17  O5  UNL     1      44.686  14.600  40.550  1.00  0.00    -0.271 OA
HETATM   18  N10 UNL     1      44.742  13.557  38.480  1.00  0.00    -0.302 N 
HETATM   19  C15 UNL     1      44.412  12.326  38.756  1.00  0.00     0.203 C 
ATOM     20  H10 UNL     1      45.274  13.739  37.629  1.00  0.00     0.171 HD
HETATM   21  N11 UNL     1      44.786  11.265  37.893  1.00  0.00    -0.066 NA
HETATM   22  N12 UNL     1      43.683  12.018  39.942  1.00  0.00    -0.066 NA
ENDBRANCH  15  16
ENDBRANCH  13  15
ENDBRANCH   5  11
ENDBRANCH   3   5
BRANCH   1  23
HETATM   23  C5  UNL     1      44.296  22.993  37.118  1.00  0.00     0.337 C 
BRANCH  23  24
HETATM   24  C4  UNL     1      44.997  23.125  35.748  1.00  0.00    -0.057 C 
HETATM   25  C3  UNL     1      45.544  23.219  34.680  1.00  0.00    -0.103 C 
BRANCH  25  26
HETATM   26  C2  UNL     1      46.178  23.326  33.369  1.00  0.00     0.089 C 
HETATM   27  C1  UNL     1      45.453  22.390  32.440  1.00  0.00     0.018 C 
ENDBRANCH  25  26
ENDBRANCH  23  24
BRANCH  23  28
HETATM   28  N1  UNL     1      44.401  24.223  37.711  1.00  0.00    -0.379 NA
HETATM   29  C6  UNL     1      44.507  25.455  38.306  1.00  0.00     0.381 C 
HETATM   30  O1  UNL     1      44.576  25.657  39.546  1.00  0.00    -0.246 OA
BRANCH  29  31
HETATM   31  C7  UNL     1      44.559  26.682  37.456  1.00  0.00     0.330 C 
HETATM   32  O2  UNL     1      45.431  27.543  37.535  1.00  0.00    -0.261 OA
HETATM   33  N2  UNL     1      43.511  26.868  36.481  1.00  0.00    -0.294 N 
HETATM   34  C8  UNL     1      42.751  27.914  36.550  1.00  0.00     0.203 C 
ATOM     35  H2  UNL     1      43.370  26.179  35.742  1.00  0.00     0.171 HD
HETATM   36  N3  UNL     1      41.734  28.070  35.580  1.00  0.00    -0.066 NA
HETATM   37  N4  UNL     1      42.877  28.901  37.553  1.00  0.00    -0.066 NA
ENDBRANCH  29  31
ENDBRANCH  23  28
ENDBRANCH   1  23
TORSDOF 10
ENDMDL
