MODEL 1
REMARK VINA RESULT: -8.444603778      0.000      0.000
REMARK  12 active torsions:
REMARK  status: ('A' for Active; 'I' for Inactive)
REMARK    1  A    between atoms: C3_3  and  C4_4 
REMARK    2  A    between atoms: C4_4  and  C5_5 
REMARK    3  A    between atoms: C5_5  and  N1_6 
REMARK       I    between atoms: C6_8  and  N3_10 
REMARK    4  A    between atoms: N3_10  and  C7_12 
REMARK    5  A    between atoms: C9_17  and  C10_18 
REMARK    6  A    between atoms: C10_18  and  C11_19 
REMARK    7  A    between atoms: C11_19  and  C12_20 
REMARK    8  A    between atoms: C14_24  and  N6_25 
REMARK       I    between atoms: N6_25  and  C15_27 
REMARK    9  A    between atoms: N10_34  and  O2_35 
REMARK   10  A    between atoms: C16_39  and  C17_40 
REMARK   11  A    between atoms: C17_40  and  C18_41 
REMARK   12  A    between atoms: C18_41  and  C19_42 
ROOT
HETATM    1  C1  UNL     1      48.419  21.341  37.313  1.00  0.00     0.012 C 
HETATM    2  C2  UNL     1      48.858  22.205  36.597  1.00  0.00    -0.117 C 
HETATM    3  C3  UNL     1      49.403  23.242  35.708  1.00  0.00     0.098 C 
ENDROOT
BRANCH   3   4
HETATM    4  C4  UNL     1      49.622  22.644  34.326  1.00  0.00     0.056 C 
BRANCH   4   5
HETATM    5  C5  UNL     1      48.475  23.022  33.425  1.00  0.00     0.064 C 
BRANCH   5   6
HETATM    6  N1  UNL     1      47.248  22.598  33.950  1.00  0.00    -0.344 N 
HETATM    7  C6  UNL     1      46.335  21.838  33.582  1.00  0.00     0.193 C 
HETATM    8  N2  UNL     1      46.253  21.078  32.367  1.00  0.00    -0.063 NA
HETATM    9  N3  UNL     1      45.206  21.670  34.448  1.00  0.00    -0.315 N 
ATOM     10  H3  UNL     1      44.348  22.166  34.210  1.00  0.00     0.170 HD
ATOM     11  H1  UNL     1      47.055  23.016  34.860  1.00  0.00     0.167 HD
BRANCH   9  12
HETATM   12  C7  UNL     1      45.202  20.941  35.498  1.00  0.00     0.137 A 
HETATM   13  N4  UNL     1      45.606  19.654  35.401  1.00  0.00    -0.306 N 
HETATM   14  C8  UNL     1      45.601  18.878  36.517  1.00  0.00     0.273 A 
ATOM     15  H4  UNL     1      45.909  19.272  34.506  1.00  0.00     0.170 HD
HETATM   16  O1  UNL     1      45.982  17.694  36.393  1.00  0.00    -0.266 OA
HETATM   17  C9  UNL     1      45.206  19.337  37.732  1.00  0.00     0.098 A 
HETATM   18  N11 UNL     1      44.808  20.634  37.782  1.00  0.00    -0.349 N 
HETATM   19  C16 UNL     1      44.796  21.451  36.693  1.00  0.00     0.074 A 
ATOM     20  H11 UNL     1      44.504  21.015  38.677  1.00  0.00     0.166 HD
BRANCH  17  21
HETATM   21  C10 UNL     1      45.167  18.654  38.850  1.00  0.00     0.015 C 
BRANCH  21  22
HETATM   22  C11 UNL     1      43.894  18.171  39.412  1.00  0.00     0.092 C 
BRANCH  22  23
HETATM   23  C12 UNL     1      43.738  16.712  39.099  1.00  0.00     0.079 A 
HETATM   24  C13 UNL     1      44.306  15.794  39.943  1.00  0.00     0.135 A 
HETATM   25  N5  UNL     1      44.173  14.493  39.667  1.00  0.00    -0.198 N 
HETATM   26  C14 UNL     1      43.491  14.067  38.577  1.00  0.00     0.701 A 
ATOM     27  H5  UNL     1      44.594  13.806  40.291  1.00  0.00     0.183 HD
HETATM   28  N9  UNL     1      42.957  15.014  37.789  1.00  0.00    -0.105 N 
HETATM   29  N10 UNL     1      43.060  16.313  38.016  1.00  0.00    -0.152 N 
ATOM     30  H9  UNL     1      42.439  14.713  36.964  1.00  0.00     0.208 HD
BRANCH  26  31
HETATM   31  N6  UNL     1      43.387  12.806  38.341  1.00  0.00    -0.162 N 
HETATM   32  C15 UNL     1      44.182  11.887  39.061  1.00  0.00     0.200 C 
HETATM   33  N7  UNL     1      45.296  11.394  38.647  1.00  0.00    -0.373 N 
HETATM   34  N8  UNL     1      43.738  11.457  40.349  1.00  0.00    -0.063 NA
ATOM     35  H72 UNL     1      45.613  11.701  37.728  1.00  0.00     0.158 HD
ATOM     36  H71 UNL     1      45.870  10.731  39.167  1.00  0.00     0.158 HD
ATOM     37  H6  UNL     1      42.731  12.470  37.635  1.00  0.00     0.187 HD
ENDBRANCH  26  31
BRANCH  29  38
HETATM   38  O2  UNL     1      42.557  17.172  37.274  1.00  0.00    -0.267 OA
ATOM     39  H2  UNL     1      42.958  17.337  36.429  1.00  0.00     0.247 HD
ENDBRANCH  29  38
ENDBRANCH  22  23
ENDBRANCH  21  22
ENDBRANCH  17  21
BRANCH  19  40
HETATM   40  C17 UNL     1      44.386  22.674  36.869  1.00  0.00     0.015 C 
BRANCH  40  41
HETATM   41  C18 UNL     1      44.953  23.613  37.815  1.00  0.00     0.129 C 
BRANCH  41  42
HETATM   42  C19 UNL     1      46.006  24.429  37.079  1.00  0.00     0.234 C 
HETATM   43  N12 UNL     1      46.998  25.041  37.852  1.00  0.00    -0.062 NA
HETATM   44  O3  UNL     1      45.909  24.493  35.834  1.00  0.00    -0.277 OA
ENDBRANCH  41  42
ENDBRANCH  40  41
ENDBRANCH  19  40
ENDBRANCH   9  12
ENDBRANCH   5   6
ENDBRANCH   4   5
ENDBRANCH   3   4
TORSDOF 12
ENDMDL
MODEL 2
REMARK VINA RESULT: -8.119301346      1.439      1.581
REMARK  12 active torsions:
REMARK  status: ('A' for Active; 'I' for Inactive)
REMARK    1  A    between atoms: C3_3  and  C4_4 
REMARK    2  A    between atoms: C4_4  and  C5_5 
REMARK    3  A    between atoms: C5_5  and  N1_6 
REMARK       I    between atoms: C6_8  and  N3_10 
REMARK    4  A    between atoms: N3_10  and  C7_12 
REMARK    5  A    between atoms: C9_17  and  C10_18 
REMARK    6  A    between atoms: C10_18  and  C11_19 
REMARK    7  A    between atoms: C11_19  and  C12_20 
REMARK    8  A    between atoms: C14_24  and  N6_25 
REMARK       I    between atoms: N6_25  and  C15_27 
REMARK    9  A    between atoms: N10_34  and  O2_35 
REMARK   10  A    between atoms: C16_39  and  C17_40 
REMARK   11  A    between atoms: C17_40  and  C18_41 
REMARK   12  A    between atoms: C18_41  and  C19_42 
ROOT
HETATM    1  C1  UNL     1      48.305  21.772  37.405  1.00  0.00     0.012 C 
HETATM    2  C2  UNL     1      48.680  22.911  37.285  1.00  0.00    -0.117 C 
HETATM    3  C3  UNL     1      49.145  24.296  37.116  1.00  0.00     0.098 C 
ENDROOT
BRANCH   3   4
HETATM    4  C4  UNL     1      49.142  24.642  35.633  1.00  0.00     0.056 C 
BRANCH   4   5
HETATM    5  C5  UNL     1      47.887  25.405  35.295  1.00  0.00     0.064 C 
BRANCH   5   6
HETATM    6  N1  UNL     1      46.773  24.558  35.228  1.00  0.00    -0.344 N 
HETATM    7  C6  UNL     1      46.281  23.798  34.376  1.00  0.00     0.193 C 
HETATM    8  N2  UNL     1      46.760  23.527  33.050  1.00  0.00    -0.063 NA
HETATM    9  N3  UNL     1      45.088  23.083  34.718  1.00  0.00    -0.315 N 
ATOM     10  H3  UNL     1      44.204  23.427  34.342  1.00  0.00     0.170 HD
ATOM     11  H1  UNL     1      46.232  24.567  36.093  1.00  0.00     0.167 HD
BRANCH   9  12
HETATM   12  C7  UNL     1      45.055  22.044  35.463  1.00  0.00     0.137 A 
HETATM   13  N4  UNL     1      45.434  20.856  34.941  1.00  0.00    -0.306 N 
HETATM   14  C8  UNL     1      45.399  19.751  35.732  1.00  0.00     0.273 A 
ATOM     15  H4  UNL     1      45.741  20.790  33.971  1.00  0.00     0.170 HD
HETATM   16  O1  UNL     1      45.758  18.668  35.220  1.00  0.00    -0.266 OA
HETATM   17  C9  UNL     1      44.997  19.784  37.028  1.00  0.00     0.098 A 
HETATM   18  N11 UNL     1      44.624  20.998  37.508  1.00  0.00    -0.349 N 
HETATM   19  C16 UNL     1      44.643  22.133  36.757  1.00  0.00     0.074 A 
ATOM     20  H11 UNL     1      44.315  21.063  38.477  1.00  0.00     0.166 HD
BRANCH  17  21
HETATM   21  C10 UNL     1      44.928  18.766  37.852  1.00  0.00     0.015 C 
BRANCH  21  22
HETATM   22  C11 UNL     1      43.657  18.367  38.477  1.00  0.00     0.092 C 
BRANCH  22  23
HETATM   23  C12 UNL     1      43.510  16.876  38.389  1.00  0.00     0.079 A 
HETATM   24  C13 UNL     1      44.580  16.134  37.964  1.00  0.00     0.135 A 
HETATM   25  N5  UNL     1      44.453  14.806  37.881  1.00  0.00    -0.198 N 
HETATM   26  C14 UNL     1      43.296  14.184  38.208  1.00  0.00     0.701 A 
ATOM     27  H5  UNL     1      45.246  14.248  37.565  1.00  0.00     0.183 HD
HETATM   28  N9  UNL     1      42.284  14.965  38.618  1.00  0.00    -0.105 N 
HETATM   29  N10 UNL     1      42.356  16.282  38.717  1.00  0.00    -0.152 N 
ATOM     30  H9  UNL     1      41.404  14.515  38.870  1.00  0.00     0.208 HD
BRANCH  26  31
HETATM   31  N6  UNL     1      43.209  12.903  38.112  1.00  0.00    -0.162 N 
HETATM   32  C15 UNL     1      44.081  12.081  38.859  1.00  0.00     0.200 C 
HETATM   33  N7  UNL     1      45.174  11.569  38.412  1.00  0.00    -0.373 N 
HETATM   34  N8  UNL     1      43.748  11.779  40.215  1.00  0.00    -0.063 NA
ATOM     35  H72 UNL     1      45.412  11.785  37.444  1.00  0.00     0.158 HD
ATOM     36  H71 UNL     1      45.804  10.975  38.951  1.00  0.00     0.158 HD
ATOM     37  H6  UNL     1      42.511  12.483  37.497  1.00  0.00     0.187 HD
ENDBRANCH  26  31
BRANCH  29  38
HETATM   38  O2  UNL     1      41.407  16.986  39.100  1.00  0.00    -0.267 OA
ATOM     39  H2  UNL     1      40.535  16.612  39.108  1.00  0.00     0.247 HD
ENDBRANCH  29  38
ENDBRANCH  22  23
ENDBRANCH  21  22
ENDBRANCH  17  21
BRANCH  19  40
HETATM   40  C17 UNL     1      44.255  23.235  37.331  1.00  0.00     0.015 C 
BRANCH  40  41
HETATM   41  C18 UNL     1      45.044  24.007  38.268  1.00  0.00     0.129 C 
BRANCH  41  42
HETATM   42  C19 UNL     1      44.633  25.466  38.124  1.00  0.00     0.234 C 
HETATM   43  N12 UNL     1      44.326  26.164  39.297  1.00  0.00    -0.062 NA
HETATM   44  O3  UNL     1      44.600  25.936  36.966  1.00  0.00    -0.277 OA
ENDBRANCH  41  42
ENDBRANCH  40  41
ENDBRANCH  19  40
ENDBRANCH   9  12
ENDBRANCH   5   6
ENDBRANCH   4   5
ENDBRANCH   3   4
TORSDOF 12
ENDMDL
MODEL 3
REMARK VINA RESULT: -7.952452984      1.402      1.875
REMARK  12 active torsions:
REMARK  status: ('A' for Active; 'I' for Inactive)
REMARK    1  A    between atoms: C3_3  and  C4_4 
REMARK    2  A    between atoms: C4_4  and  C5_5 
REMARK    3  A    between atoms: C5_5  and  N1_6 
REMARK       I    between atoms: C6_8  and  N3_10 
REMARK    4  A    between atoms: N3_10  and  C7_12 
REMARK    5  A    between atoms: C9_17  and  C10_18 
REMARK    6  A    between atoms: C10_18  and  C11_19 
REMARK    7  A    between atoms: C11_19  and  C12_20 
REMARK    8  A    between atoms: C14_24  and  N6_25 
REMARK       I    between atoms: N6_25  and  C15_27 
REMARK    9  A    between atoms: N10_34  and  O2_35 
REMARK   10  A    between atoms: C16_39  and  C17_40 
REMARK   11  A    between atoms: C17_40  and  C18_41 
REMARK   12  A    between atoms: C18_41  and  C19_42 
ROOT
HETATM    1  C1  UNL     1      49.880  22.160  30.852  1.00  0.00     0.012 C 
HETATM    2  C2  UNL     1      49.761  21.943  32.032  1.00  0.00    -0.117 C 
HETATM    3  C3  UNL     1      49.629  21.701  33.476  1.00  0.00     0.098 C 
ENDROOT
BRANCH   3   4
HETATM    4  C4  UNL     1      49.800  23.019  34.217  1.00  0.00     0.056 C 
BRANCH   4   5
HETATM    5  C5  UNL     1      48.733  23.988  33.778  1.00  0.00     0.064 C 
BRANCH   5   6
HETATM    6  N1  UNL     1      47.476  23.630  34.282  1.00  0.00    -0.344 N 
HETATM    7  C6  UNL     1      46.417  23.188  33.803  1.00  0.00     0.193 C 
HETATM    8  N2  UNL     1      46.128  22.875  32.432  1.00  0.00    -0.063 NA
HETATM    9  N3  UNL     1      45.322  22.945  34.695  1.00  0.00    -0.315 N 
ATOM     10  H3  UNL     1      44.564  23.626  34.711  1.00  0.00     0.170 HD
ATOM     11  H1  UNL     1      47.414  23.765  35.291  1.00  0.00     0.167 HD
BRANCH   9  12
HETATM   12  C7  UNL     1      45.232  21.933  35.471  1.00  0.00     0.137 A 
HETATM   13  N4  UNL     1      45.556  20.711  34.991  1.00  0.00    -0.306 N 
HETATM   14  C8  UNL     1      45.460  19.635  35.816  1.00  0.00     0.273 A 
ATOM     15  H4  UNL     1      45.866  20.599  34.027  1.00  0.00     0.170 HD
HETATM   16  O1  UNL     1      45.768  18.520  35.341  1.00  0.00    -0.266 OA
HETATM   17  C9  UNL     1      45.050  19.730  37.107  1.00  0.00     0.098 A 
HETATM   18  N11 UNL     1      44.735  20.976  37.544  1.00  0.00    -0.349 N 
HETATM   19  C16 UNL     1      44.816  22.084  36.758  1.00  0.00     0.074 A 
ATOM     20  H11 UNL     1      44.422  21.087  38.509  1.00  0.00     0.166 HD
BRANCH  17  21
HETATM   21  C10 UNL     1      44.925  18.743  37.961  1.00  0.00     0.015 C 
BRANCH  21  22
HETATM   22  C11 UNL     1      43.611  18.353  38.498  1.00  0.00     0.092 C 
BRANCH  22  23
HETATM   23  C12 UNL     1      43.465  16.862  38.413  1.00  0.00     0.079 A 
HETATM   24  C13 UNL     1      44.543  16.118  38.011  1.00  0.00     0.135 A 
HETATM   25  N5  UNL     1      44.417  14.790  37.931  1.00  0.00    -0.198 N 
HETATM   26  C14 UNL     1      43.253  14.170  38.236  1.00  0.00     0.701 A 
ATOM     27  H5  UNL     1      45.216  14.231  37.633  1.00  0.00     0.183 HD
HETATM   28  N9  UNL     1      42.233  14.953  38.623  1.00  0.00    -0.105 N 
HETATM   29  N10 UNL     1      42.305  16.269  38.719  1.00  0.00    -0.152 N 
ATOM     30  H9  UNL     1      41.349  14.504  38.858  1.00  0.00     0.208 HD
BRANCH  26  31
HETATM   31  N6  UNL     1      43.168  12.888  38.142  1.00  0.00    -0.162 N 
HETATM   32  C15 UNL     1      44.060  12.069  38.868  1.00  0.00     0.200 C 
HETATM   33  N7  UNL     1      45.144  11.559  38.395  1.00  0.00    -0.373 N 
HETATM   34  N8  UNL     1      43.760  11.766  40.232  1.00  0.00    -0.063 NA
ATOM     35  H72 UNL     1      45.358  11.776  37.422  1.00  0.00     0.158 HD
ATOM     36  H71 UNL     1      45.788  10.968  38.920  1.00  0.00     0.158 HD
ATOM     37  H6  UNL     1      42.457  12.466  37.544  1.00  0.00     0.187 HD
ENDBRANCH  26  31
BRANCH  29  38
HETATM   38  O2  UNL     1      41.349  16.976  39.079  1.00  0.00    -0.267 OA
ATOM     39  H2  UNL     1      40.864  16.726  39.857  1.00  0.00     0.247 HD
ENDBRANCH  29  38
ENDBRANCH  22  23
ENDBRANCH  21  22
ENDBRANCH  17  21
BRANCH  19  40
HETATM   40  C17 UNL     1      44.479  23.221  37.294  1.00  0.00     0.015 C 
BRANCH  40  41
HETATM   41  C18 UNL     1      45.196  23.880  38.365  1.00  0.00     0.129 C 
BRANCH  41  42
HETATM   42  C19 UNL     1      46.593  24.206  37.853  1.00  0.00     0.234 C 
HETATM   43  N12 UNL     1      46.695  25.160  36.835  1.00  0.00    -0.062 NA
HETATM   44  O3  UNL     1      47.548  23.597  38.380  1.00  0.00    -0.277 OA
ENDBRANCH  41  42
ENDBRANCH  40  41
ENDBRANCH  19  40
ENDBRANCH   9  12
ENDBRANCH   5   6
ENDBRANCH   4   5
ENDBRANCH   3   4
TORSDOF 12
ENDMDL
MODEL 4
REMARK VINA RESULT: -7.921168846      1.704      2.503
REMARK  12 active torsions:
REMARK  status: ('A' for Active; 'I' for Inactive)
REMARK    1  A    between atoms: C3_3  and  C4_4 
REMARK    2  A    between atoms: C4_4  and  C5_5 
REMARK    3  A    between atoms: C5_5  and  N1_6 
REMARK       I    between atoms: C6_8  and  N3_10 
REMARK    4  A    between atoms: N3_10  and  C7_12 
REMARK    5  A    between atoms: C9_17  and  C10_18 
REMARK    6  A    between atoms: C10_18  and  C11_19 
REMARK    7  A    between atoms: C11_19  and  C12_20 
REMARK    8  A    between atoms: C14_24  and  N6_25 
REMARK       I    between atoms: N6_25  and  C15_27 
REMARK    9  A    between atoms: N10_34  and  O2_35 
REMARK   10  A    between atoms: C16_39  and  C17_40 
REMARK   11  A    between atoms: C17_40  and  C18_41 
REMARK   12  A    between atoms: C18_41  and  C19_42 
ROOT
HETATM    1  C1  UNL     1      45.436  22.149  32.944  1.00  0.00     0.012 C 
HETATM    2  C2  UNL     1      46.512  21.998  32.420  1.00  0.00    -0.117 C 
HETATM    3  C3  UNL     1      47.831  21.801  31.802  1.00  0.00     0.098 C 
ENDROOT
BRANCH   3   4
HETATM    4  C4  UNL     1      48.490  20.576  32.419  1.00  0.00     0.056 C 
BRANCH   4   5
HETATM    5  C5  UNL     1      49.500  21.011  33.450  1.00  0.00     0.064 C 
BRANCH   5   6
HETATM    6  N1  UNL     1      48.996  20.879  34.750  1.00  0.00    -0.344 N 
HETATM    7  C6  UNL     1      48.597  21.656  35.635  1.00  0.00     0.193 C 
HETATM    8  N2  UNL     1      48.523  23.089  35.586  1.00  0.00    -0.063 NA
HETATM    9  N3  UNL     1      48.145  21.095  36.873  1.00  0.00    -0.315 N 
ATOM     10  H3  UNL     1      48.774  21.143  37.673  1.00  0.00     0.170 HD
ATOM     11  H1  UNL     1      48.944  19.904  35.045  1.00  0.00     0.167 HD
BRANCH   9  12
HETATM   12  C7  UNL     1      47.006  20.538  37.042  1.00  0.00     0.137 A 
HETATM   13  N4  UNL     1      46.861  19.236  36.709  1.00  0.00    -0.306 N 
HETATM   14  C8  UNL     1      45.651  18.643  36.888  1.00  0.00     0.273 A 
ATOM     15  H4  UNL     1      47.647  18.707  36.330  1.00  0.00     0.170 HD
HETATM   16  O1  UNL     1      45.552  17.437  36.572  1.00  0.00    -0.266 OA
HETATM   17  C9  UNL     1      44.574  19.302  37.387  1.00  0.00     0.098 A 
HETATM   18  N11 UNL     1      44.766  20.607  37.706  1.00  0.00    -0.349 N 
HETATM   19  C16 UNL     1      45.958  21.245  37.546  1.00  0.00     0.074 A 
ATOM     20  H11 UNL     1      43.980  21.136  38.083  1.00  0.00     0.166 HD
BRANCH  17  21
HETATM   21  C10 UNL     1      43.377  18.805  37.583  1.00  0.00     0.015 C 
BRANCH  21  22
HETATM   22  C11 UNL     1      43.000  18.190  38.866  1.00  0.00     0.092 C 
BRANCH  22  23
HETATM   23  C12 UNL     1      43.093  16.697  38.745  1.00  0.00     0.079 A 
HETATM   24  C13 UNL     1      42.123  16.034  38.039  1.00  0.00     0.135 A 
HETATM   25  N5  UNL     1      42.199  14.704  37.931  1.00  0.00    -0.198 N 
HETATM   26  C14 UNL     1      43.208  14.004  38.500  1.00  0.00     0.701 A 
ATOM     27  H5  UNL     1      41.481  14.205  37.407  1.00  0.00     0.183 HD
HETATM   28  N9  UNL     1      44.128  14.710  39.178  1.00  0.00    -0.105 N 
HETATM   29  N10 UNL     1      44.099  16.025  39.316  1.00  0.00    -0.152 N 
ATOM     30  H9  UNL     1      44.896  14.201  39.613  1.00  0.00     0.208 HD
BRANCH  26  31
HETATM   31  N6  UNL     1      43.246  12.723  38.378  1.00  0.00    -0.162 N 
HETATM   32  C15 UNL     1      44.108  11.963  39.200  1.00  0.00     0.200 C 
HETATM   33  N7  UNL     1      45.282  11.559  38.862  1.00  0.00    -0.373 N 
HETATM   34  N8  UNL     1      43.666  11.603  40.510  1.00  0.00    -0.063 NA
ATOM     35  H72 UNL     1      45.597  11.816  37.927  1.00  0.00     0.158 HD
ATOM     36  H71 UNL     1      45.904  11.010  39.455  1.00  0.00     0.158 HD
ATOM     37  H6  UNL     1      42.655  12.257  37.689  1.00  0.00     0.187 HD
ENDBRANCH  26  31
BRANCH  29  38
HETATM   38  O2  UNL     1      44.960  16.659  39.947  1.00  0.00    -0.267 OA
ATOM     39  H2  UNL     1      44.678  17.285  40.604  1.00  0.00     0.247 HD
ENDBRANCH  29  38
ENDBRANCH  22  23
ENDBRANCH  21  22
ENDBRANCH  17  21
BRANCH  19  40
HETATM   40  C17 UNL     1      46.012  22.501  37.883  1.00  0.00     0.015 C 
BRANCH  40  41
HETATM   41  C18 UNL     1      45.473  23.595  37.103  1.00  0.00     0.129 C 
BRANCH  41  42
HETATM   42  C19 UNL     1      44.525  24.378  38.001  1.00  0.00     0.234 C 
HETATM   43  N12 UNL     1      45.070  24.972  39.144  1.00  0.00    -0.062 NA
HETATM   44  O3  UNL     1      43.326  24.434  37.651  1.00  0.00    -0.277 OA
ENDBRANCH  41  42
ENDBRANCH  40  41
ENDBRANCH  19  40
ENDBRANCH   9  12
ENDBRANCH   5   6
ENDBRANCH   4   5
ENDBRANCH   3   4
TORSDOF 12
ENDMDL
MODEL 5
REMARK VINA RESULT: -7.903188449      1.167      2.120
REMARK  12 active torsions:
REMARK  status: ('A' for Active; 'I' for Inactive)
REMARK    1  A    between atoms: C3_3  and  C4_4 
REMARK    2  A    between atoms: C4_4  and  C5_5 
REMARK    3  A    between atoms: C5_5  and  N1_6 
REMARK       I    between atoms: C6_8  and  N3_10 
REMARK    4  A    between atoms: N3_10  and  C7_12 
REMARK    5  A    between atoms: C9_17  and  C10_18 
REMARK    6  A    between atoms: C10_18  and  C11_19 
REMARK    7  A    between atoms: C11_19  and  C12_20 
REMARK    8  A    between atoms: C14_24  and  N6_25 
REMARK       I    between atoms: N6_25  and  C15_27 
REMARK    9  A    between atoms: N10_34  and  O2_35 
REMARK   10  A    between atoms: C16_39  and  C17_40 
REMARK   11  A    between atoms: C17_40  and  C18_41 
REMARK   12  A    between atoms: C18_41  and  C19_42 
ROOT
HETATM    1  C1  UNL     1      45.653  24.103  29.737  1.00  0.00     0.012 C 
HETATM    2  C2  UNL     1      46.540  24.274  30.536  1.00  0.00    -0.117 C 
HETATM    3  C3  UNL     1      47.620  24.458  31.516  1.00  0.00     0.098 C 
ENDROOT
BRANCH   3   4
HETATM    4  C4  UNL     1      48.347  23.133  31.705  1.00  0.00     0.056 C 
BRANCH   4   5
HETATM    5  C5  UNL     1      48.515  22.855  33.177  1.00  0.00     0.064 C 
BRANCH   5   6
HETATM    6  N1  UNL     1      47.295  22.520  33.778  1.00  0.00    -0.344 N 
HETATM    7  C6  UNL     1      46.304  21.839  33.464  1.00  0.00     0.193 C 
HETATM    8  N2  UNL     1      46.083  21.105  32.250  1.00  0.00    -0.063 NA
HETATM    9  N3  UNL     1      45.224  21.746  34.401  1.00  0.00    -0.315 N 
ATOM     10  H3  UNL     1      44.393  22.310  34.225  1.00  0.00     0.170 HD
ATOM     11  H1  UNL     1      47.195  22.939  34.703  1.00  0.00     0.167 HD
BRANCH   9  12
HETATM   12  C7  UNL     1      45.231  21.004  35.442  1.00  0.00     0.137 A 
HETATM   13  N4  UNL     1      45.693  19.737  35.338  1.00  0.00    -0.306 N 
HETATM   14  C8  UNL     1      45.701  18.948  36.445  1.00  0.00     0.273 A 
ATOM     15  H4  UNL     1      46.030  19.381  34.444  1.00  0.00     0.170 HD
HETATM   16  O1  UNL     1      46.136  17.783  36.314  1.00  0.00    -0.266 OA
HETATM   17  C9  UNL     1      45.262  19.374  37.657  1.00  0.00     0.098 A 
HETATM   18  N11 UNL     1      44.806  20.651  37.713  1.00  0.00    -0.349 N 
HETATM   19  C16 UNL     1      44.779  21.481  36.635  1.00  0.00     0.074 A 
ATOM     20  H11 UNL     1      44.467  21.007  38.607  1.00  0.00     0.166 HD
BRANCH  17  21
HETATM   21  C10 UNL     1      45.230  18.675  38.766  1.00  0.00     0.015 C 
BRANCH  21  22
HETATM   22  C11 UNL     1      43.958  18.228  39.356  1.00  0.00     0.092 C 
BRANCH  22  23
HETATM   23  C12 UNL     1      43.766  16.768  39.069  1.00  0.00     0.079 A 
HETATM   24  C13 UNL     1      44.276  15.851  39.952  1.00  0.00     0.135 A 
HETATM   25  N5  UNL     1      44.110  14.549  39.699  1.00  0.00    -0.198 N 
HETATM   26  C14 UNL     1      43.453  14.121  38.596  1.00  0.00     0.701 A 
ATOM     27  H5  UNL     1      44.488  13.863  40.352  1.00  0.00     0.183 HD
HETATM   28  N9  UNL     1      42.976  15.066  37.770  1.00  0.00    -0.105 N 
HETATM   29  N10 UNL     1      43.113  16.365  37.972  1.00  0.00    -0.152 N 
ATOM     30  H9  UNL     1      42.477  14.763  36.934  1.00  0.00     0.208 HD
BRANCH  26  31
HETATM   31  N6  UNL     1      43.317  12.858  38.383  1.00  0.00    -0.162 N 
HETATM   32  C15 UNL     1      44.169  11.939  39.034  1.00  0.00     0.200 C 
HETATM   33  N7  UNL     1      45.235  11.432  38.521  1.00  0.00    -0.373 N 
HETATM   34  N8  UNL     1      43.845  11.524  40.362  1.00  0.00    -0.063 NA
ATOM     35  H72 UNL     1      45.466  11.728  37.573  1.00  0.00     0.158 HD
ATOM     36  H71 UNL     1      45.850  10.768  38.991  1.00  0.00     0.158 HD
ATOM     37  H6  UNL     1      42.594  12.523  37.745  1.00  0.00     0.187 HD
ENDBRANCH  26  31
BRANCH  29  38
HETATM   38  O2  UNL     1      42.664  17.224  37.195  1.00  0.00    -0.267 OA
ATOM     39  H2  UNL     1      41.723  17.300  37.093  1.00  0.00     0.247 HD
ENDBRANCH  29  38
ENDBRANCH  22  23
ENDBRANCH  21  22
ENDBRANCH  17  21
BRANCH  19  40
HETATM   40  C17 UNL     1      44.313  22.681  36.817  1.00  0.00     0.015 C 
BRANCH  40  41
HETATM   41  C18 UNL     1      44.889  23.672  37.702  1.00  0.00     0.129 C 
BRANCH  41  42
HETATM   42  C19 UNL     1      46.299  23.967  37.208  1.00  0.00     0.234 C 
HETATM   43  N12 UNL     1      47.347  23.784  38.116  1.00  0.00    -0.062 NA
HETATM   44  O3  UNL     1      46.419  24.351  36.025  1.00  0.00    -0.277 OA
ENDBRANCH  41  42
ENDBRANCH  40  41
ENDBRANCH  19  40
ENDBRANCH   9  12
ENDBRANCH   5   6
ENDBRANCH   4   5
ENDBRANCH   3   4
TORSDOF 12
ENDMDL
