MODEL 1
REMARK VINA RESULT: -7.564446720      0.000      0.000
REMARK  11 active torsions:
REMARK  status: ('A' for Active; 'I' for Inactive)
REMARK    1  A    between atoms: N1_1  and  C1_4 
REMARK    2  A    between atoms: C3_8  and  C4_9 
REMARK    3  A    between atoms: C4_9  and  C5_10 
REMARK    4  A    between atoms: C5_10  and  N3_11 
REMARK       I    between atoms: N3_11  and  C6_12 
REMARK    5  A    between atoms: C7_17  and  C8_18 
REMARK    6  A    between atoms: C8_18  and  N6_19 
REMARK    7  A    between atoms: N6_19  and  C9_20 
REMARK    8  A    between atoms: N6_19  and  C17_28 
REMARK    9  A    between atoms: C9_20  and  C10_21 
REMARK   10  A    between atoms: C10_21  and  C11_22 
REMARK   11  A    between atoms: C17_28  and  C18_29 
ROOT
HETATM    1  C8  UNL     1     -10.661  45.113  56.333  1.00  0.00     0.123 C 
ENDROOT
BRANCH   1   2
HETATM    2  C7  UNL     1     -10.292  43.932  55.544  1.00  0.00     0.092 A 
HETATM    3  C1  UNL     1     -11.444  43.307  54.961  1.00  0.00     0.127 A 
HETATM    4  N2  UNL     1     -11.340  42.134  54.276  1.00  0.00    -0.349 N 
HETATM    5  C2  UNL     1     -10.145  41.584  54.163  1.00  0.00     0.115 A 
ATOM      6  H2  UNL     1     -12.161  41.693  53.863  1.00  0.00     0.167 HD
HETATM    7  C3  UNL     1      -9.062  42.208  54.739  1.00  0.00     0.031 A 
HETATM    8  N5  UNL     1      -9.126  43.363  55.417  1.00  0.00    -0.354 N 
ATOM      9  H5  UNL     1      -8.289  43.783  55.820  1.00  0.00     0.166 HD
BRANCH   3  10
HETATM   10  N1  UNL     1     -12.554  43.792  55.146  1.00  0.00    -0.384 N 
ATOM     11  H12 UNL     1     -12.894  43.923  56.099  1.00  0.00     0.157 HD
ATOM     12  H11 UNL     1     -13.148  43.996  54.342  1.00  0.00     0.157 HD
ENDBRANCH   3  10
BRANCH   7  13
HETATM   13  C4  UNL     1      -7.777  41.331  54.698  1.00  0.00     0.118 C 
BRANCH  13  14
HETATM   14  C5  UNL     1      -6.799  42.249  55.346  1.00  0.00     0.166 C 
BRANCH  14  15
HETATM   15  N3  UNL     1      -6.212  43.389  54.869  1.00  0.00    -0.371 NA
HETATM   16  C6  UNL     1      -5.644  44.500  54.407  1.00  0.00     0.405 C 
HETATM   17  N4  UNL     1      -4.666  44.496  53.274  1.00  0.00    -0.025 NA
HETATM   18  O1  UNL     1      -5.796  45.712  54.815  1.00  0.00    -0.234 OA
ENDBRANCH  14  15
ENDBRANCH  13  14
ENDBRANCH   7  13
ENDBRANCH   1   2
BRANCH   1  19
HETATM   19  N6  UNL     1     -10.188  46.384  56.045  1.00  0.00    -0.363 N 
BRANCH  19  20
HETATM   20  C9  UNL     1     -11.243  47.355  56.245  1.00  0.00     0.132 C 
BRANCH  20  21
HETATM   21  C10 UNL     1     -11.990  47.253  57.559  1.00  0.00     0.058 C 
BRANCH  21  22
HETATM   22  C11 UNL     1     -11.257  48.125  58.545  1.00  0.00    -0.057 A 
HETATM   23  C12 UNL     1     -11.172  49.478  58.411  1.00  0.00     0.007 A 
HETATM   24  C13 UNL     1     -10.457  50.257  59.332  1.00  0.00     0.001 A 
HETATM   25  C14 UNL     1      -9.858  49.579  60.368  1.00  0.00     0.000 A 
HETATM   26  C15 UNL     1      -9.946  48.231  60.507  1.00  0.00     0.001 A 
HETATM   27  C16 UNL     1     -10.643  47.446  59.608  1.00  0.00     0.007 A 
ENDBRANCH  21  22
ENDBRANCH  20  21
ENDBRANCH  19  20
BRANCH  19  28
HETATM   28  C17 UNL     1      -8.924  46.785  55.708  1.00  0.00     0.103 C 
BRANCH  28  29
HETATM   29  C18 UNL     1      -8.344  48.000  56.246  1.00  0.00    -0.005 A 
HETATM   30  C19 UNL     1      -7.685  48.019  57.447  1.00  0.00     0.015 A 
HETATM   31  C20 UNL     1      -7.160  49.212  57.964  1.00  0.00     0.018 A 
HETATM   32  C21 UNL     1      -7.293  50.391  57.275  1.00  0.00     0.087 A 
HETATM   33  N7  UNL     1      -7.944  50.365  56.080  1.00  0.00    -0.374 N 
HETATM   34  C22 UNL     1      -8.453  49.203  55.590  1.00  0.00     0.100 A 
ATOM     35  H7  UNL     1      -8.051  51.227  55.546  1.00  0.00     0.164 HD
ENDBRANCH  28  29
ENDBRANCH  19  28
ENDBRANCH   1  19
TORSDOF 11
ENDMDL
MODEL 2
REMARK VINA RESULT: -7.516238922      2.099      4.793
REMARK  11 active torsions:
REMARK  status: ('A' for Active; 'I' for Inactive)
REMARK    1  A    between atoms: N1_1  and  C1_4 
REMARK    2  A    between atoms: C3_8  and  C4_9 
REMARK    3  A    between atoms: C4_9  and  C5_10 
REMARK    4  A    between atoms: C5_10  and  N3_11 
REMARK       I    between atoms: N3_11  and  C6_12 
REMARK    5  A    between atoms: C7_17  and  C8_18 
REMARK    6  A    between atoms: C8_18  and  N6_19 
REMARK    7  A    between atoms: N6_19  and  C9_20 
REMARK    8  A    between atoms: N6_19  and  C17_28 
REMARK    9  A    between atoms: C9_20  and  C10_21 
REMARK   10  A    between atoms: C10_21  and  C11_22 
REMARK   11  A    between atoms: C17_28  and  C18_29 
ROOT
HETATM    1  C8  UNL     1      -7.095  45.653  55.149  1.00  0.00     0.123 C 
ENDROOT
BRANCH   1   2
HETATM    2  C7  UNL     1      -7.643  44.298  55.019  1.00  0.00     0.092 A 
HETATM    3  C1  UNL     1      -6.667  43.302  55.359  1.00  0.00     0.127 A 
HETATM    4  N2  UNL     1      -6.932  41.974  55.205  1.00  0.00    -0.349 N 
HETATM    5  C2  UNL     1      -8.115  41.626  54.733  1.00  0.00     0.115 A 
ATOM      6  H2  UNL     1      -6.236  41.270  55.448  1.00  0.00     0.167 HD
HETATM    7  C3  UNL     1      -9.024  42.608  54.413  1.00  0.00     0.031 A 
HETATM    8  N5  UNL     1      -8.800  43.922  54.553  1.00  0.00    -0.354 N 
ATOM      9  H5  UNL     1      -9.514  44.607  54.303  1.00  0.00     0.166 HD
BRANCH   3  10
HETATM   10  N1  UNL     1      -5.548  43.649  55.718  1.00  0.00    -0.384 N 
ATOM     11  H12 UNL     1      -5.413  44.019  56.659  1.00  0.00     0.157 HD
ATOM     12  H11 UNL     1      -4.780  43.622  55.047  1.00  0.00     0.157 HD
ENDBRANCH   3  10
BRANCH   7  13
HETATM   13  C4  UNL     1     -10.275  42.045  53.677  1.00  0.00     0.118 C 
BRANCH  13  14
HETATM   14  C5  UNL     1     -11.330  42.305  54.697  1.00  0.00     0.166 C 
BRANCH  14  15
HETATM   15  N3  UNL     1     -11.720  43.480  55.281  1.00  0.00    -0.371 NA
HETATM   16  C6  UNL     1     -12.097  44.624  55.845  1.00  0.00     0.405 C 
HETATM   17  N4  UNL     1     -12.251  44.783  57.324  1.00  0.00    -0.025 NA
HETATM   18  O1  UNL     1     -12.397  45.740  55.277  1.00  0.00    -0.234 OA
ENDBRANCH  14  15
ENDBRANCH  13  14
ENDBRANCH   7  13
ENDBRANCH   1   2
BRANCH   1  19
HETATM   19  N6  UNL     1      -7.825  46.709  55.672  1.00  0.00    -0.363 N 
BRANCH  19  20
HETATM   20  C9  UNL     1      -7.068  47.936  55.547  1.00  0.00     0.132 C 
BRANCH  20  21
HETATM   21  C10 UNL     1      -7.875  49.176  55.220  1.00  0.00     0.058 C 
BRANCH  21  22
HETATM   22  C11 UNL     1      -7.152  50.342  55.842  1.00  0.00    -0.057 A 
HETATM   23  C12 UNL     1      -6.358  51.185  55.125  1.00  0.00     0.007 A 
HETATM   24  C13 UNL     1      -5.676  52.244  55.742  1.00  0.00     0.001 A 
HETATM   25  C14 UNL     1      -5.861  52.380  57.097  1.00  0.00     0.000 A 
HETATM   26  C15 UNL     1      -6.655  51.544  57.815  1.00  0.00     0.001 A 
HETATM   27  C16 UNL     1      -7.333  50.493  57.225  1.00  0.00     0.007 A 
ENDBRANCH  21  22
ENDBRANCH  20  21
ENDBRANCH  19  20
BRANCH  19  28
HETATM   28  C17 UNL     1      -9.100  46.722  56.169  1.00  0.00     0.103 C 
BRANCH  28  29
HETATM   29  C18 UNL     1      -9.360  46.873  57.588  1.00  0.00    -0.005 A 
HETATM   30  C19 UNL     1     -10.118  47.902  58.081  1.00  0.00     0.015 A 
HETATM   31  C20 UNL     1     -10.330  48.048  59.459  1.00  0.00     0.018 A 
HETATM   32  C21 UNL     1      -9.782  47.157  60.349  1.00  0.00     0.087 A 
HETATM   33  N7  UNL     1      -9.034  46.135  59.853  1.00  0.00    -0.374 N 
HETATM   34  C22 UNL     1      -8.831  46.006  58.514  1.00  0.00     0.100 A 
ATOM     35  H7  UNL     1      -8.620  45.457  60.493  1.00  0.00     0.164 HD
ENDBRANCH  28  29
ENDBRANCH  19  28
ENDBRANCH   1  19
TORSDOF 11
ENDMDL
MODEL 3
REMARK VINA RESULT: -7.433039623      1.714      2.399
REMARK  11 active torsions:
REMARK  status: ('A' for Active; 'I' for Inactive)
REMARK    1  A    between atoms: N1_1  and  C1_4 
REMARK    2  A    between atoms: C3_8  and  C4_9 
REMARK    3  A    between atoms: C4_9  and  C5_10 
REMARK    4  A    between atoms: C5_10  and  N3_11 
REMARK       I    between atoms: N3_11  and  C6_12 
REMARK    5  A    between atoms: C7_17  and  C8_18 
REMARK    6  A    between atoms: C8_18  and  N6_19 
REMARK    7  A    between atoms: N6_19  and  C9_20 
REMARK    8  A    between atoms: N6_19  and  C17_28 
REMARK    9  A    between atoms: C9_20  and  C10_21 
REMARK   10  A    between atoms: C10_21  and  C11_22 
REMARK   11  A    between atoms: C17_28  and  C18_29 
ROOT
HETATM    1  C8  UNL     1     -10.628  45.540  55.544  1.00  0.00     0.123 C 
ENDROOT
BRANCH   1   2
HETATM    2  C7  UNL     1     -10.331  44.172  55.101  1.00  0.00     0.092 A 
HETATM    3  C1  UNL     1     -11.529  43.398  54.944  1.00  0.00     0.127 A 
HETATM    4  N2  UNL     1     -11.475  42.071  54.643  1.00  0.00    -0.349 N 
HETATM    5  C2  UNL     1     -10.288  41.512  54.498  1.00  0.00     0.115 A 
ATOM      6  H2  UNL     1     -12.329  41.524  54.532  1.00  0.00     0.167 HD
HETATM    7  C3  UNL     1      -9.160  42.284  54.661  1.00  0.00     0.031 A 
HETATM    8  N5  UNL     1      -9.173  43.591  54.954  1.00  0.00    -0.354 N 
ATOM      9  H5  UNL     1      -8.305  44.115  55.060  1.00  0.00     0.166 HD
BRANCH   3  10
HETATM   10  N1  UNL     1     -12.617  43.917  55.162  1.00  0.00    -0.384 N 
ATOM     11  H12 UNL     1     -13.406  43.334  55.443  1.00  0.00     0.157 HD
ATOM     12  H11 UNL     1     -12.733  44.916  54.995  1.00  0.00     0.157 HD
ENDBRANCH   3  10
BRANCH   7  13
HETATM   13  C4  UNL     1      -7.854  41.436  54.668  1.00  0.00     0.118 C 
BRANCH  13  14
HETATM   14  C5  UNL     1      -6.922  42.378  55.349  1.00  0.00     0.166 C 
BRANCH  14  15
HETATM   15  N3  UNL     1      -6.261  43.471  54.859  1.00  0.00    -0.371 NA
HETATM   16  C6  UNL     1      -5.621  44.537  54.385  1.00  0.00     0.405 C 
HETATM   17  N4  UNL     1      -4.643  44.455  53.256  1.00  0.00    -0.025 NA
HETATM   18  O1  UNL     1      -5.695  45.761  54.778  1.00  0.00    -0.234 OA
ENDBRANCH  14  15
ENDBRANCH  13  14
ENDBRANCH   7  13
ENDBRANCH   1   2
BRANCH   1  19
HETATM   19  N6  UNL     1      -9.825  46.228  56.439  1.00  0.00    -0.363 N 
BRANCH  19  20
HETATM   20  C9  UNL     1     -10.529  46.404  57.692  1.00  0.00     0.132 C 
BRANCH  20  21
HETATM   21  C10 UNL     1     -10.328  45.306  58.717  1.00  0.00     0.058 C 
BRANCH  21  22
HETATM   22  C11 UNL     1     -11.693  44.956  59.251  1.00  0.00    -0.057 A 
HETATM   23  C12 UNL     1     -12.835  45.141  58.533  1.00  0.00     0.007 A 
HETATM   24  C13 UNL     1     -14.093  44.831  59.072  1.00  0.00     0.001 A 
HETATM   25  C14 UNL     1     -14.099  44.331  60.353  1.00  0.00     0.000 A 
HETATM   26  C15 UNL     1     -12.962  44.140  61.070  1.00  0.00     0.001 A 
HETATM   27  C16 UNL     1     -11.714  44.443  60.557  1.00  0.00     0.007 A 
ENDBRANCH  21  22
ENDBRANCH  20  21
ENDBRANCH  19  20
BRANCH  19  28
HETATM   28  C17 UNL     1      -8.529  46.644  56.301  1.00  0.00     0.103 C 
BRANCH  28  29
HETATM   29  C18 UNL     1      -8.131  48.004  56.613  1.00  0.00    -0.005 A 
HETATM   30  C19 UNL     1      -7.448  48.315  57.760  1.00  0.00     0.015 A 
HETATM   31  C20 UNL     1      -7.102  49.641  58.057  1.00  0.00     0.018 A 
HETATM   32  C21 UNL     1      -7.438  50.660  57.201  1.00  0.00     0.087 A 
HETATM   33  N7  UNL     1      -8.112  50.344  56.062  1.00  0.00    -0.374 N 
HETATM   34  C22 UNL     1      -8.447  49.055  55.786  1.00  0.00     0.100 A 
ATOM     35  H7  UNL     1      -8.369  51.083  55.407  1.00  0.00     0.164 HD
ENDBRANCH  28  29
ENDBRANCH  19  28
ENDBRANCH   1  19
TORSDOF 11
ENDMDL
MODEL 4
REMARK VINA RESULT: -7.400743717      1.818      2.776
REMARK  11 active torsions:
REMARK  status: ('A' for Active; 'I' for Inactive)
REMARK    1  A    between atoms: N1_1  and  C1_4 
REMARK    2  A    between atoms: C3_8  and  C4_9 
REMARK    3  A    between atoms: C4_9  and  C5_10 
REMARK    4  A    between atoms: C5_10  and  N3_11 
REMARK       I    between atoms: N3_11  and  C6_12 
REMARK    5  A    between atoms: C7_17  and  C8_18 
REMARK    6  A    between atoms: C8_18  and  N6_19 
REMARK    7  A    between atoms: N6_19  and  C9_20 
REMARK    8  A    between atoms: N6_19  and  C17_28 
REMARK    9  A    between atoms: C9_20  and  C10_21 
REMARK   10  A    between atoms: C10_21  and  C11_22 
REMARK   11  A    between atoms: C17_28  and  C18_29 
ROOT
HETATM    1  C8  UNL     1     -10.928  44.790  56.449  1.00  0.00     0.123 C 
ENDROOT
BRANCH   1   2
HETATM    2  C7  UNL     1     -10.429  43.704  55.598  1.00  0.00     0.092 A 
HETATM    3  C1  UNL     1     -11.494  43.073  54.872  1.00  0.00     0.127 A 
HETATM    4  N2  UNL     1     -11.267  41.971  54.104  1.00  0.00    -0.349 N 
HETATM    5  C2  UNL     1     -10.036  41.496  54.044  1.00  0.00     0.115 A 
ATOM      6  H2  UNL     1     -12.026  41.526  53.589  1.00  0.00     0.167 HD
HETATM    7  C3  UNL     1      -9.040  42.123  54.758  1.00  0.00     0.031 A 
HETATM    8  N5  UNL     1      -9.225  43.210  55.521  1.00  0.00    -0.354 N 
ATOM      9  H5  UNL     1      -8.448  43.636  56.026  1.00  0.00     0.166 HD
BRANCH   3  10
HETATM   10  N1  UNL     1     -12.641  43.481  55.005  1.00  0.00    -0.384 N 
ATOM     11  H12 UNL     1     -13.422  42.833  54.899  1.00  0.00     0.157 HD
ATOM     12  H11 UNL     1     -12.800  44.477  55.157  1.00  0.00     0.157 HD
ENDBRANCH   3  10
BRANCH   7  13
HETATM   13  C4  UNL     1      -7.707  41.321  54.749  1.00  0.00     0.118 C 
BRANCH  13  14
HETATM   14  C5  UNL     1      -6.794  42.305  55.396  1.00  0.00     0.166 C 
BRANCH  14  15
HETATM   15  N3  UNL     1      -6.263  43.469  54.908  1.00  0.00    -0.371 NA
HETATM   16  C6  UNL     1      -5.751  44.601  54.434  1.00  0.00     0.405 C 
HETATM   17  N4  UNL     1      -4.728  44.631  53.344  1.00  0.00    -0.025 NA
HETATM   18  O1  UNL     1      -6.002  45.811  54.798  1.00  0.00    -0.234 OA
ENDBRANCH  14  15
ENDBRANCH  13  14
ENDBRANCH   7  13
ENDBRANCH   1   2
BRANCH   1  19
HETATM   19  N6  UNL     1     -10.674  46.127  56.184  1.00  0.00    -0.363 N 
BRANCH  19  20
HETATM   20  C9  UNL     1     -11.820  46.926  56.561  1.00  0.00     0.132 C 
BRANCH  20  21
HETATM   21  C10 UNL     1     -12.959  46.953  55.562  1.00  0.00     0.058 C 
BRANCH  21  22
HETATM   22  C11 UNL     1     -14.227  47.143  56.353  1.00  0.00    -0.057 A 
HETATM   23  C12 UNL     1     -14.943  48.302  56.330  1.00  0.00     0.007 A 
HETATM   24  C13 UNL     1     -16.104  48.456  57.102  1.00  0.00     0.001 A 
HETATM   25  C14 UNL     1     -16.472  47.376  57.870  1.00  0.00     0.000 A 
HETATM   26  C15 UNL     1     -15.763  46.218  57.891  1.00  0.00     0.001 A 
HETATM   27  C16 UNL     1     -14.615  46.049  57.140  1.00  0.00     0.007 A 
ENDBRANCH  21  22
ENDBRANCH  20  21
ENDBRANCH  19  20
BRANCH  19  28
HETATM   28  C17 UNL     1      -9.529  46.719  55.726  1.00  0.00     0.103 C 
BRANCH  28  29
HETATM   29  C18 UNL     1      -8.807  47.693  56.522  1.00  0.00    -0.005 A 
HETATM   30  C19 UNL     1      -8.549  48.958  56.063  1.00  0.00     0.015 A 
HETATM   31  C20 UNL     1      -7.821  49.873  56.837  1.00  0.00     0.018 A 
HETATM   32  C21 UNL     1      -7.350  49.521  58.078  1.00  0.00     0.087 A 
HETATM   33  N7  UNL     1      -7.613  48.265  58.530  1.00  0.00    -0.374 N 
HETATM   34  C22 UNL     1      -8.317  47.384  57.769  1.00  0.00     0.100 A 
ATOM     35  H7  UNL     1      -7.278  47.981  59.450  1.00  0.00     0.164 HD
ENDBRANCH  28  29
ENDBRANCH  19  28
ENDBRANCH   1  19
TORSDOF 11
ENDMDL
MODEL 5
REMARK VINA RESULT: -7.390285690      1.170      2.973
REMARK  11 active torsions:
REMARK  status: ('A' for Active; 'I' for Inactive)
REMARK    1  A    between atoms: N1_1  and  C1_4 
REMARK    2  A    between atoms: C3_8  and  C4_9 
REMARK    3  A    between atoms: C4_9  and  C5_10 
REMARK    4  A    between atoms: C5_10  and  N3_11 
REMARK       I    between atoms: N3_11  and  C6_12 
REMARK    5  A    between atoms: C7_17  and  C8_18 
REMARK    6  A    between atoms: C8_18  and  N6_19 
REMARK    7  A    between atoms: N6_19  and  C9_20 
REMARK    8  A    between atoms: N6_19  and  C17_28 
REMARK    9  A    between atoms: C9_20  and  C10_21 
REMARK   10  A    between atoms: C10_21  and  C11_22 
REMARK   11  A    between atoms: C17_28  and  C18_29 
ROOT
HETATM    1  C8  UNL     1     -10.479  45.588  55.595  1.00  0.00     0.123 C 
ENDROOT
BRANCH   1   2
HETATM    2  C7  UNL     1     -10.253  44.204  55.162  1.00  0.00     0.092 A 
HETATM    3  C1  UNL     1     -11.489  43.489  55.019  1.00  0.00     0.127 A 
HETATM    4  N2  UNL     1     -11.503  42.158  54.728  1.00  0.00    -0.349 N 
HETATM    5  C2  UNL     1     -10.346  41.540  54.580  1.00  0.00     0.115 A 
ATOM      6  H2  UNL     1     -12.383  41.653  54.628  1.00  0.00     0.167 HD
HETATM    7  C3  UNL     1      -9.180  42.257  54.729  1.00  0.00     0.031 A 
HETATM    8  N5  UNL     1      -9.127  43.565  55.012  1.00  0.00    -0.354 N 
ATOM      9  H5  UNL     1      -8.232  44.047  55.108  1.00  0.00     0.166 HD
BRANCH   3  10
HETATM   10  N1  UNL     1     -12.549  44.062  55.240  1.00  0.00    -0.384 N 
ATOM     11  H12 UNL     1     -13.320  43.549  55.667  1.00  0.00     0.157 HD
ATOM     12  H11 UNL     1     -12.664  45.028  54.932  1.00  0.00     0.157 HD
ENDBRANCH   3  10
BRANCH   7  13
HETATM   13  C4  UNL     1      -7.918  41.346  54.735  1.00  0.00     0.118 C 
BRANCH  13  14
HETATM   14  C5  UNL     1      -6.929  42.255  55.379  1.00  0.00     0.166 C 
BRANCH  14  15
HETATM   15  N3  UNL     1      -6.136  43.226  54.830  1.00  0.00    -0.371 NA
HETATM   16  C6  UNL     1      -5.368  44.172  54.297  1.00  0.00     0.405 C 
HETATM   17  N4  UNL     1      -4.311  43.877  53.280  1.00  0.00    -0.025 NA
HETATM   18  O1  UNL     1      -5.368  45.437  54.537  1.00  0.00    -0.234 OA
ENDBRANCH  14  15
ENDBRANCH  13  14
ENDBRANCH   7  13
ENDBRANCH   1   2
BRANCH   1  19
HETATM   19  N6  UNL     1     -10.063  46.064  56.829  1.00  0.00    -0.363 N 
BRANCH  19  20
HETATM   20  C9  UNL     1      -8.623  46.209  56.836  1.00  0.00     0.132 C 
BRANCH  20  21
HETATM   21  C10 UNL     1      -8.049  47.113  55.764  1.00  0.00     0.058 C 
BRANCH  21  22
HETATM   22  C11 UNL     1      -7.590  48.371  56.456  1.00  0.00    -0.057 A 
HETATM   23  C12 UNL     1      -7.036  48.367  57.700  1.00  0.00     0.007 A 
HETATM   24  C13 UNL     1      -6.646  49.559  58.328  1.00  0.00     0.001 A 
HETATM   25  C14 UNL     1      -6.851  50.717  57.615  1.00  0.00     0.000 A 
HETATM   26  C15 UNL     1      -7.399  50.724  56.373  1.00  0.00     0.001 A 
HETATM   27  C16 UNL     1      -7.793  49.560  55.740  1.00  0.00     0.007 A 
ENDBRANCH  21  22
ENDBRANCH  20  21
ENDBRANCH  19  20
BRANCH  19  28
HETATM   28  C17 UNL     1     -10.810  46.453  57.907  1.00  0.00     0.103 C 
BRANCH  28  29
HETATM   29  C18 UNL     1     -10.452  47.613  58.700  1.00  0.00    -0.005 A 
HETATM   30  C19 UNL     1     -10.728  48.889  58.284  1.00  0.00     0.015 A 
HETATM   31  C20 UNL     1     -10.343  49.998  59.052  1.00  0.00     0.018 A 
HETATM   32  C21 UNL     1      -9.680  49.829  60.242  1.00  0.00     0.087 A 
HETATM   33  N7  UNL     1      -9.413  48.559  60.651  1.00  0.00    -0.374 N 
HETATM   34  C22 UNL     1      -9.787  47.490  59.897  1.00  0.00     0.100 A 
ATOM     35  H7  UNL     1      -8.926  48.406  61.535  1.00  0.00     0.164 HD
ENDBRANCH  28  29
ENDBRANCH  19  28
ENDBRANCH   1  19
TORSDOF 11
ENDMDL
