MODEL 1
REMARK VINA RESULT: -4.975556795      0.000      0.000
REMARK  2 active torsions:
REMARK  status: ('A' for Active; 'I' for Inactive)
REMARK    1  A    between atoms: C3_11  and  C4_12 
REMARK    2  A    between atoms: C5_15  and  N5_16 
ROOT
HETATM    1  N1  UNL     1      53.207  56.537  66.236  1.00  0.00    -0.383 N 
ATOM      2  H11 UNL     1      53.331  55.622  65.802  1.00  0.00     0.157 HD
ATOM      3  H12 UNL     1      53.925  57.252  66.122  1.00  0.00     0.157 HD
HETATM    4  C1  UNL     1      52.196  56.767  66.883  1.00  0.00     0.139 A 
HETATM    5  N2  UNL     1      52.028  58.006  67.471  1.00  0.00    -0.293 N 
ATOM      6  H2  UNL     1      52.752  58.714  67.355  1.00  0.00     0.172 HD
HETATM    7  C2  UNL     1      50.966  58.291  68.171  1.00  0.00     0.326 A 
HETATM    8  O1  UNL     1      50.904  59.468  68.678  1.00  0.00    -0.247 OA
HETATM    9  N3  UNL     1      50.000  57.383  68.344  1.00  0.00    -0.302 N 
ATOM     10  H3  UNL     1      49.177  57.627  68.895  1.00  0.00     0.171 HD
HETATM   11  C3  UNL     1      50.096  56.131  67.796  1.00  0.00     0.139 A 
HETATM   12  C5  UNL     1      51.198  55.774  67.040  1.00  0.00     0.178 A 
ENDROOT
BRANCH  12  13
HETATM   13  N5  UNL     1      51.330  54.515  66.397  1.00  0.00    -0.109 N 
HETATM   14  O3  UNL     1      50.785  54.301  65.294  1.00  0.00    -0.532 OA
HETATM   15  O4  UNL     1      52.042  53.484  66.945  1.00  0.00    -0.532 OA
ENDBRANCH  12  13
BRANCH  11  16
HETATM   16  C4  UNL     1      48.972  55.212  68.024  1.00  0.00     0.284 C 
HETATM   17  N4  UNL     1      47.705  55.523  67.462  1.00  0.00    -0.056 NA
HETATM   18  O2  UNL     1      49.178  54.165  68.715  1.00  0.00    -0.269 OA
ENDBRANCH  11  16
TORSDOF 2
ENDMDL
MODEL 2
REMARK VINA RESULT: -4.811681168      1.947      3.853
REMARK  2 active torsions:
REMARK  status: ('A' for Active; 'I' for Inactive)
REMARK    1  A    between atoms: C3_11  and  C4_12 
REMARK    2  A    between atoms: C5_15  and  N5_16 
ROOT
HETATM    1  N1  UNL     1      50.744  58.413  68.244  1.00  0.00    -0.383 N 
ATOM      2  H11 UNL     1      51.640  58.890  68.142  1.00  0.00     0.157 HD
ATOM      3  H12 UNL     1      49.954  58.904  68.662  1.00  0.00     0.157 HD
HETATM    4  C1  UNL     1      50.626  57.260  67.857  1.00  0.00     0.139 A 
HETATM    5  N2  UNL     1      49.413  56.614  67.994  1.00  0.00    -0.293 N 
ATOM      6  H2  UNL     1      48.629  57.111  68.417  1.00  0.00     0.172 HD
HETATM    7  C2  UNL     1      49.245  55.384  67.597  1.00  0.00     0.326 A 
HETATM    8  O1  UNL     1      48.082  54.871  67.769  1.00  0.00    -0.247 OA
HETATM    9  N3  UNL     1      50.254  54.703  67.042  1.00  0.00    -0.302 N 
ATOM     10  H3  UNL     1      50.102  53.742  66.737  1.00  0.00     0.171 HD
HETATM   11  C3  UNL     1      51.488  55.274  66.876  1.00  0.00     0.139 A 
HETATM   12  C5  UNL     1      51.723  56.577  67.275  1.00  0.00     0.178 A 
ENDROOT
BRANCH  12  13
HETATM   13  N5  UNL     1      52.961  57.245  67.076  1.00  0.00    -0.109 N 
HETATM   14  O3  UNL     1      53.077  58.128  66.200  1.00  0.00    -0.532 OA
HETATM   15  O4  UNL     1      54.075  56.957  67.816  1.00  0.00    -0.532 OA
ENDBRANCH  12  13
BRANCH  11  16
HETATM   16  C4  UNL     1      52.525  54.453  66.235  1.00  0.00     0.284 C 
HETATM   17  N4  UNL     1      53.407  53.697  67.053  1.00  0.00    -0.056 NA
HETATM   18  O2  UNL     1      52.590  54.445  64.965  1.00  0.00    -0.269 OA
ENDBRANCH  11  16
TORSDOF 2
ENDMDL
MODEL 3
REMARK VINA RESULT: -4.716653998      2.020      4.713
REMARK  2 active torsions:
REMARK  status: ('A' for Active; 'I' for Inactive)
REMARK    1  A    between atoms: C3_11  and  C4_12 
REMARK    2  A    between atoms: C5_15  and  N5_16 
ROOT
HETATM    1  N1  UNL     1      48.818  54.808  68.231  1.00  0.00    -0.383 N 
ATOM      2  H11 UNL     1      48.519  55.783  68.202  1.00  0.00     0.157 HD
ATOM      3  H12 UNL     1      48.163  54.087  68.534  1.00  0.00     0.157 HD
HETATM    4  C1  UNL     1      49.956  54.515  67.897  1.00  0.00     0.139 A 
HETATM    5  N2  UNL     1      50.362  53.195  67.937  1.00  0.00    -0.293 N 
ATOM      6  H2  UNL     1      49.701  52.481  68.244  1.00  0.00     0.172 HD
HETATM    7  C2  UNL     1      51.567  52.839  67.592  1.00  0.00     0.326 A 
HETATM    8  O1  UNL     1      51.847  51.589  67.664  1.00  0.00    -0.247 OA
HETATM    9  N3  UNL     1      52.457  53.752  67.188  1.00  0.00    -0.302 N 
ATOM     10  H3  UNL     1      53.395  53.453  66.922  1.00  0.00     0.171 HD
HETATM   11  C3  UNL     1      52.132  55.082  67.127  1.00  0.00     0.139 A 
HETATM   12  C5  UNL     1      50.866  55.516  67.476  1.00  0.00     0.178 A 
ENDROOT
BRANCH  12  13
HETATM   13  N5  UNL     1      50.449  56.870  67.377  1.00  0.00    -0.109 N 
HETATM   14  O3  UNL     1      49.778  57.261  66.400  1.00  0.00    -0.532 OA
HETATM   15  O4  UNL     1      50.761  57.803  68.328  1.00  0.00    -0.532 OA
ENDBRANCH  12  13
BRANCH  11  16
HETATM   16  C4  UNL     1      53.172  56.004  66.648  1.00  0.00     0.284 C 
HETATM   17  N4  UNL     1      53.197  56.357  65.273  1.00  0.00    -0.056 NA
HETATM   18  O2  UNL     1      54.010  56.458  67.490  1.00  0.00    -0.269 OA
ENDBRANCH  11  16
TORSDOF 2
ENDMDL
MODEL 4
REMARK VINA RESULT: -4.658978316      1.754      3.578
REMARK  2 active torsions:
REMARK  status: ('A' for Active; 'I' for Inactive)
REMARK    1  A    between atoms: C3_11  and  C4_12 
REMARK    2  A    between atoms: C5_15  and  N5_16 
ROOT
HETATM    1  N1  UNL     1      52.881  55.682  66.577  1.00  0.00    -0.383 N 
ATOM      2  H11 UNL     1      52.727  56.683  66.455  1.00  0.00     0.157 HD
ATOM      3  H12 UNL     1      53.774  55.271  66.306  1.00  0.00     0.157 HD
HETATM    4  C1  UNL     1      51.994  54.987  67.052  1.00  0.00     0.139 A 
HETATM    5  N2  UNL     1      52.202  53.632  67.218  1.00  0.00    -0.293 N 
ATOM      6  H2  UNL     1      53.098  53.228  66.941  1.00  0.00     0.172 HD
HETATM    7  C2  UNL     1      51.283  52.855  67.718  1.00  0.00     0.326 A 
HETATM    8  O1  UNL     1      51.572  51.610  67.831  1.00  0.00    -0.247 OA
HETATM    9  N3  UNL     1      50.098  53.353  68.087  1.00  0.00    -0.302 N 
ATOM     10  H3  UNL     1      49.392  52.728  68.478  1.00  0.00     0.171 HD
HETATM   11  C3  UNL     1      49.814  54.686  67.950  1.00  0.00     0.139 A 
HETATM   12  C5  UNL     1      50.753  55.558  67.429  1.00  0.00     0.178 A 
ENDROOT
BRANCH  12  13
HETATM   13  N5  UNL     1      50.543  56.958  67.317  1.00  0.00    -0.109 N 
HETATM   14  O3  UNL     1      50.024  57.446  66.291  1.00  0.00    -0.532 OA
HETATM   15  O4  UNL     1      50.899  57.833  68.307  1.00  0.00    -0.532 OA
ENDBRANCH  12  13
BRANCH  11  16
HETATM   16  C4  UNL     1      48.493  55.140  68.406  1.00  0.00     0.284 C 
HETATM   17  N4  UNL     1      47.527  55.524  67.439  1.00  0.00    -0.056 NA
HETATM   18  O2  UNL     1      48.261  55.166  69.656  1.00  0.00    -0.269 OA
ENDBRANCH  11  16
TORSDOF 2
ENDMDL
MODEL 5
REMARK VINA RESULT: -4.653054883      1.876      3.590
REMARK  2 active torsions:
REMARK  status: ('A' for Active; 'I' for Inactive)
REMARK    1  A    between atoms: C3_11  and  C4_12 
REMARK    2  A    between atoms: C5_15  and  N5_16 
ROOT
HETATM    1  N1  UNL     1      51.102  52.524  67.634  1.00  0.00    -0.383 N 
ATOM      2  H11 UNL     1      51.986  52.266  67.195  1.00  0.00     0.157 HD
ATOM      3  H12 UNL     1      50.512  51.802  68.047  1.00  0.00     0.157 HD
HETATM    4  C1  UNL     1      50.763  53.698  67.666  1.00  0.00     0.139 A 
HETATM    5  N2  UNL     1      49.567  54.048  68.260  1.00  0.00    -0.293 N 
ATOM      6  H2  UNL     1      48.981  53.319  68.668  1.00  0.00     0.172 HD
HETATM    7  C2  UNL     1      49.167  55.287  68.314  1.00  0.00     0.326 A 
HETATM    8  O1  UNL     1      48.040  55.511  68.886  1.00  0.00    -0.247 OA
HETATM    9  N3  UNL     1      49.910  56.266  67.786  1.00  0.00    -0.302 N 
ATOM     10  H3  UNL     1      49.579  57.230  67.839  1.00  0.00     0.171 HD
HETATM   11  C3  UNL     1      51.107  55.998  67.175  1.00  0.00     0.139 A 
HETATM   12  C5  UNL     1      51.583  54.702  67.094  1.00  0.00     0.178 A 
ENDROOT
BRANCH  12  13
HETATM   13  N5  UNL     1      52.842  54.366  66.528  1.00  0.00    -0.109 N 
HETATM   14  O3  UNL     1      52.913  53.839  65.398  1.00  0.00    -0.532 OA
HETATM   15  O4  UNL     1      54.022  54.591  67.183  1.00  0.00    -0.532 OA
ENDBRANCH  12  13
BRANCH  11  16
HETATM   16  C4  UNL     1      51.861  57.144  66.647  1.00  0.00     0.284 C 
HETATM   17  N4  UNL     1      52.328  58.135  67.551  1.00  0.00    -0.056 NA
HETATM   18  O2  UNL     1      52.072  57.202  65.395  1.00  0.00    -0.269 OA
ENDBRANCH  11  16
TORSDOF 2
ENDMDL
