MODEL 1
REMARK VINA RESULT: -8.222706501      0.000      0.000
REMARK  2 active torsions:
REMARK  status: ('A' for Active; 'I' for Inactive)
REMARK    1  A    between atoms: C4_7  and  N3_8 
REMARK       I    between atoms: C5_10  and  N5_12 
REMARK    2  A    between atoms: N5_12  and  C6_14 
ROOT
HETATM    1  N1  UNL     1      30.548  33.104  37.741  1.00  0.00    -0.191 NA
HETATM    2  C1  UNL     1      29.786  32.447  37.175  1.00  0.00     0.105 C 
HETATM    3  C2  UNL     1      28.840  31.638  36.447  1.00  0.00     0.117 A 
HETATM    4  C3  UNL     1      28.422  31.775  35.141  1.00  0.00     0.181 A 
HETATM    5  N2  UNL     1      28.893  32.798  34.263  1.00  0.00    -0.073 NA
HETATM    6  O1  UNL     1      27.563  30.828  34.905  1.00  0.00    -0.276 OA
HETATM    7  C4  UNL     1      27.377  30.060  35.978  1.00  0.00     0.174 A 
HETATM    8  C11 UNL     1      28.171  30.534  36.995  1.00  0.00     0.120 A 
HETATM    9  C12 UNL     1      28.336  30.035  38.341  1.00  0.00     0.105 C 
HETATM   10  N7  UNL     1      28.490  29.629  39.413  1.00  0.00    -0.191 NA
ENDROOT
BRANCH   7  11
HETATM   11  N3  UNL     1      26.505  28.959  36.027  1.00  0.00    -0.310 N 
HETATM   12  C5  UNL     1      25.403  28.757  35.477  1.00  0.00     0.190 C 
HETATM   13  N4  UNL     1      24.806  29.706  34.630  1.00  0.00    -0.063 NA
HETATM   14  N5  UNL     1      24.721  27.531  35.705  1.00  0.00    -0.358 N 
ATOM     15  H5  UNL     1      24.196  27.378  36.566  1.00  0.00     0.162 HD
ATOM     16  H3  UNL     1      26.829  28.191  36.615  1.00  0.00     0.170 HD
BRANCH  14  17
HETATM   17  C6  UNL     1      24.788  26.509  34.689  1.00  0.00     0.109 C 
HETATM   18  C7  UNL     1      24.080  25.230  35.114  1.00  0.00     0.028 C 
HETATM   19  C8  UNL     1      24.379  24.211  34.005  1.00  0.00     0.029 C 
HETATM   20  C9  UNL     1      23.816  24.699  32.703  1.00  0.00     0.232 C 
HETATM   21  N6  UNL     1      24.217  26.036  32.365  1.00  0.00    -0.073 N 
HETATM   22  C10 UNL     1      24.071  26.984  33.429  1.00  0.00     0.257 C 
ATOM     23  H62 UNL     1      25.174  26.042  32.013  1.00  0.00     0.277 HD
ATOM     24  H61 UNL     1      23.722  26.357  31.534  1.00  0.00     0.277 HD
ENDBRANCH  14  17
ENDBRANCH   7  11
TORSDOF 2
ENDMDL
MODEL 2
REMARK VINA RESULT: -8.103565014      2.271      7.209
REMARK  2 active torsions:
REMARK  status: ('A' for Active; 'I' for Inactive)
REMARK    1  A    between atoms: C4_7  and  N3_8 
REMARK       I    between atoms: C5_10  and  N5_12 
REMARK    2  A    between atoms: N5_12  and  C6_14 
ROOT
HETATM    1  N1  UNL     1      23.625  27.062  32.350  1.00  0.00    -0.191 NA
HETATM    2  C1  UNL     1      24.212  27.673  33.132  1.00  0.00     0.105 C 
HETATM    3  C2  UNL     1      24.943  28.458  34.096  1.00  0.00     0.117 A 
HETATM    4  C3  UNL     1      25.341  29.774  34.005  1.00  0.00     0.181 A 
HETATM    5  N2  UNL     1      25.072  30.606  32.876  1.00  0.00    -0.073 NA
HETATM    6  O1  UNL     1      25.973  30.068  35.103  1.00  0.00    -0.276 OA
HETATM    7  C4  UNL     1      26.024  29.025  35.930  1.00  0.00     0.174 A 
HETATM    8  C11 UNL     1      25.379  27.966  35.335  1.00  0.00     0.120 A 
HETATM    9  C12 UNL     1      25.153  26.629  35.834  1.00  0.00     0.105 C 
HETATM   10  N7  UNL     1      24.948  25.564  36.236  1.00  0.00    -0.191 NA
ENDROOT
BRANCH   7  11
HETATM   11  N3  UNL     1      26.644  29.038  37.191  1.00  0.00    -0.310 N 
HETATM   12  C5  UNL     1      27.810  29.324  37.532  1.00  0.00     0.190 C 
HETATM   13  N4  UNL     1      28.785  29.721  36.599  1.00  0.00    -0.063 NA
HETATM   14  N5  UNL     1      28.178  29.251  38.902  1.00  0.00    -0.358 N 
ATOM     15  H5  UNL     1      28.386  28.353  39.339  1.00  0.00     0.162 HD
ATOM     16  H3  UNL     1      26.035  28.767  37.963  1.00  0.00     0.170 HD
BRANCH  14  17
HETATM   17  C6  UNL     1      28.249  30.476  39.660  1.00  0.00     0.109 C 
HETATM   18  C7  UNL     1      27.428  30.408  40.940  1.00  0.00     0.028 C 
HETATM   19  C8  UNL     1      27.484  31.822  41.536  1.00  0.00     0.029 C 
HETATM   20  C9  UNL     1      28.905  32.181  41.858  1.00  0.00     0.232 C 
HETATM   21  N6  UNL     1      29.810  31.994  40.759  1.00  0.00    -0.073 N 
HETATM   22  C10 UNL     1      29.689  30.729  40.100  1.00  0.00     0.257 C 
ATOM     23  H62 UNL     1      29.716  32.755  40.087  1.00  0.00     0.277 HD
ATOM     24  H61 UNL     1      30.772  32.146  41.061  1.00  0.00     0.277 HD
ENDBRANCH  14  17
ENDBRANCH   7  11
TORSDOF 2
ENDMDL
MODEL 3
REMARK VINA RESULT: -8.036243330      3.659      6.694
REMARK  2 active torsions:
REMARK  status: ('A' for Active; 'I' for Inactive)
REMARK    1  A    between atoms: C4_7  and  N3_8 
REMARK       I    between atoms: C5_10  and  N5_12 
REMARK    2  A    between atoms: N5_12  and  C6_14 
ROOT
HETATM    1  N1  UNL     1      26.109  26.622  36.104  1.00  0.00    -0.191 NA
HETATM    2  C1  UNL     1      26.371  27.738  35.969  1.00  0.00     0.105 C 
HETATM    3  C2  UNL     1      26.720  29.129  35.814  1.00  0.00     0.117 A 
HETATM    4  C3  UNL     1      27.756  29.823  36.400  1.00  0.00     0.181 A 
HETATM    5  N2  UNL     1      28.694  29.233  37.301  1.00  0.00    -0.073 NA
HETATM    6  O1  UNL     1      27.691  31.051  35.978  1.00  0.00    -0.276 OA
HETATM    7  C4  UNL     1      26.670  31.225  35.140  1.00  0.00     0.174 A 
HETATM    8  C11 UNL     1      26.013  30.025  34.999  1.00  0.00     0.120 A 
HETATM    9  C12 UNL     1      24.861  29.696  34.191  1.00  0.00     0.105 C 
HETATM   10  N7  UNL     1      23.954  29.420  33.530  1.00  0.00    -0.191 NA
ENDROOT
BRANCH   7  11
HETATM   11  N3  UNL     1      26.345  32.445  34.523  1.00  0.00    -0.310 N 
HETATM   12  C5  UNL     1      27.033  33.232  33.842  1.00  0.00     0.190 C 
HETATM   13  N4  UNL     1      28.387  32.985  33.557  1.00  0.00    -0.063 NA
HETATM   14  N5  UNL     1      26.442  34.419  33.332  1.00  0.00    -0.358 N 
ATOM     15  H5  UNL     1      26.302  35.232  33.931  1.00  0.00     0.162 HD
ATOM     16  H3  UNL     1      25.377  32.740  34.656  1.00  0.00     0.170 HD
BRANCH  14  17
HETATM   17  C6  UNL     1      26.043  34.446  31.945  1.00  0.00     0.109 C 
HETATM   18  C7  UNL     1      25.137  33.278  31.585  1.00  0.00     0.028 C 
HETATM   19  C8  UNL     1      24.940  33.368  30.065  1.00  0.00     0.029 C 
HETATM   20  C9  UNL     1      24.267  34.663  29.717  1.00  0.00     0.232 C 
HETATM   21  N6  UNL     1      24.915  35.818  30.274  1.00  0.00    -0.073 N 
HETATM   22  C10 UNL     1      25.230  35.707  31.666  1.00  0.00     0.257 C 
ATOM     23  H62 UNL     1      25.751  36.050  29.738  1.00  0.00     0.277 HD
ATOM     24  H61 UNL     1      24.360  36.656  30.101  1.00  0.00     0.277 HD
ENDBRANCH  14  17
ENDBRANCH   7  11
TORSDOF 2
ENDMDL
MODEL 4
REMARK VINA RESULT: -7.958812423      2.721      7.534
REMARK  2 active torsions:
REMARK  status: ('A' for Active; 'I' for Inactive)
REMARK    1  A    between atoms: C4_7  and  N3_8 
REMARK       I    between atoms: C5_10  and  N5_12 
REMARK    2  A    between atoms: N5_12  and  C6_14 
ROOT
HETATM    1  N1  UNL     1      23.036  23.067  34.674  1.00  0.00    -0.191 NA
HETATM    2  C1  UNL     1      23.576  24.064  34.884  1.00  0.00     0.105 C 
HETATM    3  C2  UNL     1      24.256  25.304  35.170  1.00  0.00     0.117 A 
HETATM    4  C3  UNL     1      24.737  25.758  36.379  1.00  0.00     0.181 A 
HETATM    5  N2  UNL     1      24.628  25.025  37.600  1.00  0.00    -0.073 NA
HETATM    6  O1  UNL     1      25.275  26.924  36.172  1.00  0.00    -0.276 OA
HETATM    7  C4  UNL     1      25.185  27.281  34.891  1.00  0.00     0.174 A 
HETATM    8  C11 UNL     1      24.540  26.280  34.204  1.00  0.00     0.120 A 
HETATM    9  C12 UNL     1      24.219  26.189  32.798  1.00  0.00     0.105 C 
HETATM   10  N7  UNL     1      23.978  26.099  31.671  1.00  0.00    -0.191 NA
ENDROOT
BRANCH   7  11
HETATM   11  N3  UNL     1      25.674  28.489  34.366  1.00  0.00    -0.310 N 
HETATM   12  C5  UNL     1      25.091  29.546  34.049  1.00  0.00     0.190 C 
HETATM   13  N4  UNL     1      23.701  29.701  34.189  1.00  0.00    -0.063 NA
HETATM   14  N5  UNL     1      25.843  30.634  33.531  1.00  0.00    -0.358 N 
ATOM     15  H5  UNL     1      26.151  30.640  32.559  1.00  0.00     0.162 HD
ATOM     16  H3  UNL     1      26.683  28.505  34.218  1.00  0.00     0.170 HD
BRANCH  14  17
HETATM   17  C6  UNL     1      26.163  31.730  34.413  1.00  0.00     0.109 C 
HETATM   18  C7  UNL     1      27.624  31.715  34.841  1.00  0.00     0.028 C 
HETATM   19  C8  UNL     1      27.754  32.834  35.884  1.00  0.00     0.029 C 
HETATM   20  C9  UNL     1      27.418  34.155  35.256  1.00  0.00     0.232 C 
HETATM   21  N6  UNL     1      26.155  34.164  34.572  1.00  0.00    -0.073 N 
HETATM   22  C10 UNL     1      25.953  33.056  33.688  1.00  0.00     0.257 C 
ATOM     23  H62 UNL     1      25.388  34.229  35.241  1.00  0.00     0.277 HD
ATOM     24  H61 UNL     1      26.027  35.044  34.073  1.00  0.00     0.277 HD
ENDBRANCH  14  17
ENDBRANCH   7  11
TORSDOF 2
ENDMDL
MODEL 5
REMARK VINA RESULT: -7.846290943      3.442      6.210
REMARK  2 active torsions:
REMARK  status: ('A' for Active; 'I' for Inactive)
REMARK    1  A    between atoms: C4_7  and  N3_8 
REMARK       I    between atoms: C5_10  and  N5_12 
REMARK    2  A    between atoms: N5_12  and  C6_14 
ROOT
HETATM    1  N1  UNL     1      28.542  29.107  38.529  1.00  0.00    -0.191 NA
HETATM    2  C1  UNL     1      27.948  29.209  37.545  1.00  0.00     0.105 C 
HETATM    3  C2  UNL     1      27.196  29.315  36.319  1.00  0.00     0.117 A 
HETATM    4  C3  UNL     1      26.456  28.343  35.681  1.00  0.00     0.181 A 
HETATM    5  N2  UNL     1      26.313  27.009  36.170  1.00  0.00    -0.073 NA
HETATM    6  O1  UNL     1      25.951  28.878  34.609  1.00  0.00    -0.276 OA
HETATM    7  C4  UNL     1      26.309  30.155  34.487  1.00  0.00     0.174 A 
HETATM    8  C11 UNL     1      27.107  30.488  35.555  1.00  0.00     0.120 A 
HETATM    9  C12 UNL     1      27.727  31.752  35.882  1.00  0.00     0.105 C 
HETATM   10  N7  UNL     1      28.207  32.765  36.162  1.00  0.00    -0.191 NA
ENDROOT
BRANCH   7  11
HETATM   11  N3  UNL     1      25.919  30.993  33.427  1.00  0.00    -0.310 N 
HETATM   12  C5  UNL     1      24.792  31.376  33.053  1.00  0.00     0.190 C 
HETATM   13  N4  UNL     1      23.613  30.984  33.711  1.00  0.00    -0.063 NA
HETATM   14  N5  UNL     1      24.683  32.237  31.928  1.00  0.00    -0.358 N 
ATOM     15  H5  UNL     1      24.753  31.868  30.980  1.00  0.00     0.162 HD
ATOM     16  H3  UNL     1      26.692  31.350  32.867  1.00  0.00     0.170 HD
BRANCH  14  17
HETATM   17  C6  UNL     1      24.471  33.645  32.159  1.00  0.00     0.109 C 
HETATM   18  C7  UNL     1      24.579  34.008  33.633  1.00  0.00     0.028 C 
HETATM   19  C8  UNL     1      24.177  35.487  33.720  1.00  0.00     0.029 C 
HETATM   20  C9  UNL     1      25.132  36.321  32.916  1.00  0.00     0.232 C 
HETATM   21  N6  UNL     1      25.306  35.859  31.567  1.00  0.00    -0.073 N 
HETATM   22  C10 UNL     1      25.553  34.454  31.449  1.00  0.00     0.257 C 
ATOM     23  H62 UNL     1      24.507  36.129  30.993  1.00  0.00     0.277 HD
ATOM     24  H61 UNL     1      26.042  36.390  31.102  1.00  0.00     0.277 HD
ENDBRANCH  14  17
ENDBRANCH   7  11
TORSDOF 2
ENDMDL
