MODEL 1
REMARK VINA RESULT: -8.524492322      0.000      0.000
REMARK  4 active torsions:
REMARK  status: ('A' for Active; 'I' for Inactive)
REMARK    1  A    between atoms: S1_2  and  C2_3 
REMARK    2  A    between atoms: C4_9  and  N3_10 
REMARK    3  A    between atoms: C5_15  and  N5_16 
REMARK    4  A    between atoms: C8_23  and  C9_24 
ROOT
HETATM    1  N5  UNL     1      25.042  25.346  36.776  1.00  0.00    -0.126 N 
ATOM      2  H5  UNL     1      25.808  25.203  37.433  1.00  0.00     0.197 HD
HETATM    3  C6  UNL     1      24.027  24.395  36.749  1.00  0.00     0.196 C 
HETATM    4  N6  UNL     1      23.176  23.593  36.748  1.00  0.00    -0.171 NA
ENDROOT
BRANCH   1   5
HETATM    5  C5  UNL     1      25.080  26.383  36.036  1.00  0.00     0.693 A 
HETATM    6  N4  UNL     1      24.252  26.487  34.989  1.00  0.00    -0.174 N 
HETATM    7  C4  UNL     1      24.308  27.604  34.222  1.00  0.00     0.145 A 
ATOM      8  H4  UNL     1      23.591  25.740  34.773  1.00  0.00     0.186 HD
HETATM    9  C3  UNL     1      25.196  28.615  34.505  1.00  0.00     0.120 A 
HETATM   10  N2  UNL     1      25.241  29.736  33.754  1.00  0.00    -0.294 N 
HETATM   11  C7  UNL     1      26.040  28.475  35.593  1.00  0.00     0.099 A 
HETATM   12  N1  UNL     1      26.061  30.725  34.004  1.00  0.00    -0.293 N 
ATOM     13  H2  UNL     1      24.610  29.816  32.957  1.00  0.00     0.187 HD
HETATM   14  C2  UNL     1      26.897  30.656  35.034  1.00  0.00     0.102 A 
ATOM     15  H1  UNL     1      26.056  31.552  33.407  1.00  0.00     0.187 HD
HETATM   16  C8  UNL     1      26.908  29.519  35.858  1.00  0.00     0.093 A 
HETATM   17  N7  UNL     1      25.970  27.361  36.345  1.00  0.00    -0.187 N 
ATOM     18  H7  UNL     1      26.588  27.250  37.149  1.00  0.00     0.184 HD
BRANCH   7  19
HETATM   19  N3  UNL     1      23.545  27.775  33.198  1.00  0.00    -0.383 N 
ATOM     20  H32 UNL     1      23.133  28.680  32.970  1.00  0.00     0.157 HD
ATOM     21  H31 UNL     1      23.365  26.954  32.620  1.00  0.00     0.157 HD
ENDBRANCH   7  19
BRANCH  14  22
HETATM   22  S1  UNL     1      27.995  32.044  35.325  1.00  0.00    -0.114 SA
HETATM   23  C1  UNL     1      27.869  33.179  33.919  1.00  0.00     0.097 C 
ENDBRANCH  14  22
BRANCH  16  24
HETATM   24  C9  UNL     1      27.839  29.501  36.936  1.00  0.00     0.270 C 
HETATM   25  N8  UNL     1      27.774  30.125  38.182  1.00  0.00    -0.057 NA
HETATM   26  O1  UNL     1      28.913  28.806  36.764  1.00  0.00    -0.271 OA
ENDBRANCH  16  24
ENDBRANCH   1   5
TORSDOF 4
ENDMDL
MODEL 2
REMARK VINA RESULT: -8.505142018      2.740      6.266
REMARK  4 active torsions:
REMARK  status: ('A' for Active; 'I' for Inactive)
REMARK    1  A    between atoms: S1_2  and  C2_3 
REMARK    2  A    between atoms: C4_9  and  N3_10 
REMARK    3  A    between atoms: C5_15  and  N5_16 
REMARK    4  A    between atoms: C8_23  and  C9_24 
ROOT
HETATM    1  N5  UNL     1      26.919  31.803  34.344  1.00  0.00    -0.126 N 
ATOM      2  H5  UNL     1      27.852  32.106  34.064  1.00  0.00     0.197 HD
HETATM    3  C6  UNL     1      25.850  32.640  34.044  1.00  0.00     0.196 C 
HETATM    4  N6  UNL     1      24.960  33.349  33.773  1.00  0.00    -0.171 NA
ENDROOT
BRANCH   1   5
HETATM    5  C5  UNL     1      26.815  30.683  34.945  1.00  0.00     0.693 A 
HETATM    6  N4  UNL     1      27.537  30.447  36.047  1.00  0.00    -0.174 N 
HETATM    7  C4  UNL     1      27.402  29.251  36.671  1.00  0.00     0.145 A 
ATOM      8  H4  UNL     1      28.177  31.154  36.410  1.00  0.00     0.186 HD
HETATM    9  C3  UNL     1      26.543  28.292  36.189  1.00  0.00     0.120 A 
HETATM   10  N2  UNL     1      26.391  27.108  36.818  1.00  0.00    -0.294 N 
HETATM   11  C7  UNL     1      25.811  28.568  35.046  1.00  0.00     0.099 A 
HETATM   12  N1  UNL     1      25.570  26.180  36.398  1.00  0.00    -0.293 N 
ATOM     13  H2  UNL     1      26.941  26.927  37.659  1.00  0.00     0.187 HD
HETATM   14  C2  UNL     1      24.838  26.379  35.307  1.00  0.00     0.102 A 
ATOM     15  H1  UNL     1      25.492  25.301  36.909  1.00  0.00     0.187 HD
HETATM   16  C8  UNL     1      24.943  27.587  34.599  1.00  0.00     0.093 A 
HETATM   17  N7  UNL     1      25.957  29.760  34.439  1.00  0.00    -0.187 N 
ATOM     18  H7  UNL     1      25.421  29.971  33.597  1.00  0.00     0.184 HD
BRANCH   7  19
HETATM   19  N3  UNL     1      28.064  28.950  37.734  1.00  0.00    -0.383 N 
ATOM     20  H32 UNL     1      28.001  28.033  38.175  1.00  0.00     0.157 HD
ATOM     21  H31 UNL     1      28.660  29.681  38.124  1.00  0.00     0.157 HD
ENDBRANCH   7  19
BRANCH  14  22
HETATM   22  S1  UNL     1      23.731  25.070  34.782  1.00  0.00    -0.114 SA
HETATM   23  C1  UNL     1      23.702  23.794  36.068  1.00  0.00     0.097 C 
ENDBRANCH  14  22
BRANCH  16  24
HETATM   24  C9  UNL     1      24.143  27.732  33.430  1.00  0.00     0.270 C 
HETATM   25  N8  UNL     1      24.165  27.008  32.237  1.00  0.00    -0.057 NA
HETATM   26  O1  UNL     1      23.248  28.663  33.449  1.00  0.00    -0.271 OA
ENDBRANCH  16  24
ENDBRANCH   1   5
TORSDOF 4
ENDMDL
MODEL 3
REMARK VINA RESULT: -7.438631812      2.196      3.518
REMARK  4 active torsions:
REMARK  status: ('A' for Active; 'I' for Inactive)
REMARK    1  A    between atoms: S1_2  and  C2_3 
REMARK    2  A    between atoms: C4_9  and  N3_10 
REMARK    3  A    between atoms: C5_15  and  N5_16 
REMARK    4  A    between atoms: C8_23  and  C9_24 
ROOT
HETATM    1  N5  UNL     1      24.823  26.374  35.416  1.00  0.00    -0.126 N 
ATOM      2  H5  UNL     1      24.555  26.165  34.454  1.00  0.00     0.197 HD
HETATM    3  C6  UNL     1      24.408  25.494  36.409  1.00  0.00     0.196 C 
HETATM    4  N6  UNL     1      24.062  24.737  37.231  1.00  0.00    -0.171 NA
ENDROOT
BRANCH   1   5
HETATM    5  C5  UNL     1      25.515  27.424  35.623  1.00  0.00     0.693 A 
HETATM    6  N4  UNL     1      26.513  27.399  36.515  1.00  0.00    -0.174 N 
HETATM    7  C4  UNL     1      27.240  28.528  36.712  1.00  0.00     0.145 A 
ATOM      8  H4  UNL     1      26.724  26.548  37.036  1.00  0.00     0.186 HD
HETATM    9  C3  UNL     1      26.962  29.681  36.015  1.00  0.00     0.120 A 
HETATM   10  N2  UNL     1      27.694  30.800  36.195  1.00  0.00    -0.294 N 
HETATM   11  C7  UNL     1      25.922  29.673  35.101  1.00  0.00     0.099 A 
HETATM   12  N1  UNL     1      27.470  31.909  35.537  1.00  0.00    -0.293 N 
ATOM     13  H2  UNL     1      28.456  30.782  36.874  1.00  0.00     0.187 HD
HETATM   14  C2  UNL     1      26.487  31.969  34.645  1.00  0.00     0.102 A 
ATOM     15  H1  UNL     1      28.052  32.729  35.709  1.00  0.00     0.187 HD
HETATM   16  C8  UNL     1      25.682  30.844  34.406  1.00  0.00     0.093 A 
HETATM   17  N7  UNL     1      25.212  28.544  34.917  1.00  0.00    -0.187 N 
ATOM     18  H7  UNL     1      24.445  28.529  34.246  1.00  0.00     0.184 HD
BRANCH   7  19
HETATM   19  N3  UNL     1      28.213  28.583  37.553  1.00  0.00    -0.383 N 
ATOM     20  H32 UNL     1      28.643  29.464  37.834  1.00  0.00     0.157 HD
ATOM     21  H31 UNL     1      28.542  27.694  37.930  1.00  0.00     0.157 HD
ENDBRANCH   7  19
BRANCH  14  22
HETATM   22  S1  UNL     1      26.230  33.516  33.775  1.00  0.00    -0.114 SA
HETATM   23  C1  UNL     1      27.764  33.953  32.916  1.00  0.00     0.097 C 
ENDBRANCH  14  22
BRANCH  16  24
HETATM   24  C9  UNL     1      24.636  30.979  33.449  1.00  0.00     0.270 C 
HETATM   25  N8  UNL     1      24.664  31.533  32.168  1.00  0.00    -0.057 NA
HETATM   26  O1  UNL     1      23.475  30.526  33.787  1.00  0.00    -0.271 OA
ENDBRANCH  16  24
ENDBRANCH   1   5
TORSDOF 4
ENDMDL
MODEL 4
REMARK VINA RESULT: -7.306578431      2.039      3.730
REMARK  4 active torsions:
REMARK  status: ('A' for Active; 'I' for Inactive)
REMARK    1  A    between atoms: S1_2  and  C2_3 
REMARK    2  A    between atoms: C4_9  and  N3_10 
REMARK    3  A    between atoms: C5_15  and  N5_16 
REMARK    4  A    between atoms: C8_23  and  C9_24 
ROOT
HETATM    1  N5  UNL     1      24.401  28.045  33.118  1.00  0.00    -0.126 N 
ATOM      2  H5  UNL     1      23.975  28.899  32.760  1.00  0.00     0.197 HD
HETATM    3  C6  UNL     1      24.122  26.855  32.455  1.00  0.00     0.196 C 
HETATM    4  N6  UNL     1      23.888  25.864  31.878  1.00  0.00    -0.171 NA
ENDROOT
BRANCH   1   5
HETATM    5  C5  UNL     1      25.153  28.142  34.143  1.00  0.00     0.693 A 
HETATM    6  N4  UNL     1      25.292  27.098  34.970  1.00  0.00    -0.174 N 
HETATM    7  C4  UNL     1      26.103  27.225  36.050  1.00  0.00     0.145 A 
ATOM      8  H4  UNL     1      24.797  26.224  34.791  1.00  0.00     0.186 HD
HETATM    9  C3  UNL     1      26.773  28.400  36.299  1.00  0.00     0.120 A 
HETATM   10  N2  UNL     1      27.596  28.524  37.362  1.00  0.00    -0.294 N 
HETATM   11  C7  UNL     1      26.607  29.461  35.425  1.00  0.00     0.099 A 
HETATM   12  N1  UNL     1      28.263  29.619  37.620  1.00  0.00    -0.293 N 
ATOM     13  H2  UNL     1      27.703  27.728  37.992  1.00  0.00     0.187 HD
HETATM   14  C2  UNL     1      28.148  30.675  36.822  1.00  0.00     0.102 A 
ATOM     15  H1  UNL     1      28.872  29.663  38.437  1.00  0.00     0.187 HD
HETATM   16  C8  UNL     1      27.309  30.621  35.697  1.00  0.00     0.093 A 
HETATM   17  N7  UNL     1      25.798  29.317  34.358  1.00  0.00    -0.187 N 
ATOM     18  H7  UNL     1      25.671  30.094  33.709  1.00  0.00     0.184 HD
BRANCH   7  19
HETATM   19  N3  UNL     1      26.285  26.267  36.890  1.00  0.00    -0.383 N 
ATOM     20  H32 UNL     1      26.641  26.428  37.832  1.00  0.00     0.157 HD
ATOM     21  H31 UNL     1      26.058  25.326  36.568  1.00  0.00     0.157 HD
ENDBRANCH   7  19
BRANCH  14  22
HETATM   22  S1  UNL     1      29.088  32.147  37.228  1.00  0.00    -0.114 SA
HETATM   23  C1  UNL     1      29.836  31.917  38.862  1.00  0.00     0.097 C 
ENDBRANCH  14  22
BRANCH  16  24
HETATM   24  C9  UNL     1      27.219  31.791  34.891  1.00  0.00     0.270 C 
HETATM   25  N8  UNL     1      28.202  32.432  34.135  1.00  0.00    -0.057 NA
HETATM   26  O1  UNL     1      26.064  32.365  34.825  1.00  0.00    -0.271 OA
ENDBRANCH  16  24
ENDBRANCH   1   5
TORSDOF 4
ENDMDL
MODEL 5
REMARK VINA RESULT: -7.247647015      2.492      3.681
REMARK  4 active torsions:
REMARK  status: ('A' for Active; 'I' for Inactive)
REMARK    1  A    between atoms: S1_2  and  C2_3 
REMARK    2  A    between atoms: C4_9  and  N3_10 
REMARK    3  A    between atoms: C5_15  and  N5_16 
REMARK    4  A    between atoms: C8_23  and  C9_24 
ROOT
HETATM    1  N5  UNL     1      23.744  26.822  33.512  1.00  0.00    -0.126 N 
ATOM      2  H5  UNL     1      22.894  27.236  33.129  1.00  0.00     0.197 HD
HETATM    3  C6  UNL     1      23.932  25.455  33.342  1.00  0.00     0.196 C 
HETATM    4  N6  UNL     1      24.082  24.307  33.178  1.00  0.00    -0.171 NA
ENDROOT
BRANCH   1   5
HETATM    5  C5  UNL     1      24.560  27.595  34.115  1.00  0.00     0.693 A 
HETATM    6  N4  UNL     1      25.356  27.107  35.074  1.00  0.00    -0.174 N 
HETATM    7  C4  UNL     1      26.220  27.948  35.694  1.00  0.00     0.145 A 
ATOM      8  H4  UNL     1      25.314  26.121  35.332  1.00  0.00     0.186 HD
HETATM    9  C3  UNL     1      26.283  29.278  35.353  1.00  0.00     0.120 A 
HETATM   10  N2  UNL     1      27.155  30.115  35.956  1.00  0.00    -0.294 N 
HETATM   11  C7  UNL     1      25.444  29.752  34.358  1.00  0.00     0.099 A 
HETATM   12  N1  UNL     1      27.254  31.382  35.645  1.00  0.00    -0.293 N 
ATOM     13  H2  UNL     1      27.763  29.743  36.686  1.00  0.00     0.187 HD
HETATM   14  C2  UNL     1      26.479  31.900  34.699  1.00  0.00     0.102 A 
ATOM     15  H1  UNL     1      27.930  31.973  36.130  1.00  0.00     0.187 HD
HETATM   16  C8  UNL     1      25.546  31.091  34.029  1.00  0.00     0.093 A 
HETATM   17  N7  UNL     1      24.593  28.903  33.752  1.00  0.00    -0.187 N 
ATOM     18  H7  UNL     1      23.972  29.243  33.018  1.00  0.00     0.184 HD
BRANCH   7  19
HETATM   19  N3  UNL     1      27.016  27.553  36.626  1.00  0.00    -0.383 N 
ATOM     20  H32 UNL     1      28.030  27.553  36.515  1.00  0.00     0.157 HD
ATOM     21  H31 UNL     1      26.583  27.232  37.492  1.00  0.00     0.157 HD
ENDBRANCH   7  19
BRANCH  14  22
HETATM   22  S1  UNL     1      26.663  33.643  34.317  1.00  0.00    -0.114 SA
HETATM   23  C1  UNL     1      28.088  33.842  33.216  1.00  0.00     0.097 C 
ENDBRANCH  14  22
BRANCH  16  24
HETATM   24  C9  UNL     1      24.735  31.712  33.037  1.00  0.00     0.270 C 
HETATM   25  N8  UNL     1      25.051  32.083  31.729  1.00  0.00    -0.057 NA
HETATM   26  O1  UNL     1      23.515  31.979  33.366  1.00  0.00    -0.271 OA
ENDBRANCH  16  24
ENDBRANCH   1   5
TORSDOF 4
ENDMDL
