MODEL 1
REMARK VINA RESULT: -7.061698818      0.000      0.000
REMARK  6 active torsions:
REMARK  status: ('A' for Active; 'I' for Inactive)
REMARK    1  A    between atoms: C3_3  and  O1_4 
REMARK    2  A    between atoms: C4_6  and  N1_7 
REMARK    3  A    between atoms: N1_7  and  C5_8 
REMARK    4  A    between atoms: C5_8  and  C6_9 
REMARK    5  A    between atoms: C6_9  and  N2_10 
REMARK    6  A    between atoms: C11_17  and  N5_18 
ROOT
HETATM    1  C1  UNL     1      27.751  28.789  38.159  1.00  0.00     0.054 C 
HETATM    2  C2  UNL     1      27.125  29.285  36.886  1.00  0.00     0.003 A 
HETATM    3  C3  UNL     1      26.179  28.437  36.293  1.00  0.00     0.116 A 
HETATM    4  C4  UNL     1      25.413  28.843  35.199  1.00  0.00     0.165 A 
HETATM    5  C9  UNL     1      25.591  30.125  34.706  1.00  0.00     0.116 A 
HETATM    6  N3  UNL     1      24.793  30.575  33.600  1.00  0.00    -0.097 NA
HETATM    7  C10 UNL     1      26.521  30.939  35.297  1.00  0.00     0.101 A 
HETATM    8  N4  UNL     1      26.636  32.228  34.771  1.00  0.00    -0.098 NA
HETATM    9  C11 UNL     1      27.315  30.539  36.392  1.00  0.00     0.067 A 
ENDROOT
BRANCH   9  10
HETATM   10  N5  UNL     1      28.467  31.309  36.745  1.00  0.00    -0.355 N 
HETATM   11  C12 UNL     1      29.764  31.171  36.143  1.00  0.00     0.126 C 
HETATM   12  C13 UNL     1      30.924  30.914  37.047  1.00  0.00     0.047 C 
HETATM   13  C14 UNL     1      30.668  31.630  38.359  1.00  0.00     0.236 C 
HETATM   14  N6  UNL     1      29.821  32.728  38.093  1.00  0.00    -0.059 N 
HETATM   15  C15 UNL     1      28.436  32.349  37.768  1.00  0.00     0.357 C 
ATOM     16  H62 UNL     1      29.839  33.390  38.868  1.00  0.00     0.279 HD
ATOM     17  H61 UNL     1      30.214  33.313  37.356  1.00  0.00     0.279 HD
ENDBRANCH   9  10
BRANCH   3  18
HETATM   18  O1  UNL     1      26.036  27.170  36.840  1.00  0.00    -0.357 OA
ATOM     19  H1  UNL     1      25.173  26.775  36.795  1.00  0.00     0.218 HD
ENDBRANCH   3  18
BRANCH   4  20
HETATM   20  N1  UNL     1      24.629  27.976  34.535  1.00  0.00    -0.415 NA
BRANCH  20  21
HETATM   21  C5  UNL     1      23.939  27.249  33.981  1.00  0.00     0.185 C 
BRANCH  21  22
HETATM   22  C6  UNL     1      24.349  25.769  33.920  1.00  0.00     0.330 C 
BRANCH  22  23
HETATM   23  N2  UNL     1      23.187  24.984  34.162  1.00  0.00     0.085 N 
HETATM   24  C7  UNL     1      23.166  23.741  33.449  1.00  0.00     0.309 C 
HETATM   25  C8  UNL     1      23.037  24.819  35.596  1.00  0.00     0.309 C 
ENDBRANCH  22  23
ENDBRANCH  21  22
ENDBRANCH  20  21
ENDBRANCH   4  20
TORSDOF 6
ENDMDL
MODEL 2
REMARK VINA RESULT: -6.934060838      2.789      7.047
REMARK  6 active torsions:
REMARK  status: ('A' for Active; 'I' for Inactive)
REMARK    1  A    between atoms: C3_3  and  O1_4 
REMARK    2  A    between atoms: C4_6  and  N1_7 
REMARK    3  A    between atoms: N1_7  and  C5_8 
REMARK    4  A    between atoms: C5_8  and  C6_9 
REMARK    5  A    between atoms: C6_9  and  N2_10 
REMARK    6  A    between atoms: C11_17  and  N5_18 
ROOT
HETATM    1  C1  UNL     1      22.668  28.470  33.663  1.00  0.00     0.054 C 
HETATM    2  C2  UNL     1      24.016  28.881  34.185  1.00  0.00     0.003 A 
HETATM    3  C3  UNL     1      24.415  30.193  33.896  1.00  0.00     0.116 A 
HETATM    4  C4  UNL     1      25.569  30.749  34.452  1.00  0.00     0.165 A 
HETATM    5  C9  UNL     1      26.321  29.977  35.322  1.00  0.00     0.116 A 
HETATM    6  N3  UNL     1      27.496  30.538  35.930  1.00  0.00    -0.097 NA
HETATM    7  C10 UNL     1      25.917  28.697  35.591  1.00  0.00     0.101 A 
HETATM    8  N4  UNL     1      26.703  27.978  36.496  1.00  0.00    -0.098 NA
HETATM    9  C11 UNL     1      24.764  28.115  35.025  1.00  0.00     0.067 A 
ENDROOT
BRANCH   9  10
HETATM   10  N5  UNL     1      24.584  26.697  35.095  1.00  0.00    -0.355 N 
HETATM   11  C12 UNL     1      24.801  25.785  34.007  1.00  0.00     0.126 C 
HETATM   12  C13 UNL     1      23.677  24.881  33.625  1.00  0.00     0.047 C 
HETATM   13  C14 UNL     1      22.902  24.534  34.882  1.00  0.00     0.236 C 
HETATM   14  N6  UNL     1      23.788  24.634  35.975  1.00  0.00    -0.059 N 
HETATM   15  C15 UNL     1      24.164  26.017  36.316  1.00  0.00     0.357 C 
ATOM     16  H62 UNL     1      23.406  24.156  36.791  1.00  0.00     0.279 HD
ATOM     17  H61 UNL     1      24.620  24.066  35.816  1.00  0.00     0.279 HD
ENDBRANCH   9  10
BRANCH   3  18
HETATM   18  O1  UNL     1      23.612  30.921  33.030  1.00  0.00    -0.357 OA
ATOM     19  H1  UNL     1      23.479  31.839  33.234  1.00  0.00     0.218 HD
ENDBRANCH   3  18
BRANCH   4  20
HETATM   20  N1  UNL     1      26.033  31.944  34.048  1.00  0.00    -0.415 NA
BRANCH  20  21
HETATM   21  C5  UNL     1      26.404  32.972  33.706  1.00  0.00     0.185 C 
BRANCH  21  22
HETATM   22  C6  UNL     1      25.436  33.863  32.914  1.00  0.00     0.330 C 
BRANCH  22  23
HETATM   23  N2  UNL     1      25.498  33.468  31.547  1.00  0.00     0.085 N 
HETATM   24  C7  UNL     1      24.266  33.636  30.837  1.00  0.00     0.309 C 
HETATM   25  C8  UNL     1      26.613  34.158  30.923  1.00  0.00     0.309 C 
ENDBRANCH  22  23
ENDBRANCH  21  22
ENDBRANCH  20  21
ENDBRANCH   4  20
TORSDOF 6
ENDMDL
MODEL 3
REMARK VINA RESULT: -6.933298845      2.373      3.959
REMARK  6 active torsions:
REMARK  status: ('A' for Active; 'I' for Inactive)
REMARK    1  A    between atoms: C3_3  and  O1_4 
REMARK    2  A    between atoms: C4_6  and  N1_7 
REMARK    3  A    between atoms: N1_7  and  C5_8 
REMARK    4  A    between atoms: C5_8  and  C6_9 
REMARK    5  A    between atoms: C6_9  and  N2_10 
REMARK    6  A    between atoms: C11_17  and  N5_18 
ROOT
HETATM    1  C1  UNL     1      27.508  31.672  35.942  1.00  0.00     0.054 C 
HETATM    2  C2  UNL     1      26.318  31.073  35.246  1.00  0.00     0.003 A 
HETATM    3  C3  UNL     1      26.099  29.706  35.466  1.00  0.00     0.116 A 
HETATM    4  C4  UNL     1      24.947  29.063  35.008  1.00  0.00     0.165 A 
HETATM    5  C9  UNL     1      23.997  29.812  34.334  1.00  0.00     0.116 A 
HETATM    6  N3  UNL     1      22.790  29.179  33.881  1.00  0.00    -0.097 NA
HETATM    7  C10 UNL     1      24.228  31.146  34.128  1.00  0.00     0.101 A 
HETATM    8  N4  UNL     1      23.220  31.852  33.465  1.00  0.00    -0.098 NA
HETATM    9  C11 UNL     1      25.394  31.806  34.568  1.00  0.00     0.067 A 
ENDROOT
BRANCH   9  10
HETATM   10  N5  UNL     1      25.710  33.100  34.046  1.00  0.00    -0.355 N 
HETATM   11  C12 UNL     1      25.416  34.345  34.699  1.00  0.00     0.126 C 
HETATM   12  C13 UNL     1      24.627  35.358  33.937  1.00  0.00     0.047 C 
HETATM   13  C14 UNL     1      24.990  35.233  32.469  1.00  0.00     0.236 C 
HETATM   14  N6  UNL     1      26.298  34.707  32.393  1.00  0.00    -0.059 N 
HETATM   15  C15 UNL     1      26.395  33.288  32.771  1.00  0.00     0.357 C 
ATOM     16  H62 UNL     1      26.690  34.858  31.463  1.00  0.00     0.279 HD
ATOM     17  H61 UNL     1      26.943  35.271  32.946  1.00  0.00     0.279 HD
ENDBRANCH   9  10
BRANCH   3  18
HETATM   18  O1  UNL     1      27.081  29.013  36.160  1.00  0.00    -0.357 OA
ATOM     19  H1  UNL     1      26.857  28.145  36.473  1.00  0.00     0.218 HD
ENDBRANCH   3  18
BRANCH   4  20
HETATM   20  N1  UNL     1      24.819  27.727  35.077  1.00  0.00    -0.415 NA
BRANCH  20  21
HETATM   21  C5  UNL     1      24.684  26.592  35.148  1.00  0.00     0.185 C 
BRANCH  21  22
HETATM   22  C6  UNL     1      24.321  25.827  33.866  1.00  0.00     0.330 C 
BRANCH  22  23
HETATM   23  N2  UNL     1      23.199  24.999  34.155  1.00  0.00     0.085 N 
HETATM   24  C7  UNL     1      23.173  23.775  33.412  1.00  0.00     0.309 C 
HETATM   25  C8  UNL     1      23.140  24.794  35.590  1.00  0.00     0.309 C 
ENDBRANCH  22  23
ENDBRANCH  21  22
ENDBRANCH  20  21
ENDBRANCH   4  20
TORSDOF 6
ENDMDL
MODEL 4
REMARK VINA RESULT: -6.875625043      0.711      1.253
REMARK  6 active torsions:
REMARK  status: ('A' for Active; 'I' for Inactive)
REMARK    1  A    between atoms: C3_3  and  O1_4 
REMARK    2  A    between atoms: C4_6  and  N1_7 
REMARK    3  A    between atoms: N1_7  and  C5_8 
REMARK    4  A    between atoms: C5_8  and  C6_9 
REMARK    5  A    between atoms: C6_9  and  N2_10 
REMARK    6  A    between atoms: C11_17  and  N5_18 
ROOT
HETATM    1  C1  UNL     1      27.704  28.770  38.181  1.00  0.00     0.054 C 
HETATM    2  C2  UNL     1      27.090  29.278  36.907  1.00  0.00     0.003 A 
HETATM    3  C3  UNL     1      26.157  28.432  36.291  1.00  0.00     0.116 A 
HETATM    4  C4  UNL     1      25.401  28.847  35.194  1.00  0.00     0.165 A 
HETATM    5  C9  UNL     1      25.577  30.137  34.720  1.00  0.00     0.116 A 
HETATM    6  N3  UNL     1      24.789  30.596  33.610  1.00  0.00    -0.097 NA
HETATM    7  C10 UNL     1      26.494  30.948  35.332  1.00  0.00     0.101 A 
HETATM    8  N4  UNL     1      26.607  32.246  34.824  1.00  0.00    -0.098 NA
HETATM    9  C11 UNL     1      27.278  30.539  36.431  1.00  0.00     0.067 A 
ENDROOT
BRANCH   9  10
HETATM   10  N5  UNL     1      28.421  31.312  36.807  1.00  0.00    -0.355 N 
HETATM   11  C12 UNL     1      28.432  32.321  37.830  1.00  0.00     0.126 C 
HETATM   12  C13 UNL     1      28.910  33.684  37.453  1.00  0.00     0.047 C 
HETATM   13  C14 UNL     1      29.990  33.532  36.398  1.00  0.00     0.236 C 
HETATM   14  N6  UNL     1      30.589  32.266  36.576  1.00  0.00    -0.059 N 
HETATM   15  C15 UNL     1      29.729  31.137  36.184  1.00  0.00     0.357 C 
ATOM     16  H62 UNL     1      31.483  32.222  36.087  1.00  0.00     0.279 HD
ATOM     17  H61 UNL     1      30.912  32.154  37.537  1.00  0.00     0.279 HD
ENDBRANCH   9  10
BRANCH   3  18
HETATM   18  O1  UNL     1      26.015  27.157  36.821  1.00  0.00    -0.357 OA
ATOM     19  H1  UNL     1      25.591  26.507  36.273  1.00  0.00     0.218 HD
ENDBRANCH   3  18
BRANCH   4  20
HETATM   20  N1  UNL     1      24.630  27.984  34.509  1.00  0.00    -0.415 NA
BRANCH  20  21
HETATM   21  C5  UNL     1      23.963  27.241  33.950  1.00  0.00     0.185 C 
BRANCH  21  22
HETATM   22  C6  UNL     1      24.374  25.760  33.950  1.00  0.00     0.330 C 
BRANCH  22  23
HETATM   23  N2  UNL     1      23.205  24.983  34.192  1.00  0.00     0.085 N 
HETATM   24  C7  UNL     1      23.199  23.719  33.518  1.00  0.00     0.309 C 
HETATM   25  C8  UNL     1      23.024  24.864  35.627  1.00  0.00     0.309 C 
ENDBRANCH  22  23
ENDBRANCH  21  22
ENDBRANCH  20  21
ENDBRANCH   4  20
TORSDOF 6
ENDMDL
MODEL 5
REMARK VINA RESULT: -6.862802209      2.786      7.112
REMARK  6 active torsions:
REMARK  status: ('A' for Active; 'I' for Inactive)
REMARK    1  A    between atoms: C3_3  and  O1_4 
REMARK    2  A    between atoms: C4_6  and  N1_7 
REMARK    3  A    between atoms: N1_7  and  C5_8 
REMARK    4  A    between atoms: C5_8  and  C6_9 
REMARK    5  A    between atoms: C6_9  and  N2_10 
REMARK    6  A    between atoms: C11_17  and  N5_18 
ROOT
HETATM    1  C1  UNL     1      22.674  28.397  33.632  1.00  0.00     0.054 C 
HETATM    2  C2  UNL     1      24.001  28.804  34.209  1.00  0.00     0.003 A 
HETATM    3  C3  UNL     1      24.409  30.120  33.950  1.00  0.00     0.116 A 
HETATM    4  C4  UNL     1      25.540  30.671  34.555  1.00  0.00     0.165 A 
HETATM    5  C9  UNL     1      26.260  29.891  35.443  1.00  0.00     0.116 A 
HETATM    6  N3  UNL     1      27.411  30.446  36.101  1.00  0.00    -0.097 NA
HETATM    7  C10 UNL     1      25.849  28.607  35.682  1.00  0.00     0.101 A 
HETATM    8  N4  UNL     1      26.602  27.879  36.607  1.00  0.00    -0.098 NA
HETATM    9  C11 UNL     1      24.719  28.029  35.067  1.00  0.00     0.067 A 
ENDROOT
BRANCH   9  10
HETATM   10  N5  UNL     1      24.539  26.611  35.114  1.00  0.00    -0.355 N 
HETATM   11  C12 UNL     1      24.779  25.714  34.018  1.00  0.00     0.126 C 
HETATM   12  C13 UNL     1      23.662  24.814  33.602  1.00  0.00     0.047 C 
HETATM   13  C14 UNL     1      22.864  24.449  34.838  1.00  0.00     0.236 C 
HETATM   14  N6  UNL     1      23.728  24.536  35.951  1.00  0.00    -0.059 N 
HETATM   15  C15 UNL     1      24.096  25.913  36.318  1.00  0.00     0.357 C 
ATOM     16  H62 UNL     1      23.330  24.046  36.752  1.00  0.00     0.279 HD
ATOM     17  H61 UNL     1      24.564  23.970  35.800  1.00  0.00     0.279 HD
ENDBRANCH   9  10
BRANCH   3  18
HETATM   18  O1  UNL     1      23.637  30.857  33.063  1.00  0.00    -0.357 OA
ATOM     19  H1  UNL     1      23.091  31.542  33.431  1.00  0.00     0.218 HD
ENDBRANCH   3  18
BRANCH   4  20
HETATM   20  N1  UNL     1      26.017  31.871  34.182  1.00  0.00    -0.415 NA
BRANCH  20  21
HETATM   21  C5  UNL     1      26.398  32.902  33.862  1.00  0.00     0.185 C 
BRANCH  21  22
HETATM   22  C6  UNL     1      25.538  34.129  34.204  1.00  0.00     0.330 C 
BRANCH  22  23
HETATM   23  N2  UNL     1      24.394  34.111  33.356  1.00  0.00     0.085 N 
HETATM   24  C7  UNL     1      23.277  34.843  33.873  1.00  0.00     0.309 C 
HETATM   25  C8  UNL     1      24.799  34.549  32.033  1.00  0.00     0.309 C 
ENDBRANCH  22  23
ENDBRANCH  21  22
ENDBRANCH  20  21
ENDBRANCH   4  20
TORSDOF 6
ENDMDL
