MODEL 1
REMARK VINA RESULT: -4.995291770      0.000      0.000
REMARK  1 active torsions:
REMARK  status: ('A' for Active; 'I' for Inactive)
REMARK    1  A    between atoms: N4_11  and  N5_12 
ROOT
HETATM    1  N1  UNL     1      11.488  32.912  10.530  1.00  0.00    -0.082 NA
HETATM    2  C1  UNL     1      11.050  32.089   9.457  1.00  0.00     0.129 C 
HETATM    3  N2  UNL     1      11.830  31.830   8.506  1.00  0.00    -0.376 N 
ATOM      4  H2  UNL     1      12.759  32.248   8.577  1.00  0.00     0.160 HD
HETATM    5  C2  UNL     1      11.605  31.039   7.343  1.00  0.00     0.140 C 
HETATM    6  C3  UNL     1      10.898  31.735   6.225  1.00  0.00     0.138 C 
HETATM    7  N3  UNL     1       9.528  31.405   6.190  1.00  0.00    -0.396 N 
ATOM      8  H3  UNL     1       9.228  30.528   5.764  1.00  0.00     0.158 HD
HETATM    9  C4  UNL     1       8.575  32.276   6.737  1.00  0.00     0.102 C 
HETATM   10  C5  UNL     1       8.964  33.164   7.842  1.00  0.00     0.132 C 
HETATM   11  N4  UNL     1       8.760  32.558   9.094  1.00  0.00    -0.281 N 
HETATM   12  C6  UNL     1       9.663  31.573   9.527  1.00  0.00     0.159 C 
ENDROOT
BRANCH  11  13
HETATM   13  N5  UNL     1       7.499  32.548   9.604  1.00  0.00    -0.339 N 
ATOM     14  H52 UNL     1       6.961  33.414   9.583  1.00  0.00     0.177 HD
ATOM     15  H51 UNL     1       7.268  31.840  10.301  1.00  0.00     0.177 HD
ENDBRANCH  11  13
TORSDOF 1
ENDMDL
MODEL 2
REMARK VINA RESULT: -4.687704890      1.647      1.826
REMARK  1 active torsions:
REMARK  status: ('A' for Active; 'I' for Inactive)
REMARK    1  A    between atoms: N4_11  and  N5_12 
ROOT
HETATM    1  N1  UNL     1      12.324  32.883   8.873  1.00  0.00    -0.082 NA
HETATM    2  C1  UNL     1      11.740  31.834   8.112  1.00  0.00     0.129 C 
HETATM    3  N2  UNL     1      12.471  31.070   7.432  1.00  0.00    -0.376 N 
ATOM      4  H2  UNL     1      13.471  31.267   7.479  1.00  0.00     0.160 HD
HETATM    5  C2  UNL     1      12.105  29.968   6.606  1.00  0.00     0.140 C 
HETATM    6  C3  UNL     1      11.652  30.327   5.228  1.00  0.00     0.138 C 
HETATM    7  N3  UNL     1      10.246  30.320   5.123  1.00  0.00    -0.396 N 
ATOM      8  H3  UNL     1       9.752  29.436   4.999  1.00  0.00     0.158 HD
HETATM    9  C4  UNL     1       9.524  31.519   5.188  1.00  0.00     0.102 C 
HETATM   10  C5  UNL     1      10.076  32.650   5.949  1.00  0.00     0.132 C 
HETATM   11  N4  UNL     1       9.666  32.624   7.292  1.00  0.00    -0.281 N 
HETATM   12  C6  UNL     1      10.266  31.703   8.168  1.00  0.00     0.159 C 
ENDROOT
BRANCH  11  13
HETATM   13  N5  UNL     1       8.423  33.085   7.593  1.00  0.00    -0.339 N 
ATOM     14  H52 UNL     1       7.745  33.181   6.837  1.00  0.00     0.177 HD
ATOM     15  H51 UNL     1       8.311  33.657   8.430  1.00  0.00     0.177 HD
ENDBRANCH  11  13
TORSDOF 1
ENDMDL
MODEL 3
REMARK VINA RESULT: -4.464357803      1.347      3.180
REMARK  1 active torsions:
REMARK  status: ('A' for Active; 'I' for Inactive)
REMARK    1  A    between atoms: N4_11  and  N5_12 
ROOT
HETATM    1  N1  UNL     1      11.567  30.483   6.284  1.00  0.00    -0.082 NA
HETATM    2  C1  UNL     1      11.090  31.304   7.341  1.00  0.00     0.129 C 
HETATM    3  N2  UNL     1      10.936  30.820   8.492  1.00  0.00    -0.376 N 
ATOM      4  H2  UNL     1      11.175  29.832   8.585  1.00  0.00     0.160 HD
HETATM    5  C2  UNL     1      10.476  31.450   9.683  1.00  0.00     0.140 C 
HETATM    6  C3  UNL     1       8.991  31.555   9.817  1.00  0.00     0.138 C 
HETATM    7  N3  UNL     1       8.525  32.839   9.469  1.00  0.00    -0.396 N 
ATOM      8  H3  UNL     1       8.587  33.601  10.144  1.00  0.00     0.158 HD
HETATM    9  C4  UNL     1       7.978  33.075   8.201  1.00  0.00     0.102 C 
HETATM   10  C5  UNL     1       8.419  32.254   7.063  1.00  0.00     0.132 C 
HETATM   11  N4  UNL     1       9.528  32.819   6.412  1.00  0.00    -0.281 N 
HETATM   12  C6  UNL     1      10.794  32.718   7.015  1.00  0.00     0.159 C 
ENDROOT
BRANCH  11  13
HETATM   13  N5  UNL     1       9.309  33.836   5.536  1.00  0.00    -0.339 N 
ATOM     14  H52 UNL     1      10.015  34.023   4.824  1.00  0.00     0.177 HD
ATOM     15  H51 UNL     1       8.685  34.590   5.821  1.00  0.00     0.177 HD
ENDBRANCH  11  13
TORSDOF 1
ENDMDL
MODEL 4
REMARK VINA RESULT: -4.372938678      1.750      3.993
REMARK  1 active torsions:
REMARK  status: ('A' for Active; 'I' for Inactive)
REMARK    1  A    between atoms: N4_11  and  N5_12 
ROOT
HETATM    1  N1  UNL     1      10.339  33.872   5.511  1.00  0.00    -0.082 NA
HETATM    2  C1  UNL     1       9.768  32.897   6.374  1.00  0.00     0.129 C 
HETATM    3  N2  UNL     1       8.850  33.223   7.169  1.00  0.00    -0.376 N 
ATOM      4  H2  UNL     1       8.571  34.204   7.135  1.00  0.00     0.160 HD
HETATM    5  C2  UNL     1       8.142  32.421   8.110  1.00  0.00     0.140 C 
HETATM    6  C3  UNL     1       8.837  32.209   9.416  1.00  0.00     0.138 C 
HETATM    7  N3  UNL     1       9.473  30.951   9.470  1.00  0.00    -0.396 N 
ATOM      8  H3  UNL     1       8.927  30.116   9.684  1.00  0.00     0.158 HD
HETATM    9  C4  UNL     1      10.849  30.843   9.232  1.00  0.00     0.102 C 
HETATM   10  C5  UNL     1      11.508  31.825   8.359  1.00  0.00     0.132 C 
HETATM   11  N4  UNL     1      11.498  31.416   7.014  1.00  0.00    -0.281 N 
HETATM   12  C6  UNL     1      10.304  31.519   6.281  1.00  0.00     0.159 C 
ENDROOT
BRANCH  11  13
HETATM   13  N5  UNL     1      12.425  30.505   6.614  1.00  0.00    -0.339 N 
ATOM     14  H52 UNL     1      13.409  30.702   6.798  1.00  0.00     0.177 HD
ATOM     15  H51 UNL     1      12.183  29.877   5.849  1.00  0.00     0.177 HD
ENDBRANCH  11  13
TORSDOF 1
ENDMDL
MODEL 5
REMARK VINA RESULT: -4.289624603      1.582      3.186
REMARK  1 active torsions:
REMARK  status: ('A' for Active; 'I' for Inactive)
REMARK    1  A    between atoms: N4_11  and  N5_12 
ROOT
HETATM    1  N1  UNL     1      10.401  30.582   5.136  1.00  0.00    -0.082 NA
HETATM    2  C1  UNL     1      10.882  31.238   6.302  1.00  0.00     0.129 C 
HETATM    3  N2  UNL     1      11.738  30.674   7.031  1.00  0.00    -0.376 N 
ATOM      4  H2  UNL     1      12.036  29.750   6.719  1.00  0.00     0.160 HD
HETATM    5  C2  UNL     1      12.351  31.140   8.230  1.00  0.00     0.140 C 
HETATM    6  C3  UNL     1      11.548  30.943   9.474  1.00  0.00     0.138 C 
HETATM    7  N3  UNL     1      10.886  32.126   9.861  1.00  0.00    -0.396 N 
ATOM      8  H3  UNL     1      11.397  32.850  10.367  1.00  0.00     0.158 HD
HETATM    9  C4  UNL     1       9.532  32.314   9.554  1.00  0.00     0.102 C 
HETATM   10  C5  UNL     1       8.966  31.655   8.368  1.00  0.00     0.132 C 
HETATM   11  N4  UNL     1       9.078  32.460   7.221  1.00  0.00    -0.281 N 
HETATM   12  C6  UNL     1      10.330  32.580   6.595  1.00  0.00     0.159 C 
ENDROOT
BRANCH  11  13
HETATM   13  N5  UNL     1       8.170  33.458   7.046  1.00  0.00    -0.339 N 
ATOM     14  H52 UNL     1       7.288  33.234   6.586  1.00  0.00     0.177 HD
ATOM     15  H51 UNL     1       8.510  34.419   7.021  1.00  0.00     0.177 HD
ENDBRANCH  11  13
TORSDOF 1
ENDMDL
