MODEL 1
REMARK VINA RESULT: -8.334645729      0.000      0.000
REMARK  1 active torsions:
REMARK  status: ('A' for Active; 'I' for Inactive)
REMARK    1  A    between atoms: O1_1  and  C1_3 
ROOT
HETATM    1  C1  UNL     1      18.950  -6.926  39.823  1.00  0.00     0.066 A 
HETATM    2  C2  UNL     1      20.283  -6.696  39.733  1.00  0.00     0.039 A 
HETATM    3  C3  UNL     1      21.112  -7.261  40.679  1.00  0.00     0.034 A 
HETATM    4  C4  UNL     1      20.621  -8.044  41.697  1.00  0.00     0.051 A 
HETATM    5  C5  UNL     1      19.239  -8.273  41.773  1.00  0.00     0.022 A 
HETATM    6  C6  UNL     1      18.394  -7.720  40.841  1.00  0.00     0.052 A 
HETATM    7  C7  UNL     1      18.720  -9.057  42.787  1.00  0.00     0.064 A 
HETATM    8  N1  UNL     1      17.500  -9.464  43.143  1.00  0.00    -0.321 N 
HETATM    9  C8  UNL     1      16.282  -9.268  42.648  1.00  0.00     0.097 A 
HETATM   10  C9  UNL     1      15.149  -9.831  43.241  1.00  0.00     0.018 A 
HETATM   11  C10 UNL     1      15.236 -10.612  44.359  1.00  0.00     0.004 A 
HETATM   12  C11 UNL     1      16.497 -10.816  44.872  1.00  0.00     0.030 A 
HETATM   13  C12 UNL     1      17.608 -10.244  44.262  1.00  0.00     0.040 A 
HETATM   14  C13 UNL     1      18.912 -10.350  44.644  1.00  0.00     0.046 A 
HETATM   15  C14 UNL     1      19.675  -9.621  43.753  1.00  0.00     0.021 A 
HETATM   16  C15 UNL     1      20.996  -9.358  43.616  1.00  0.00     0.051 A 
HETATM   17  C16 UNL     1      21.840  -9.913  44.550  1.00  0.00     0.031 A 
HETATM   18  C17 UNL     1      23.185  -9.680  44.460  1.00  0.00     0.004 A 
HETATM   19  C18 UNL     1      23.635  -8.893  43.432  1.00  0.00     0.018 A 
HETATM   20  C19 UNL     1      22.774  -8.344  42.503  1.00  0.00     0.097 A 
HETATM   21  N2  UNL     1      21.460  -8.595  42.624  1.00  0.00    -0.321 N 
ENDROOT
BRANCH   1  22
HETATM   22  O1  UNL     1      18.067  -6.375  38.886  1.00  0.00    -0.361 OA
ATOM     23  H1  UNL     1      17.193  -6.109  39.145  1.00  0.00     0.217 HD
ENDBRANCH   1  22
TORSDOF 1
ENDMDL
MODEL 2
REMARK VINA RESULT: -8.332429437      2.564      4.583
REMARK  1 active torsions:
REMARK  status: ('A' for Active; 'I' for Inactive)
REMARK    1  A    between atoms: O1_1  and  C1_3 
ROOT
HETATM    1  C1  UNL     1      20.121 -10.599  44.234  1.00  0.00     0.066 A 
HETATM    2  C2  UNL     1      21.446 -10.714  44.500  1.00  0.00     0.039 A 
HETATM    3  C3  UNL     1      22.334  -9.990  43.733  1.00  0.00     0.034 A 
HETATM    4  C4  UNL     1      21.911  -9.165  42.718  1.00  0.00     0.051 A 
HETATM    5  C5  UNL     1      20.537  -9.059  42.457  1.00  0.00     0.022 A 
HETATM    6  C6  UNL     1      19.633  -9.771  43.209  1.00  0.00     0.052 A 
HETATM    7  C7  UNL     1      20.085  -8.236  41.442  1.00  0.00     0.064 A 
HETATM    8  N1  UNL     1      18.890  -7.913  40.943  1.00  0.00    -0.321 N 
HETATM    9  C8  UNL     1      17.642  -8.264  41.236  1.00  0.00     0.097 A 
HETATM   10  C9  UNL     1      16.550  -7.756  40.529  1.00  0.00     0.018 A 
HETATM   11  C10 UNL     1      16.709  -6.872  39.500  1.00  0.00     0.004 A 
HETATM   12  C11 UNL     1      18.001  -6.506  39.195  1.00  0.00     0.030 A 
HETATM   13  C12 UNL     1      19.070  -7.027  39.915  1.00  0.00     0.040 A 
HETATM   14  C13 UNL     1      20.396  -6.767  39.739  1.00  0.00     0.046 A 
HETATM   15  C14 UNL     1      21.101  -7.501  40.674  1.00  0.00     0.021 A 
HETATM   16  C15 UNL     1      22.410  -7.653  40.982  1.00  0.00     0.051 A 
HETATM   17  C16 UNL     1      23.313  -6.939  40.229  1.00  0.00     0.031 A 
HETATM   18  C17 UNL     1      24.649  -7.055  40.497  1.00  0.00     0.004 A 
HETATM   19  C18 UNL     1      25.032  -7.887  41.516  1.00  0.00     0.018 A 
HETATM   20  C19 UNL     1      24.112  -8.597  42.264  1.00  0.00     0.097 A 
HETATM   21  N2  UNL     1      22.808  -8.457  41.970  1.00  0.00    -0.321 N 
ENDROOT
BRANCH   1  22
HETATM   22  O1  UNL     1      19.180 -11.313  44.985  1.00  0.00    -0.361 OA
ATOM     23  H1  UNL     1      19.456 -12.005  45.574  1.00  0.00     0.217 HD
ENDBRANCH   1  22
TORSDOF 1
ENDMDL
MODEL 3
REMARK VINA RESULT: -8.219192770      2.659      6.376
REMARK  1 active torsions:
REMARK  status: ('A' for Active; 'I' for Inactive)
REMARK    1  A    between atoms: O1_1  and  C1_3 
ROOT
HETATM    1  C1  UNL     1      16.895 -10.609  44.224  1.00  0.00     0.066 A 
HETATM    2  C2  UNL     1      15.692 -10.004  44.385  1.00  0.00     0.039 A 
HETATM    3  C3  UNL     1      15.442  -8.844  43.682  1.00  0.00     0.034 A 
HETATM    4  C4  UNL     1      16.374  -8.296  42.833  1.00  0.00     0.051 A 
HETATM    5  C5  UNL     1      17.613  -8.936  42.680  1.00  0.00     0.022 A 
HETATM    6  C6  UNL     1      17.884 -10.093  43.369  1.00  0.00     0.052 A 
HETATM    7  C7  UNL     1      18.567  -8.406  41.832  1.00  0.00     0.064 A 
HETATM    8  N1  UNL     1      19.805  -8.745  41.464  1.00  0.00    -0.321 N 
HETATM    9  C8  UNL     1      20.618  -9.749  41.778  1.00  0.00     0.097 A 
HETATM   10  C9  UNL     1      21.897  -9.858  41.227  1.00  0.00     0.018 A 
HETATM   11  C10 UNL     1      22.377  -8.940  40.337  1.00  0.00     0.004 A 
HETATM   12  C11 UNL     1      21.536  -7.900  40.010  1.00  0.00     0.030 A 
HETATM   13  C12 UNL     1      20.268  -7.814  40.573  1.00  0.00     0.040 A 
HETATM   14  C13 UNL     1      19.324  -6.855  40.355  1.00  0.00     0.046 A 
HETATM   15  C14 UNL     1      18.218  -7.166  41.121  1.00  0.00     0.021 A 
HETATM   16  C15 UNL     1      17.002  -6.604  41.319  1.00  0.00     0.051 A 
HETATM   17  C16 UNL     1      16.733  -5.446  40.628  1.00  0.00     0.031 A 
HETATM   18  C17 UNL     1      15.520  -4.835  40.790  1.00  0.00     0.004 A 
HETATM   19  C18 UNL     1      14.617  -5.412  41.645  1.00  0.00     0.018 A 
HETATM   20  C19 UNL     1      14.904  -6.576  42.332  1.00  0.00     0.097 A 
HETATM   21  N2  UNL     1      16.106  -7.146  42.147  1.00  0.00    -0.321 N 
ENDROOT
BRANCH   1  22
HETATM   22  O1  UNL     1      17.197 -11.789  44.915  1.00  0.00    -0.361 OA
ATOM     23  H1  UNL     1      17.326 -11.779  45.856  1.00  0.00     0.217 HD
ENDBRANCH   1  22
TORSDOF 1
ENDMDL
MODEL 4
REMARK VINA RESULT: -8.120973168      1.761      5.260
REMARK  1 active torsions:
REMARK  status: ('A' for Active; 'I' for Inactive)
REMARK    1  A    between atoms: O1_1  and  C1_3 
ROOT
HETATM    1  C1  UNL     1      16.415  -5.418  41.380  1.00  0.00     0.066 A 
HETATM    2  C2  UNL     1      15.174  -5.818  41.753  1.00  0.00     0.039 A 
HETATM    3  C3  UNL     1      15.057  -6.952  42.529  1.00  0.00     0.034 A 
HETATM    4  C4  UNL     1      16.156  -7.675  42.927  1.00  0.00     0.051 A 
HETATM    5  C5  UNL     1      17.432  -7.246  42.531  1.00  0.00     0.022 A 
HETATM    6  C6  UNL     1      17.573  -6.119  41.759  1.00  0.00     0.052 A 
HETATM    7  C7  UNL     1      18.553  -7.955  42.919  1.00  0.00     0.064 A 
HETATM    8  N1  UNL     1      19.868  -7.831  42.727  1.00  0.00    -0.321 N 
HETATM    9  C8  UNL     1      20.627  -6.956  42.075  1.00  0.00     0.097 A 
HETATM   10  C9  UNL     1      22.018  -7.073  42.039  1.00  0.00     0.018 A 
HETATM   11  C10 UNL     1      22.670  -8.092  42.673  1.00  0.00     0.004 A 
HETATM   12  C11 UNL     1      21.886  -8.999  43.350  1.00  0.00     0.030 A 
HETATM   13  C12 UNL     1      20.504  -8.859  43.370  1.00  0.00     0.040 A 
HETATM   14  C13 UNL     1      19.596  -9.666  43.989  1.00  0.00     0.046 A 
HETATM   15  C14 UNL     1      18.337  -9.153  43.745  1.00  0.00     0.021 A 
HETATM   16  C15 UNL     1      17.076  -9.507  44.088  1.00  0.00     0.051 A 
HETATM   17  C16 UNL     1      16.936 -10.636  44.862  1.00  0.00     0.031 A 
HETATM   18  C17 UNL     1      15.685 -11.040  45.238  1.00  0.00     0.004 A 
HETATM   19  C18 UNL     1      14.614 -10.293  44.821  1.00  0.00     0.018 A 
HETATM   20  C19 UNL     1      14.772  -9.162  44.044  1.00  0.00     0.097 A 
HETATM   21  N2  UNL     1      16.017  -8.797  43.695  1.00  0.00    -0.321 N 
ENDROOT
BRANCH   1  22
HETATM   22  O1  UNL     1      16.587  -4.273  40.593  1.00  0.00    -0.361 OA
ATOM     23  H1  UNL     1      15.872  -3.661  40.467  1.00  0.00     0.217 HD
ENDBRANCH   1  22
TORSDOF 1
ENDMDL
MODEL 5
REMARK VINA RESULT: -8.107325267      2.090      5.842
REMARK  1 active torsions:
REMARK  status: ('A' for Active; 'I' for Inactive)
REMARK    1  A    between atoms: O1_1  and  C1_3 
ROOT
HETATM    1  C1  UNL     1      16.741 -10.468  44.405  1.00  0.00     0.066 A 
HETATM    2  C2  UNL     1      15.706 -10.054  43.632  1.00  0.00     0.039 A 
HETATM    3  C3  UNL     1      15.980  -9.258  42.540  1.00  0.00     0.034 A 
HETATM    4  C4  UNL     1      17.263  -8.882  42.222  1.00  0.00     0.051 A 
HETATM    5  C5  UNL     1      18.321  -9.320  43.032  1.00  0.00     0.022 A 
HETATM    6  C6  UNL     1      18.072 -10.114  44.125  1.00  0.00     0.052 A 
HETATM    7  C7  UNL     1      19.621  -8.955  42.733  1.00  0.00     0.064 A 
HETATM    8  N1  UNL     1      20.820  -9.187  43.271  1.00  0.00    -0.321 N 
HETATM    9  C8  UNL     1      21.239  -9.876  44.329  1.00  0.00     0.097 A 
HETATM   10  C9  UNL     1      22.591  -9.950  44.668  1.00  0.00     0.018 A 
HETATM   11  C10 UNL     1      23.553  -9.320  43.931  1.00  0.00     0.004 A 
HETATM   12  C11 UNL     1      23.121  -8.606  42.835  1.00  0.00     0.030 A 
HETATM   13  C12 UNL     1      21.769  -8.549  42.520  1.00  0.00     0.040 A 
HETATM   14  C13 UNL     1      21.186  -7.891  41.477  1.00  0.00     0.046 A 
HETATM   15  C14 UNL     1      19.823  -8.105  41.550  1.00  0.00     0.021 A 
HETATM   16  C15 UNL     1      18.753  -7.720  40.814  1.00  0.00     0.051 A 
HETATM   17  C16 UNL     1      19.005  -6.926  39.720  1.00  0.00     0.031 A 
HETATM   18  C17 UNL     1      17.962  -6.508  38.941  1.00  0.00     0.004 A 
HETATM   19  C18 UNL     1      16.697  -6.904  39.292  1.00  0.00     0.018 A 
HETATM   20  C19 UNL     1      16.462  -7.702  40.394  1.00  0.00     0.097 A 
HETATM   21  N2  UNL     1      17.513  -8.092  41.135  1.00  0.00    -0.321 N 
ENDROOT
BRANCH   1  22
HETATM   22  O1  UNL     1      16.514 -11.277  45.524  1.00  0.00    -0.361 OA
ATOM     23  H1  UNL     1      15.715 -11.784  45.601  1.00  0.00     0.217 HD
ENDBRANCH   1  22
TORSDOF 1
ENDMDL
