MODEL 1
REMARK VINA RESULT: -9.487130120      0.000      0.000
REMARK  1 active torsions:
REMARK  status: ('A' for Active; 'I' for Inactive)
REMARK    1  A    between atoms: N1_2  and  C2_4 
ROOT
HETATM    1  C2  UNL     1      18.090  -8.039  43.164  1.00  0.00     0.058 A 
HETATM    2  C3  UNL     1      19.437  -8.455  43.319  1.00  0.00     0.047 A 
HETATM    3  C4  UNL     1      19.768  -9.621  43.925  1.00  0.00     0.060 A 
HETATM    4  N2  UNL     1      18.779 -10.396  44.388  1.00  0.00    -0.354 N 
ATOM      5  H2  UNL     1      19.014 -11.277  44.846  1.00  0.00     0.166 HD
HETATM    6  C5  UNL     1      17.480 -10.050  44.269  1.00  0.00     0.045 A 
HETATM    7  C6  UNL     1      16.510 -10.917  44.779  1.00  0.00     0.030 A 
HETATM    8  C7  UNL     1      15.166 -10.646  44.702  1.00  0.00     0.002 A 
HETATM    9  C8  UNL     1      14.835  -9.461  44.085  1.00  0.00     0.001 A 
HETATM   10  C9  UNL     1      15.771  -8.581  43.570  1.00  0.00     0.016 A 
HETATM   11  C10 UNL     1      17.118  -8.883  43.663  1.00  0.00     0.018 A 
HETATM   12  C11 UNL     1      21.211  -9.372  43.721  1.00  0.00     0.020 A 
HETATM   13  C12 UNL     1      22.536  -9.760  43.862  1.00  0.00     0.029 A 
HETATM   14  C13 UNL     1      23.523  -8.942  43.375  1.00  0.00    -0.009 A 
HETATM   15  C14 UNL     1      24.841  -9.299  43.500  1.00  0.00     0.014 A 
HETATM   16  C15 UNL     1      25.870  -8.507  43.027  1.00  0.00     0.001 A 
HETATM   17  C16 UNL     1      25.531  -7.323  42.411  1.00  0.00     0.002 A 
HETATM   18  C17 UNL     1      24.206  -6.975  42.291  1.00  0.00     0.030 A 
HETATM   19  C18 UNL     1      23.164  -7.761  42.762  1.00  0.00     0.043 A 
HETATM   20  N3  UNL     1      21.863  -7.402  42.635  1.00  0.00    -0.354 N 
ATOM     21  H3  UNL     1      21.631  -6.521  42.176  1.00  0.00     0.166 HD
HETATM   22  C19 UNL     1      20.856  -8.192  43.108  1.00  0.00     0.060 A 
ENDROOT
BRANCH   1  23
HETATM   23  N1  UNL     1      17.882  -6.989  42.614  1.00  0.00    -0.374 N 
HETATM   24  C1  UNL     1      17.843  -5.639  42.607  1.00  0.00     0.118 C 
ATOM     25  H1  UNL     1      17.583  -7.254  41.674  1.00  0.00     0.164 HD
ENDBRANCH   1  23
TORSDOF 1
ENDMDL
MODEL 2
REMARK VINA RESULT: -9.370243981      1.461      1.461
REMARK  1 active torsions:
REMARK  status: ('A' for Active; 'I' for Inactive)
REMARK    1  A    between atoms: N1_2  and  C2_4 
ROOT
HETATM    1  C2  UNL     1      18.114  -9.340  41.915  1.00  0.00     0.058 A 
HETATM    2  C3  UNL     1      19.462  -9.453  42.341  1.00  0.00     0.047 A 
HETATM    3  C4  UNL     1      19.797  -9.984  43.543  1.00  0.00     0.060 A 
HETATM    4  N2  UNL     1      18.812 -10.411  44.343  1.00  0.00    -0.354 N 
ATOM      5  H2  UNL     1      19.051 -10.813  45.250  1.00  0.00     0.166 HD
HETATM    6  C5  UNL     1      17.512 -10.326  43.988  1.00  0.00     0.045 A 
HETATM    7  C6  UNL     1      16.547 -10.795  44.883  1.00  0.00     0.030 A 
HETATM    8  C7  UNL     1      15.202 -10.750  44.606  1.00  0.00     0.002 A 
HETATM    9  C8  UNL     1      14.866 -10.211  43.385  1.00  0.00     0.001 A 
HETATM   10  C9  UNL     1      15.799  -9.738  42.478  1.00  0.00     0.016 A 
HETATM   11  C10 UNL     1      17.146  -9.798  42.786  1.00  0.00     0.018 A 
HETATM   12  C11 UNL     1      21.238  -9.777  43.284  1.00  0.00     0.020 A 
HETATM   13  C12 UNL     1      22.564  -9.879  43.681  1.00  0.00     0.029 A 
HETATM   14  C13 UNL     1      23.547  -9.433  42.836  1.00  0.00    -0.009 A 
HETATM   15  C14 UNL     1      24.866  -9.521  43.202  1.00  0.00     0.014 A 
HETATM   16  C15 UNL     1      25.890  -9.084  42.385  1.00  0.00     0.001 A 
HETATM   17  C16 UNL     1      25.547  -8.545  41.165  1.00  0.00     0.002 A 
HETATM   18  C17 UNL     1      24.221  -8.462  40.808  1.00  0.00     0.030 A 
HETATM   19  C18 UNL     1      23.184  -8.897  41.620  1.00  0.00     0.043 A 
HETATM   20  N3  UNL     1      21.882  -8.807  41.252  1.00  0.00    -0.354 N 
ATOM     21  H3  UNL     1      21.647  -8.406  40.344  1.00  0.00     0.166 HD
HETATM   22  C19 UNL     1      20.879  -9.242  42.068  1.00  0.00     0.060 A 
ENDROOT
BRANCH   1  23
HETATM   23  N1  UNL     1      17.902  -8.857  40.833  1.00  0.00    -0.374 N 
HETATM   24  C1  UNL     1      17.827  -7.795  40.000  1.00  0.00     0.118 C 
ATOM     25  H1  UNL     1      17.650  -9.654  40.248  1.00  0.00     0.164 HD
ENDBRANCH   1  23
TORSDOF 1
ENDMDL
MODEL 3
REMARK VINA RESULT: -9.034295446      1.724      7.385
REMARK  1 active torsions:
REMARK  status: ('A' for Active; 'I' for Inactive)
REMARK    1  A    between atoms: N1_2  and  C2_4 
ROOT
HETATM    1  C2  UNL     1      22.829  -9.292  42.483  1.00  0.00     0.058 A 
HETATM    2  C3  UNL     1      21.675  -8.470  42.556  1.00  0.00     0.047 A 
HETATM    3  C4  UNL     1      21.755  -7.125  42.711  1.00  0.00     0.060 A 
HETATM    4  N2  UNL     1      22.971  -6.570  42.798  1.00  0.00    -0.354 N 
ATOM      5  H2  UNL     1      23.045  -5.559  42.914  1.00  0.00     0.166 HD
HETATM    6  C5  UNL     1      24.102  -7.305  42.736  1.00  0.00     0.045 A 
HETATM    7  C6  UNL     1      25.329  -6.645  42.834  1.00  0.00     0.030 A 
HETATM    8  C7  UNL     1      26.530  -7.312  42.780  1.00  0.00     0.002 A 
HETATM    9  C8  UNL     1      26.443  -8.676  42.623  1.00  0.00     0.001 A 
HETATM   10  C9  UNL     1      25.243  -9.358  42.522  1.00  0.00     0.016 A 
HETATM   11  C10 UNL     1      24.051  -8.659  42.579  1.00  0.00     0.018 A 
HETATM   12  C11 UNL     1      20.283  -6.990  42.699  1.00  0.00     0.020 A 
HETATM   13  C12 UNL     1      19.141  -6.203  42.767  1.00  0.00     0.029 A 
HETATM   14  C13 UNL     1      17.914  -6.805  42.675  1.00  0.00    -0.009 A 
HETATM   15  C14 UNL     1      16.768  -6.054  42.739  1.00  0.00     0.014 A 
HETATM   16  C15 UNL     1      15.509  -6.616  42.651  1.00  0.00     0.001 A 
HETATM   17  C16 UNL     1      15.431  -7.982  42.493  1.00  0.00     0.002 A 
HETATM   18  C17 UNL     1      16.586  -8.725  42.430  1.00  0.00     0.030 A 
HETATM   19  C18 UNL     1      17.855  -8.174  42.517  1.00  0.00     0.043 A 
HETATM   20  N3  UNL     1      18.983  -8.922  42.453  1.00  0.00    -0.354 N 
ATOM     21  H3  UNL     1      18.906  -9.932  42.335  1.00  0.00     0.166 HD
HETATM   22  C19 UNL     1      20.221  -8.355  42.542  1.00  0.00     0.060 A 
ENDROOT
BRANCH   1  23
HETATM   23  N1  UNL     1      22.670 -10.477  42.345  1.00  0.00    -0.374 N 
HETATM   24  C1  UNL     1      21.968 -11.536  41.885  1.00  0.00     0.118 C 
ATOM     25  H1  UNL     1      23.475 -10.894  42.813  1.00  0.00     0.164 HD
ENDBRANCH   1  23
TORSDOF 1
ENDMDL
MODEL 4
REMARK VINA RESULT: -9.007306953      2.747      7.515
REMARK  1 active torsions:
REMARK  status: ('A' for Active; 'I' for Inactive)
REMARK    1  A    between atoms: N1_2  and  C2_4 
ROOT
HETATM    1  C2  UNL     1      23.133  -8.630  42.971  1.00  0.00     0.058 A 
HETATM    2  C3  UNL     1      22.133  -8.081  42.128  1.00  0.00     0.047 A 
HETATM    3  C4  UNL     1      22.332  -6.944  41.416  1.00  0.00     0.060 A 
HETATM    4  N2  UNL     1      23.518  -6.331  41.523  1.00  0.00    -0.354 N 
ATOM      5  H2  UNL     1      23.681  -5.475  40.993  1.00  0.00     0.166 HD
HETATM    6  C5  UNL     1      24.504  -6.809  42.311  1.00  0.00     0.045 A 
HETATM    7  C6  UNL     1      25.711  -6.107  42.365  1.00  0.00     0.030 A 
HETATM    8  C7  UNL     1      26.769  -6.519  43.139  1.00  0.00     0.002 A 
HETATM    9  C8  UNL     1      26.562  -7.674  43.859  1.00  0.00     0.001 A 
HETATM   10  C9  UNL     1      25.379  -8.391  43.826  1.00  0.00     0.016 A 
HETATM   11  C10 UNL     1      24.332  -7.950  43.038  1.00  0.00     0.018 A 
HETATM   12  C11 UNL     1      20.971  -7.010  40.843  1.00  0.00     0.020 A 
HETATM   13  C12 UNL     1      19.979  -6.489  40.023  1.00  0.00     0.029 A 
HETATM   14  C13 UNL     1      18.777  -7.144  39.937  1.00  0.00    -0.009 A 
HETATM   15  C14 UNL     1      17.779  -6.653  39.135  1.00  0.00     0.014 A 
HETATM   16  C15 UNL     1      16.552  -7.278  39.017  1.00  0.00     0.001 A 
HETATM   17  C16 UNL     1      16.352  -8.432  39.741  1.00  0.00     0.002 A 
HETATM   18  C17 UNL     1      17.361  -8.915  40.541  1.00  0.00     0.030 A 
HETATM   19  C18 UNL     1      18.596  -8.298  40.669  1.00  0.00     0.043 A 
HETATM   20  N3  UNL     1      19.579  -8.788  41.463  1.00  0.00    -0.354 N 
ATOM     21  H3  UNL     1      19.413  -9.645  41.991  1.00  0.00     0.166 HD
HETATM   22  C19 UNL     1      20.786  -8.162  41.572  1.00  0.00     0.060 A 
ENDROOT
BRANCH   1  23
HETATM   23  N1  UNL     1      22.875  -9.643  43.568  1.00  0.00    -0.374 N 
HETATM   24  C1  UNL     1      22.047 -10.400  44.321  1.00  0.00     0.118 C 
ATOM     25  H1  UNL     1      23.702 -10.226  43.441  1.00  0.00     0.164 HD
ENDBRANCH   1  23
TORSDOF 1
ENDMDL
MODEL 5
REMARK VINA RESULT: -8.993586464      1.859      1.892
REMARK  1 active torsions:
REMARK  status: ('A' for Active; 'I' for Inactive)
REMARK    1  A    between atoms: N1_2  and  C2_4 
ROOT
HETATM    1  C2  UNL     1      17.455  -8.295  42.733  1.00  0.00     0.058 A 
HETATM    2  C3  UNL     1      18.739  -8.685  42.273  1.00  0.00     0.047 A 
HETATM    3  C4  UNL     1      19.009  -9.952  41.875  1.00  0.00     0.060 A 
HETATM    4  N2  UNL     1      18.021 -10.855  41.924  1.00  0.00    -0.354 N 
ATOM      5  H2  UNL     1      18.211 -11.812  41.626  1.00  0.00     0.166 HD
HETATM    6  C5  UNL     1      16.782 -10.539  42.354  1.00  0.00     0.045 A 
HETATM    7  C6  UNL     1      15.809 -11.542  42.374  1.00  0.00     0.030 A 
HETATM    8  C7  UNL     1      14.522 -11.311  42.795  1.00  0.00     0.002 A 
HETATM    9  C8  UNL     1      14.252 -10.023  43.198  1.00  0.00     0.001 A 
HETATM   10  C9  UNL     1      15.193  -9.009  43.191  1.00  0.00     0.016 A 
HETATM   11  C10 UNL     1      16.481  -9.272  42.760  1.00  0.00     0.018 A 
HETATM   12  C11 UNL     1      20.413  -9.605  41.567  1.00  0.00     0.020 A 
HETATM   13  C12 UNL     1      21.677  -9.966  41.119  1.00  0.00     0.029 A 
HETATM   14  C13 UNL     1      22.664  -9.016  41.082  1.00  0.00    -0.009 A 
HETATM   15  C14 UNL     1      23.922  -9.343  40.644  1.00  0.00     0.014 A 
HETATM   16  C15 UNL     1      24.949  -8.419  40.589  1.00  0.00     0.001 A 
HETATM   17  C16 UNL     1      24.671  -7.133  40.993  1.00  0.00     0.002 A 
HETATM   18  C17 UNL     1      23.406  -6.816  41.430  1.00  0.00     0.030 A 
HETATM   19  C18 UNL     1      22.367  -7.733  41.491  1.00  0.00     0.043 A 
HETATM   20  N3  UNL     1      21.126  -7.403  41.924  1.00  0.00    -0.354 N 
ATOM     21  H3  UNL     1      20.939  -6.445  42.220  1.00  0.00     0.166 HD
HETATM   22  C19 UNL     1      20.121  -8.324  41.975  1.00  0.00     0.060 A 
ENDROOT
BRANCH   1  23
HETATM   23  N1  UNL     1      17.299  -7.150  43.068  1.00  0.00    -0.374 N 
HETATM   24  C1  UNL     1      17.330  -5.823  42.815  1.00  0.00     0.118 C 
ATOM     25  H1  UNL     1      16.981  -7.213  44.036  1.00  0.00     0.164 HD
ENDBRANCH   1  23
TORSDOF 1
ENDMDL
