MODEL 1
REMARK VINA RESULT: -8.660640881      0.000      0.000
REMARK  10 active torsions:
REMARK  status: ('A' for Active; 'I' for Inactive)
REMARK    1  A    between atoms: C7_13  and  N4_14 
REMARK    2  A    between atoms: N4_14  and  C8_16 
REMARK    3  A    between atoms: C8_16  and  O3_17 
REMARK    4  A    between atoms: C8_16  and  C9_19 
REMARK    5  A    between atoms: C10_20  and  N5_21 
REMARK    6  A    between atoms: N5_21  and  N6_23 
REMARK    7  A    between atoms: N6_23  and  C11_24 
REMARK    8  A    between atoms: C11_24  and  C12_25 
REMARK    9  A    between atoms: C12_25  and  O4_26 
REMARK   10  A    between atoms: C13_30  and  N8_31 
ROOT
HETATM    1  C8  UNL     1      56.447   8.882  29.534  1.00  0.00     0.263 C 
ENDROOT
BRANCH   1   2
HETATM    2  N4  UNL     1      57.834   9.072  29.754  1.00  0.00    -0.341 N 
ATOM      3  H4  UNL     1      58.158   9.717  30.474  1.00  0.00     0.164 HD
BRANCH   2   4
HETATM    4  C7  UNL     1      58.762   8.359  28.966  1.00  0.00     0.174 C 
HETATM    5  C6  UNL     1      60.093   8.695  29.062  1.00  0.00     0.292 C 
HETATM    6  N3  UNL     1      61.103   8.498  28.172  1.00  0.00    -0.286 N 
HETATM    7  O2  UNL     1      60.395   9.261  30.132  1.00  0.00    -0.264 OA
HETATM    8  C5  UNL     1      61.019   7.892  26.960  1.00  0.00     0.264 C 
ATOM      9  H3  UNL     1      62.023   8.844  28.445  1.00  0.00     0.172 HD
HETATM   10  C4  UNL     1      60.042   7.030  26.494  1.00  0.00     0.102 A 
HETATM   11  O1  UNL     1      61.947   8.149  26.160  1.00  0.00    -0.267 OA
HETATM   12  C3  UNL     1      60.143   6.229  25.379  1.00  0.00     0.081 A 
HETATM   13  C15 UNL     1      58.794   6.808  27.045  1.00  0.00     0.126 A 
HETATM   14  C2  UNL     1      58.944   5.537  25.281  1.00  0.00     0.119 A 
HETATM   15  N2  UNL     1      61.273   6.169  24.538  1.00  0.00    -0.100 NA
HETATM   16  N1  UNL     1      58.145   5.901  26.297  1.00  0.00    -0.345 N 
HETATM   17  C1  UNL     1      56.813   5.392  26.526  1.00  0.00     0.157 C 
HETATM   18  N10 UNL     1      58.265   7.382  28.157  1.00  0.00    -0.323 N 
ATOM     19  H10 UNL     1      57.350   7.025  28.430  1.00  0.00     0.169 HD
ENDBRANCH   2   4
ENDBRANCH   1   2
BRANCH   1  20
HETATM   20  O3  UNL     1      55.854   8.828  30.825  1.00  0.00    -0.372 OA
ATOM     21  H3  UNL     1      55.681   7.909  30.992  1.00  0.00     0.212 HD
ENDBRANCH   1  20
BRANCH   1  22
HETATM   22  C9  UNL     1      55.726   9.875  28.764  1.00  0.00     0.104 A 
HETATM   23  C10 UNL     1      56.194  11.080  28.307  1.00  0.00     0.148 A 
HETATM   24  N7  UNL     1      55.435  11.911  27.557  1.00  0.00    -0.175 N 
HETATM   25  C13 UNL     1      54.189  11.575  27.238  1.00  0.00     0.680 A 
ATOM     26  H7  UNL     1      55.820  12.799  27.234  1.00  0.00     0.186 HD
HETATM   27  N9  UNL     1      53.678  10.407  27.659  1.00  0.00    -0.156 N 
HETATM   28  C14 UNL     1      54.408   9.564  28.403  1.00  0.00     0.274 A 
ATOM     29  H9  UNL     1      52.721  10.158  27.409  1.00  0.00     0.187 HD
HETATM   30  O5  UNL     1      53.867   8.488  28.764  1.00  0.00    -0.267 OA
BRANCH  23  31
HETATM   31  N5  UNL     1      57.486  11.489  28.664  1.00  0.00    -0.288 N 
ATOM     32  H5  UNL     1      58.300  10.991  28.301  1.00  0.00     0.184 HD
BRANCH  31  33
HETATM   33  N6  UNL     1      57.655  12.579  29.514  1.00  0.00    -0.138 NA
BRANCH  33  34
HETATM   34  C11 UNL     1      57.685  12.165  30.908  1.00  0.00     0.161 C 
BRANCH  34  35
HETATM   35  C12 UNL     1      58.365  13.186  31.785  1.00  0.00     0.181 C 
BRANCH  35  36
HETATM   36  O4  UNL     1      57.428  13.964  32.425  1.00  0.00    -0.400 OA
ATOM     37  H4  UNL     1      57.584  14.882  32.243  1.00  0.00     0.209 HD
ENDBRANCH  35  36
ENDBRANCH  34  35
ENDBRANCH  33  34
ENDBRANCH  31  33
ENDBRANCH  23  31
BRANCH  25  38
HETATM   38  N8  UNL     1      53.439  12.365  26.511  1.00  0.00    -0.234 N 
ATOM     39  H82 UNL     1      52.714  12.914  26.974  1.00  0.00     0.174 HD
ATOM     40  H81 UNL     1      53.570  12.436  25.502  1.00  0.00     0.174 HD
ENDBRANCH  25  38
ENDBRANCH   1  22
TORSDOF 10
ENDMDL
MODEL 2
REMARK VINA RESULT: -8.480638842      1.627      3.540
REMARK  10 active torsions:
REMARK  status: ('A' for Active; 'I' for Inactive)
REMARK    1  A    between atoms: C7_13  and  N4_14 
REMARK    2  A    between atoms: N4_14  and  C8_16 
REMARK    3  A    between atoms: C8_16  and  O3_17 
REMARK    4  A    between atoms: C8_16  and  C9_19 
REMARK    5  A    between atoms: C10_20  and  N5_21 
REMARK    6  A    between atoms: N5_21  and  N6_23 
REMARK    7  A    between atoms: N6_23  and  C11_24 
REMARK    8  A    between atoms: C11_24  and  C12_25 
REMARK    9  A    between atoms: C12_25  and  O4_26 
REMARK   10  A    between atoms: C13_30  and  N8_31 
ROOT
HETATM    1  C8  UNL     1      56.612   8.895  29.356  1.00  0.00     0.263 C 
ENDROOT
BRANCH   1   2
HETATM    2  N4  UNL     1      57.995   9.002  29.644  1.00  0.00    -0.341 N 
ATOM      3  H4  UNL     1      58.317   9.587  30.415  1.00  0.00     0.164 HD
BRANCH   2   4
HETATM    4  C7  UNL     1      58.922   8.291  28.854  1.00  0.00     0.174 C 
HETATM    5  C6  UNL     1      60.253   8.628  28.947  1.00  0.00     0.292 C 
HETATM    6  N3  UNL     1      61.260   8.433  28.053  1.00  0.00    -0.286 N 
HETATM    7  O2  UNL     1      60.557   9.195  30.015  1.00  0.00    -0.264 OA
HETATM    8  C5  UNL     1      61.174   7.826  26.842  1.00  0.00     0.264 C 
ATOM      9  H3  UNL     1      62.181   8.780  28.324  1.00  0.00     0.172 HD
HETATM   10  C4  UNL     1      60.197   6.962  26.379  1.00  0.00     0.102 A 
HETATM   11  O1  UNL     1      62.100   8.084  26.039  1.00  0.00    -0.267 OA
HETATM   12  C3  UNL     1      60.297   6.161  25.264  1.00  0.00     0.081 A 
HETATM   13  C15 UNL     1      58.951   6.738  26.934  1.00  0.00     0.126 A 
HETATM   14  C2  UNL     1      59.098   5.467  25.170  1.00  0.00     0.119 A 
HETATM   15  N2  UNL     1      61.424   6.102  24.421  1.00  0.00    -0.100 NA
HETATM   16  N1  UNL     1      58.301   5.831  26.187  1.00  0.00    -0.345 N 
HETATM   17  C1  UNL     1      56.971   5.319  26.421  1.00  0.00     0.157 C 
HETATM   18  N10 UNL     1      58.424   7.313  28.047  1.00  0.00    -0.323 N 
ATOM     19  H10 UNL     1      57.510   6.954  28.322  1.00  0.00     0.169 HD
ENDBRANCH   2   4
ENDBRANCH   1   2
BRANCH   1  20
HETATM   20  O3  UNL     1      55.959   8.808  30.616  1.00  0.00    -0.372 OA
ATOM     21  H3  UNL     1      55.082   9.145  30.477  1.00  0.00     0.212 HD
ENDBRANCH   1  20
BRANCH   1  22
HETATM   22  C9  UNL     1      55.977   9.962  28.609  1.00  0.00     0.104 A 
HETATM   23  C10 UNL     1      54.643  10.107  28.327  1.00  0.00     0.148 A 
HETATM   24  N7  UNL     1      54.159  11.175  27.653  1.00  0.00    -0.175 N 
HETATM   25  C13 UNL     1      54.982  12.131  27.235  1.00  0.00     0.680 A 
ATOM     26  H7  UNL     1      53.159  11.246  27.464  1.00  0.00     0.186 HD
HETATM   27  N9  UNL     1      56.299  12.042  27.481  1.00  0.00    -0.156 N 
HETATM   28  C14 UNL     1      56.805  10.995  28.148  1.00  0.00     0.274 A 
ATOM     29  H9  UNL     1      56.922  12.781  27.156  1.00  0.00     0.187 HD
HETATM   30  O5  UNL     1      58.047  10.974  28.344  1.00  0.00    -0.267 OA
BRANCH  23  31
HETATM   31  N5  UNL     1      53.751   9.095  28.710  1.00  0.00    -0.288 N 
ATOM     32  H5  UNL     1      53.820   8.676  29.638  1.00  0.00     0.184 HD
BRANCH  31  33
HETATM   33  N6  UNL     1      52.772   8.665  27.819  1.00  0.00    -0.138 NA
BRANCH  33  34
HETATM   34  C11 UNL     1      52.605   7.220  27.869  1.00  0.00     0.161 C 
BRANCH  34  35
HETATM   35  C12 UNL     1      53.849   6.493  27.428  1.00  0.00     0.181 C 
BRANCH  35  36
HETATM   36  O4  UNL     1      53.553   5.184  27.125  1.00  0.00    -0.400 OA
ATOM     37  H4  UNL     1      53.348   4.702  27.917  1.00  0.00     0.209 HD
ENDBRANCH  35  36
ENDBRANCH  34  35
ENDBRANCH  33  34
ENDBRANCH  31  33
ENDBRANCH  23  31
BRANCH  25  38
HETATM   38  N8  UNL     1      54.533  13.173  26.581  1.00  0.00    -0.234 N 
ATOM     39  H82 UNL     1      53.536  13.230  26.374  1.00  0.00     0.174 HD
ATOM     40  H81 UNL     1      55.161  13.918  26.279  1.00  0.00     0.174 HD
ENDBRANCH  25  38
ENDBRANCH   1  22
TORSDOF 10
ENDMDL
MODEL 3
REMARK VINA RESULT: -8.173510105      1.976      3.031
REMARK  10 active torsions:
REMARK  status: ('A' for Active; 'I' for Inactive)
REMARK    1  A    between atoms: C7_13  and  N4_14 
REMARK    2  A    between atoms: N4_14  and  C8_16 
REMARK    3  A    between atoms: C8_16  and  O3_17 
REMARK    4  A    between atoms: C8_16  and  C9_19 
REMARK    5  A    between atoms: C10_20  and  N5_21 
REMARK    6  A    between atoms: N5_21  and  N6_23 
REMARK    7  A    between atoms: N6_23  and  C11_24 
REMARK    8  A    between atoms: C11_24  and  C12_25 
REMARK    9  A    between atoms: C12_25  and  O4_26 
REMARK   10  A    between atoms: C13_30  and  N8_31 
ROOT
HETATM    1  C8  UNL     1      57.827  10.382  28.910  1.00  0.00     0.263 C 
ENDROOT
BRANCH   1   2
HETATM    2  N4  UNL     1      58.512   9.287  29.492  1.00  0.00    -0.341 N 
ATOM      3  H4  UNL     1      58.408   9.083  30.486  1.00  0.00     0.164 HD
BRANCH   2   4
HETATM    4  C7  UNL     1      59.340   8.481  28.683  1.00  0.00     0.174 C 
HETATM    5  C6  UNL     1      60.695   8.725  28.688  1.00  0.00     0.292 C 
HETATM    6  N3  UNL     1      61.633   8.424  27.750  1.00  0.00    -0.286 N 
HETATM    7  O2  UNL     1      61.099   9.310  29.713  1.00  0.00    -0.264 OA
HETATM    8  C5  UNL     1      61.434   7.779  26.572  1.00  0.00     0.264 C 
ATOM      9  H3  UNL     1      62.589   8.714  27.954  1.00  0.00     0.172 HD
HETATM   10  C4  UNL     1      60.375   6.970  26.200  1.00  0.00     0.102 A 
HETATM   11  O1  UNL     1      62.328   7.939  25.709  1.00  0.00    -0.267 OA
HETATM   12  C3  UNL     1      60.354   6.122  25.116  1.00  0.00     0.081 A 
HETATM   13  C15 UNL     1      59.151   6.858  26.832  1.00  0.00     0.126 A 
HETATM   14  C2  UNL     1      59.107   5.513  25.118  1.00  0.00     0.119 A 
HETATM   15  N2  UNL     1      61.423   5.950  24.215  1.00  0.00    -0.100 NA
HETATM   16  N1  UNL     1      58.397   5.971  26.162  1.00  0.00    -0.345 N 
HETATM   17  C1  UNL     1      57.050   5.565  26.490  1.00  0.00     0.157 C 
HETATM   18  N10 UNL     1      58.730   7.511  27.947  1.00  0.00    -0.323 N 
ATOM     19  H10 UNL     1      57.811   7.229  28.287  1.00  0.00     0.169 HD
ENDBRANCH   2   4
ENDBRANCH   1   2
BRANCH   1  20
HETATM   20  O3  UNL     1      58.395  10.550  27.617  1.00  0.00    -0.372 OA
ATOM     21  H3  UNL     1      58.653   9.680  27.333  1.00  0.00     0.212 HD
ENDBRANCH   1  20
BRANCH   1  22
HETATM   22  C9  UNL     1      56.391  10.291  28.747  1.00  0.00     0.104 A 
HETATM   23  C10 UNL     1      55.576  11.128  28.029  1.00  0.00     0.148 A 
HETATM   24  N7  UNL     1      54.245  10.916  27.914  1.00  0.00    -0.175 N 
HETATM   25  C13 UNL     1      53.680   9.871  28.509  1.00  0.00     0.680 A 
ATOM     26  H7  UNL     1      53.673  11.562  27.369  1.00  0.00     0.186 HD
HETATM   27  N9  UNL     1      54.428   9.018  29.227  1.00  0.00    -0.156 N 
HETATM   28  C14 UNL     1      55.750   9.203  29.356  1.00  0.00     0.274 A 
ATOM     29  H9  UNL     1      53.985   8.219  29.680  1.00  0.00     0.187 HD
HETATM   30  O5  UNL     1      56.391   8.368  30.042  1.00  0.00    -0.267 OA
BRANCH  23  31
HETATM   31  N5  UNL     1      56.129  12.267  27.427  1.00  0.00    -0.288 N 
ATOM     32  H5  UNL     1      57.054  12.596  27.707  1.00  0.00     0.184 HD
BRANCH  31  33
HETATM   33  N6  UNL     1      55.411  12.947  26.447  1.00  0.00    -0.138 NA
BRANCH  33  34
HETATM   34  C11 UNL     1      56.275  13.381  25.360  1.00  0.00     0.161 C 
BRANCH  34  35
HETATM   35  C12 UNL     1      55.570  13.335  24.028  1.00  0.00     0.181 C 
BRANCH  35  36
HETATM   36  O4  UNL     1      56.350  12.686  23.099  1.00  0.00    -0.400 OA
ATOM     37  H4  UNL     1      55.888  12.617  22.273  1.00  0.00     0.209 HD
ENDBRANCH  35  36
ENDBRANCH  34  35
ENDBRANCH  33  34
ENDBRANCH  31  33
ENDBRANCH  23  31
BRANCH  25  38
HETATM   38  N8  UNL     1      52.393   9.649  28.409  1.00  0.00    -0.234 N 
ATOM     39  H82 UNL     1      51.910   9.206  29.191  1.00  0.00     0.174 HD
ATOM     40  H81 UNL     1      51.876   9.908  27.568  1.00  0.00     0.174 HD
ENDBRANCH  25  38
ENDBRANCH   1  22
TORSDOF 10
ENDMDL
MODEL 4
REMARK VINA RESULT: -7.172191826      1.724      2.663
REMARK  10 active torsions:
REMARK  status: ('A' for Active; 'I' for Inactive)
REMARK    1  A    between atoms: C7_13  and  N4_14 
REMARK    2  A    between atoms: N4_14  and  C8_16 
REMARK    3  A    between atoms: C8_16  and  O3_17 
REMARK    4  A    between atoms: C8_16  and  C9_19 
REMARK    5  A    between atoms: C10_20  and  N5_21 
REMARK    6  A    between atoms: N5_21  and  N6_23 
REMARK    7  A    between atoms: N6_23  and  C11_24 
REMARK    8  A    between atoms: C11_24  and  C12_25 
REMARK    9  A    between atoms: C12_25  and  O4_26 
REMARK   10  A    between atoms: C13_30  and  N8_31 
ROOT
HETATM    1  C8  UNL     1      57.774   9.290  30.248  1.00  0.00     0.263 C 
ENDROOT
BRANCH   1   2
HETATM    2  N4  UNL     1      57.935   7.884  30.193  1.00  0.00    -0.341 N 
ATOM      3  H4  UNL     1      57.382   7.277  30.798  1.00  0.00     0.164 HD
BRANCH   2   4
HETATM    4  C7  UNL     1      58.869   7.331  29.292  1.00  0.00     0.174 C 
HETATM    5  C6  UNL     1      60.209   7.507  29.552  1.00  0.00     0.292 C 
HETATM    6  N3  UNL     1      61.270   7.469  28.699  1.00  0.00    -0.286 N 
HETATM    7  O2  UNL     1      60.466   7.734  30.751  1.00  0.00    -0.264 OA
HETATM    8  C5  UNL     1      61.238   7.223  27.364  1.00  0.00     0.264 C 
ATOM      9  H3  UNL     1      62.188   7.644  29.108  1.00  0.00     0.172 HD
HETATM   10  C4  UNL     1      60.242   6.610  26.625  1.00  0.00     0.102 A 
HETATM   11  O1  UNL     1      62.242   7.602  26.720  1.00  0.00    -0.267 OA
HETATM   12  C3  UNL     1      60.373   6.135  25.340  1.00  0.00     0.081 A 
HETATM   13  C15 UNL     1      58.942   6.360  27.023  1.00  0.00     0.126 A 
HETATM   14  C2  UNL     1      59.139   5.605  24.988  1.00  0.00     0.119 A 
HETATM   15  N2  UNL     1      61.558   6.203  24.580  1.00  0.00    -0.100 NA
HETATM   16  N1  UNL     1      58.291   5.751  26.018  1.00  0.00    -0.345 N 
HETATM   17  C1  UNL     1      56.913   5.320  26.024  1.00  0.00     0.157 C 
HETATM   18  N10 UNL     1      58.370   6.657  28.219  1.00  0.00    -0.323 N 
ATOM     19  H10 UNL     1      57.413   6.323  28.331  1.00  0.00     0.169 HD
ENDBRANCH   2   4
ENDBRANCH   1   2
BRANCH   1  20
HETATM   20  O3  UNL     1      59.032   9.839  29.876  1.00  0.00    -0.372 OA
ATOM     21  H3  UNL     1      59.514   9.954  30.687  1.00  0.00     0.212 HD
ENDBRANCH   1  20
BRANCH   1  22
HETATM   22  C9  UNL     1      56.765   9.904  29.408  1.00  0.00     0.104 A 
HETATM   23  C10 UNL     1      56.954  10.571  28.225  1.00  0.00     0.148 A 
HETATM   24  N7  UNL     1      55.923  11.067  27.504  1.00  0.00    -0.175 N 
HETATM   25  C13 UNL     1      54.673  10.921  27.934  1.00  0.00     0.680 A 
ATOM     26  H7  UNL     1      56.105  11.556  26.627  1.00  0.00     0.186 HD
HETATM   27  N9  UNL     1      54.429  10.277  29.086  1.00  0.00    -0.156 N 
HETATM   28  C14 UNL     1      55.431   9.774  29.820  1.00  0.00     0.274 A 
ATOM     29  H9  UNL     1      53.467  10.170  29.408  1.00  0.00     0.187 HD
HETATM   30  O5  UNL     1      55.132   9.184  30.889  1.00  0.00    -0.267 OA
BRANCH  23  31
HETATM   31  N5  UNL     1      58.260  10.786  27.765  1.00  0.00    -0.288 N 
ATOM     32  H5  UNL     1      58.723  11.679  27.935  1.00  0.00     0.184 HD
BRANCH  31  33
HETATM   33  N6  UNL     1      58.923   9.775  27.074  1.00  0.00    -0.138 NA
BRANCH  33  34
HETATM   34  C11 UNL     1      59.835  10.319  26.080  1.00  0.00     0.161 C 
BRANCH  34  35
HETATM   35  C12 UNL     1      61.188  10.632  26.668  1.00  0.00     0.181 C 
BRANCH  35  36
HETATM   36  O4  UNL     1      62.155  10.578  25.691  1.00  0.00    -0.400 OA
ATOM     37  H4  UNL     1      62.466  11.452  25.489  1.00  0.00     0.209 HD
ENDBRANCH  35  36
ENDBRANCH  34  35
ENDBRANCH  33  34
ENDBRANCH  31  33
ENDBRANCH  23  31
BRANCH  25  38
HETATM   38  N8  UNL     1      53.662  11.393  27.249  1.00  0.00    -0.234 N 
ATOM     39  H82 UNL     1      53.429  10.960  26.356  1.00  0.00     0.174 HD
ATOM     40  H81 UNL     1      53.113  12.181  27.595  1.00  0.00     0.174 HD
ENDBRANCH  25  38
ENDBRANCH   1  22
TORSDOF 10
ENDMDL
MODEL 5
REMARK VINA RESULT: -7.093672929      1.599      2.124
REMARK  10 active torsions:
REMARK  status: ('A' for Active; 'I' for Inactive)
REMARK    1  A    between atoms: C7_13  and  N4_14 
REMARK    2  A    between atoms: N4_14  and  C8_16 
REMARK    3  A    between atoms: C8_16  and  O3_17 
REMARK    4  A    between atoms: C8_16  and  C9_19 
REMARK    5  A    between atoms: C10_20  and  N5_21 
REMARK    6  A    between atoms: N5_21  and  N6_23 
REMARK    7  A    between atoms: N6_23  and  C11_24 
REMARK    8  A    between atoms: C11_24  and  C12_25 
REMARK    9  A    between atoms: C12_25  and  O4_26 
REMARK   10  A    between atoms: C13_30  and  N8_31 
ROOT
HETATM    1  C8  UNL     1      56.190   8.839  29.749  1.00  0.00     0.263 C 
ENDROOT
BRANCH   1   2
HETATM    2  N4  UNL     1      57.580   8.928  30.010  1.00  0.00    -0.341 N 
ATOM      3  H4  UNL     1      57.935   9.604  30.685  1.00  0.00     0.164 HD
BRANCH   2   4
HETATM    4  C7  UNL     1      58.467   8.070  29.326  1.00  0.00     0.174 C 
HETATM    5  C6  UNL     1      59.806   8.133  29.638  1.00  0.00     0.292 C 
HETATM    6  N3  UNL     1      60.886   7.768  28.896  1.00  0.00    -0.286 N 
HETATM    7  O2  UNL     1      60.039   8.595  30.773  1.00  0.00    -0.264 OA
HETATM    8  C5  UNL     1      60.879   7.228  27.650  1.00  0.00     0.264 C 
ATOM      9  H3  UNL     1      61.801   7.916  29.322  1.00  0.00     0.172 HD
HETATM   10  C4  UNL     1      59.841   6.590  26.994  1.00  0.00     0.102 A 
HETATM   11  O1  UNL     1      61.953   7.320  27.013  1.00  0.00    -0.267 OA
HETATM   12  C3  UNL     1      59.961   5.820  25.860  1.00  0.00     0.081 A 
HETATM   13  C15 UNL     1      58.503   6.602  27.341  1.00  0.00     0.126 A 
HETATM   14  C2  UNL     1      58.682   5.381  25.545  1.00  0.00     0.119 A 
HETATM   15  N2  UNL     1      61.175   5.563  25.193  1.00  0.00    -0.100 NA
HETATM   16  N1  UNL     1      57.818   5.865  26.451  1.00  0.00    -0.345 N 
HETATM   17  C1  UNL     1      56.394   5.622  26.451  1.00  0.00     0.157 C 
HETATM   18  N10 UNL     1      57.926   7.236  28.395  1.00  0.00    -0.323 N 
ATOM     19  H10 UNL     1      56.928   7.058  28.508  1.00  0.00     0.169 HD
ENDBRANCH   2   4
ENDBRANCH   1   2
BRANCH   1  20
HETATM   20  O3  UNL     1      55.552   8.919  31.017  1.00  0.00    -0.372 OA
ATOM     21  H3  UNL     1      56.158   9.384  31.583  1.00  0.00     0.212 HD
ENDBRANCH   1  20
BRANCH   1  22
HETATM   22  C9  UNL     1      55.583   9.837  28.892  1.00  0.00     0.104 A 
HETATM   23  C10 UNL     1      56.200  10.887  28.263  1.00  0.00     0.148 A 
HETATM   24  N7  UNL     1      55.531  11.734  27.448  1.00  0.00    -0.175 N 
HETATM   25  C13 UNL     1      54.230  11.569  27.232  1.00  0.00     0.680 A 
ATOM     26  H7  UNL     1      56.027  12.503  26.997  1.00  0.00     0.186 HD
HETATM   27  N9  UNL     1      53.573  10.558  27.823  1.00  0.00    -0.156 N 
HETATM   28  C14 UNL     1      54.211   9.703  28.635  1.00  0.00     0.274 A 
ATOM     29  H9  UNL     1      52.575  10.439  27.652  1.00  0.00     0.187 HD
HETATM   30  O5  UNL     1      53.536   8.779  29.156  1.00  0.00    -0.267 OA
BRANCH  23  31
HETATM   31  N5  UNL     1      57.561  11.121  28.504  1.00  0.00    -0.288 N 
ATOM     32  H5  UNL     1      57.924  11.099  29.457  1.00  0.00     0.184 HD
BRANCH  31  33
HETATM   33  N6  UNL     1      58.415  11.384  27.436  1.00  0.00    -0.138 NA
BRANCH  33  34
HETATM   34  C11 UNL     1      58.950  10.157  26.869  1.00  0.00     0.161 C 
BRANCH  34  35
HETATM   35  C12 UNL     1      60.301  10.371  26.235  1.00  0.00     0.181 C 
BRANCH  35  36
HETATM   36  O4  UNL     1      61.286  10.356  27.196  1.00  0.00    -0.400 OA
ATOM     37  H4  UNL     1      61.965   9.737  26.960  1.00  0.00     0.209 HD
ENDBRANCH  35  36
ENDBRANCH  34  35
ENDBRANCH  33  34
ENDBRANCH  31  33
ENDBRANCH  23  31
BRANCH  25  38
HETATM   38  N8  UNL     1      53.565  12.378  26.446  1.00  0.00    -0.234 N 
ATOM     39  H82 UNL     1      52.839  12.968  26.851  1.00  0.00     0.174 HD
ATOM     40  H81 UNL     1      53.762  12.421  25.445  1.00  0.00     0.174 HD
ENDBRANCH  25  38
ENDBRANCH   1  22
TORSDOF 10
ENDMDL
