MODEL 1
REMARK VINA RESULT: -5.802718257      0.000      0.000
REMARK  9 active torsions:
REMARK  status: ('A' for Active; 'I' for Inactive)
REMARK    1  A    between atoms: C2_2  and  C3_3 
REMARK    2  A    between atoms: C2_2  and  N13_44 
REMARK    3  A    between atoms: C3_3  and  C4_4 
REMARK    4  A    between atoms: N1_5  and  C5_7 
REMARK    5  A    between atoms: C6_8  and  C7_9 
REMARK       I    between atoms: C7_9  and  N2_11 
REMARK    6  A    between atoms: N2_11  and  C8_13 
REMARK    7  A    between atoms: C8_13  and  C9_14 
REMARK    8  A    between atoms: C12_21  and  N5_22 
REMARK    9  A    between atoms: N13_44  and  N14_45 
ROOT
HETATM    1  C7  UNL     1      61.879   7.730  26.189  1.00  0.00     0.276 C 
HETATM    2  O1  UNL     1      61.839   9.001  25.978  1.00  0.00    -0.266 OA
HETATM    3  N2  UNL     1      61.655   7.344  27.506  1.00  0.00    -0.329 N 
ATOM      4  H2  UNL     1      61.675   6.340  27.687  1.00  0.00     0.168 HD
ENDROOT
BRANCH   1   5
HETATM    5  C6  UNL     1      62.147   6.936  25.016  1.00  0.00     0.148 A 
HETATM    6  C5  UNL     1      61.312   6.770  23.957  1.00  0.00     0.111 A 
HETATM    7  C15 UNL     1      61.688   6.021  22.826  1.00  0.00     0.144 A 
HETATM    8  N11 UNL     1      62.906   5.471  22.829  1.00  0.00    -0.269 N 
HETATM    9  N12 UNL     1      60.859   5.919  21.869  1.00  0.00    -0.382 N 
HETATM   10  N10 UNL     1      63.732   5.617  23.846  1.00  0.00    -0.240 N 
ATOM     11  H11 UNL     1      63.205   4.923  22.022  1.00  0.00     0.190 HD
HETATM   12  N9  UNL     1      63.373   6.316  24.892  1.00  0.00    -0.279 N 
ATOM     13  H10 UNL     1      64.655   5.184  23.817  1.00  0.00     0.208 HD
ATOM     14  H9  UNL     1      64.037   6.408  25.661  1.00  0.00     0.189 HD
ATOM     15 2H12 UNL     1      59.929   6.339  21.867  1.00  0.00     0.157 HD
ATOM     16 1H12 UNL     1      61.131   5.377  21.049  1.00  0.00     0.157 HD
BRANCH   6  17
HETATM   17  N1  UNL     1      59.986   7.319  23.989  1.00  0.00    -0.364 N 
HETATM   18  C4  UNL     1      59.036   6.623  24.565  1.00  0.00     0.063 C 
ATOM     19  H1  UNL     1      59.788   8.230  23.573  1.00  0.00     0.165 HD
BRANCH  18  20
HETATM   20  C3  UNL     1      59.248   5.313  25.181  1.00  0.00     0.067 C 
BRANCH  20  21
HETATM   21  C2  UNL     1      58.140   4.927  26.136  1.00  0.00     0.099 C 
HETATM   22  C1  UNL     1      57.749   6.038  27.055  1.00  0.00     0.030 C 
BRANCH  21  23
HETATM   23  N13 UNL     1      56.956   4.483  25.391  1.00  0.00    -0.143 NA
BRANCH  23  24
HETATM   24  N14 UNL     1      55.798   5.056  25.954  1.00  0.00    -0.348 N 
ATOM     25 2H14 UNL     1      55.806   5.782  26.671  1.00  0.00     0.172 HD
ATOM     26 1H14 UNL     1      54.969   4.635  25.536  1.00  0.00     0.172 HD
ENDBRANCH  23  24
ENDBRANCH  21  23
ENDBRANCH  20  21
ENDBRANCH  18  20
ENDBRANCH   6  17
ENDBRANCH   1   5
BRANCH   3  27
HETATM   27  C8  UNL     1      61.400   8.183  28.644  1.00  0.00     0.122 C 
BRANCH  27  28
HETATM   28  C9  UNL     1      60.030   8.301  29.087  1.00  0.00     0.064 A 
HETATM   29  C10 UNL     1      59.418   7.487  30.033  1.00  0.00     0.120 A 
HETATM   30  N3  UNL     1      58.130   7.639  30.379  1.00  0.00    -0.348 N 
HETATM   31  C11 UNL     1      57.366   8.593  29.822  1.00  0.00     0.151 A 
ATOM     32  H3  UNL     1      57.724   7.017  31.079  1.00  0.00     0.167 HD
HETATM   33  N4  UNL     1      56.079   8.725  30.184  1.00  0.00    -0.174 N 
HETATM   34  C14 UNL     1      57.941   9.419  28.880  1.00  0.00     0.122 A 
HETATM   35  C12 UNL     1      55.357   9.694  29.599  1.00  0.00     0.679 A 
ATOM     36  H4  UNL     1      55.664   8.109  30.883  1.00  0.00     0.186 HD
HETATM   37  N6  UNL     1      55.902  10.524  28.665  1.00  0.00    -0.175 N 
HETATM   38  C13 UNL     1      57.172  10.407  28.295  1.00  0.00     0.145 A 
ATOM     39  H6  UNL     1      55.323  11.249  28.241  1.00  0.00     0.186 HD
HETATM   40  N7  UNL     1      57.697  11.182  27.418  1.00  0.00    -0.383 N 
ATOM     41  H72 UNL     1      57.129  11.911  26.986  1.00  0.00     0.157 HD
ATOM     42  H71 UNL     1      58.673  11.091  27.135  1.00  0.00     0.157 HD
HETATM   43  N8  UNL     1      59.230   9.262  28.539  1.00  0.00    -0.348 N 
ATOM     44  H8  UNL     1      59.629   9.889  27.840  1.00  0.00     0.166 HD
BRANCH  35  45
HETATM   45  N5  UNL     1      54.119   9.816  29.952  1.00  0.00    -0.234 N 
ATOM     46  H52 UNL     1      53.421   9.135  29.652  1.00  0.00     0.174 HD
ATOM     47  H51 UNL     1      53.870  10.612  30.538  1.00  0.00     0.174 HD
ENDBRANCH  35  45
ENDBRANCH  27  28
ENDBRANCH   3  27
TORSDOF 9
ENDMDL
MODEL 2
REMARK VINA RESULT: -5.035215111      2.427      7.862
REMARK  9 active torsions:
REMARK  status: ('A' for Active; 'I' for Inactive)
REMARK    1  A    between atoms: C2_2  and  C3_3 
REMARK    2  A    between atoms: C2_2  and  N13_44 
REMARK    3  A    between atoms: C3_3  and  C4_4 
REMARK    4  A    between atoms: N1_5  and  C5_7 
REMARK    5  A    between atoms: C6_8  and  C7_9 
REMARK       I    between atoms: C7_9  and  N2_11 
REMARK    6  A    between atoms: N2_11  and  C8_13 
REMARK    7  A    between atoms: C8_13  and  C9_14 
REMARK    8  A    between atoms: C12_21  and  N5_22 
REMARK    9  A    between atoms: N13_44  and  N14_45 
ROOT
HETATM    1  C7  UNL     1      57.263   9.008  28.964  1.00  0.00     0.276 C 
HETATM    2  O1  UNL     1      58.186   9.209  28.089  1.00  0.00    -0.266 OA
HETATM    3  N2  UNL     1      57.628   8.191  30.029  1.00  0.00    -0.329 N 
ATOM      4  H2  UNL     1      56.909   8.030  30.735  1.00  0.00     0.168 HD
ENDROOT
BRANCH   1   5
HETATM    5  C6  UNL     1      56.015   9.672  28.682  1.00  0.00     0.148 A 
HETATM    6  C5  UNL     1      55.873  10.902  28.123  1.00  0.00     0.111 A 
HETATM    7  C15 UNL     1      54.606  11.443  27.829  1.00  0.00     0.144 A 
HETATM    8  N11 UNL     1      53.536  10.700  28.124  1.00  0.00    -0.269 N 
HETATM    9  N12 UNL     1      54.554  12.595  27.296  1.00  0.00    -0.382 N 
HETATM   10  N10 UNL     1      53.649   9.504  28.669  1.00  0.00    -0.240 N 
ATOM     11  H11 UNL     1      52.606  11.067  27.923  1.00  0.00     0.190 HD
HETATM   12  N9  UNL     1      54.832   9.011  28.937  1.00  0.00    -0.279 N 
ATOM     13  H10 UNL     1      52.812   8.962  28.883  1.00  0.00     0.208 HD
ATOM     14  H9  UNL     1      54.881   8.083  29.359  1.00  0.00     0.189 HD
ATOM     15 2H12 UNL     1      55.371  13.162  27.070  1.00  0.00     0.157 HD
ATOM     16 1H12 UNL     1      53.637  12.987  27.083  1.00  0.00     0.157 HD
BRANCH   6  17
HETATM   17  N1  UNL     1      57.028  11.714  27.861  1.00  0.00    -0.364 N 
HETATM   18  C4  UNL     1      57.602  12.325  28.869  1.00  0.00     0.063 C 
ATOM     19  H1  UNL     1      57.393  11.813  26.913  1.00  0.00     0.165 HD
BRANCH  18  20
HETATM   20  C3  UNL     1      57.133  12.229  30.251  1.00  0.00     0.067 C 
BRANCH  20  21
HETATM   21  C2  UNL     1      58.174  12.673  31.256  1.00  0.00     0.099 C 
HETATM   22  C1  UNL     1      58.956  13.861  30.800  1.00  0.00     0.030 C 
BRANCH  21  23
HETATM   23  N13 UNL     1      57.540  12.982  32.543  1.00  0.00    -0.143 NA
BRANCH  23  24
HETATM   24  N14 UNL     1      57.227  14.355  32.600  1.00  0.00    -0.348 N 
ATOM     25 2H14 UNL     1      56.315  14.748  32.363  1.00  0.00     0.172 HD
ATOM     26 1H14 UNL     1      58.043  14.882  32.911  1.00  0.00     0.172 HD
ENDBRANCH  23  24
ENDBRANCH  21  23
ENDBRANCH  20  21
ENDBRANCH  18  20
ENDBRANCH   6  17
ENDBRANCH   1   5
BRANCH   3  27
HETATM   27  C8  UNL     1      58.890   7.545  30.257  1.00  0.00     0.122 C 
BRANCH  27  28
HETATM   28  C9  UNL     1      59.766   7.380  29.119  1.00  0.00     0.064 A 
HETATM   29  C10 UNL     1      61.054   7.894  29.015  1.00  0.00     0.120 A 
HETATM   30  N3  UNL     1      61.802   7.722  27.915  1.00  0.00    -0.348 N 
HETATM   31  C11 UNL     1      61.339   7.041  26.854  1.00  0.00     0.151 A 
ATOM     32  H3  UNL     1      62.743   8.117  27.884  1.00  0.00     0.167 HD
HETATM   33  N4  UNL     1      62.108   6.882  25.764  1.00  0.00    -0.174 N 
HETATM   34  C14 UNL     1      60.066   6.517  26.924  1.00  0.00     0.122 A 
HETATM   35  C12 UNL     1      61.599   6.193  24.730  1.00  0.00     0.679 A 
ATOM     36  H4  UNL     1      63.049   7.274  25.723  1.00  0.00     0.186 HD
HETATM   37  N6  UNL     1      60.343   5.665  24.774  1.00  0.00    -0.175 N 
HETATM   38  C13 UNL     1      59.571   5.812  25.843  1.00  0.00     0.145 A 
ATOM     39  H6  UNL     1      59.990   5.147  23.969  1.00  0.00     0.186 HD
HETATM   40  N7  UNL     1      58.387   5.319  25.898  1.00  0.00    -0.383 N 
ATOM     41  H72 UNL     1      58.021   4.799  25.100  1.00  0.00     0.157 HD
ATOM     42  H71 UNL     1      57.794   5.433  26.720  1.00  0.00     0.157 HD
HETATM   43  N8  UNL     1      59.322   6.691  28.028  1.00  0.00    -0.348 N 
ATOM     44  H8  UNL     1      58.384   6.292  28.051  1.00  0.00     0.166 HD
BRANCH  35  45
HETATM   45  N5  UNL     1      62.345   6.045  23.683  1.00  0.00    -0.234 N 
ATOM     46  H52 UNL     1      63.296   6.413  23.663  1.00  0.00     0.174 HD
ATOM     47  H51 UNL     1      61.948   5.548  22.886  1.00  0.00     0.174 HD
ENDBRANCH  35  45
ENDBRANCH  27  28
ENDBRANCH   3  27
TORSDOF 9
ENDMDL
MODEL 3
REMARK VINA RESULT: -4.678470693      2.091      7.531
REMARK  9 active torsions:
REMARK  status: ('A' for Active; 'I' for Inactive)
REMARK    1  A    between atoms: C2_2  and  C3_3 
REMARK    2  A    between atoms: C2_2  and  N13_44 
REMARK    3  A    between atoms: C3_3  and  C4_4 
REMARK    4  A    between atoms: N1_5  and  C5_7 
REMARK    5  A    between atoms: C6_8  and  C7_9 
REMARK       I    between atoms: C7_9  and  N2_11 
REMARK    6  A    between atoms: N2_11  and  C8_13 
REMARK    7  A    between atoms: C8_13  and  C9_14 
REMARK    8  A    between atoms: C12_21  and  N5_22 
REMARK    9  A    between atoms: N13_44  and  N14_45 
ROOT
HETATM    1  C7  UNL     1      59.063   8.427  29.232  1.00  0.00     0.276 C 
HETATM    2  O1  UNL     1      58.049   7.636  29.164  1.00  0.00    -0.266 OA
HETATM    3  N2  UNL     1      60.252   7.906  28.731  1.00  0.00    -0.329 N 
ATOM      4  H2  UNL     1      61.062   8.525  28.769  1.00  0.00     0.168 HD
ENDROOT
BRANCH   1   5
HETATM    5  C6  UNL     1      58.780   9.715  29.813  1.00  0.00     0.148 A 
HETATM    6  C5  UNL     1      57.890  10.627  29.342  1.00  0.00     0.111 A 
HETATM    7  C15 UNL     1      57.639  11.837  30.016  1.00  0.00     0.144 A 
HETATM    8  N11 UNL     1      58.313  12.064  31.146  1.00  0.00    -0.269 N 
HETATM    9  N12 UNL     1      56.783  12.635  29.520  1.00  0.00    -0.382 N 
HETATM   10  N10 UNL     1      59.184  11.195  31.622  1.00  0.00    -0.240 N 
ATOM     11  H11 UNL     1      58.151  12.933  31.655  1.00  0.00     0.190 HD
HETATM   12  N9  UNL     1      59.409  10.072  30.988  1.00  0.00    -0.279 N 
ATOM     13  H10 UNL     1      59.683  11.398  32.488  1.00  0.00     0.208 HD
ATOM     14  H9  UNL     1      60.089   9.424  31.385  1.00  0.00     0.189 HD
ATOM     15 2H12 UNL     1      56.268  12.462  28.656  1.00  0.00     0.157 HD
ATOM     16 1H12 UNL     1      56.600  13.512  30.008  1.00  0.00     0.157 HD
BRANCH   6  17
HETATM   17  N1  UNL     1      57.212  10.397  28.097  1.00  0.00    -0.364 N 
HETATM   18  C4  UNL     1      55.994   9.915  28.130  1.00  0.00     0.063 C 
ATOM     19  H1  UNL     1      57.668  10.604  27.208  1.00  0.00     0.165 HD
BRANCH  18  20
HETATM   20  C3  UNL     1      55.280   9.594  29.367  1.00  0.00     0.067 C 
BRANCH  20  21
HETATM   21  C2  UNL     1      53.793   9.415  29.156  1.00  0.00     0.099 C 
HETATM   22  C1  UNL     1      53.285  10.130  27.947  1.00  0.00     0.030 C 
BRANCH  21  23
HETATM   23  N13 UNL     1      53.460   7.990  29.045  1.00  0.00    -0.143 NA
BRANCH  23  24
HETATM   24  N14 UNL     1      52.772   7.757  27.837  1.00  0.00    -0.348 N 
ATOM     25 2H14 UNL     1      53.112   8.037  26.917  1.00  0.00     0.172 HD
ATOM     26 1H14 UNL     1      51.896   7.271  28.030  1.00  0.00     0.172 HD
ENDBRANCH  23  24
ENDBRANCH  21  23
ENDBRANCH  20  21
ENDBRANCH  18  20
ENDBRANCH   6  17
ENDBRANCH   1   5
BRANCH   3  27
HETATM   27  C8  UNL     1      60.480   6.605  28.167  1.00  0.00     0.122 C 
BRANCH  27  28
HETATM   28  C9  UNL     1      60.361   6.474  26.732  1.00  0.00     0.064 A 
HETATM   29  C10 UNL     1      59.164   6.445  26.025  1.00  0.00     0.120 A 
HETATM   30  N3  UNL     1      59.127   6.295  24.692  1.00  0.00    -0.348 N 
HETATM   31  C11 UNL     1      60.254   6.165  23.973  1.00  0.00     0.151 A 
ATOM     32  H3  UNL     1      58.225   6.280  24.215  1.00  0.00     0.167 HD
HETATM   33  N4  UNL     1      60.192   6.016  22.640  1.00  0.00    -0.174 N 
HETATM   34  C14 UNL     1      61.459   6.190  24.643  1.00  0.00     0.122 A 
HETATM   35  C12 UNL     1      61.347   5.891  21.966  1.00  0.00     0.679 A 
ATOM     36  H4  UNL     1      59.295   5.999  22.154  1.00  0.00     0.186 HD
HETATM   37  N6  UNL     1      62.552   5.912  22.604  1.00  0.00    -0.175 N 
HETATM   38  C13 UNL     1      62.630   6.058  23.921  1.00  0.00     0.145 A 
ATOM     39  H6  UNL     1      63.408   5.813  22.060  1.00  0.00     0.186 HD
HETATM   40  N7  UNL     1      63.758   6.081  24.535  1.00  0.00    -0.383 N 
ATOM     41  H72 UNL     1      64.622   5.983  24.002  1.00  0.00     0.157 HD
ATOM     42  H71 UNL     1      63.818   6.194  25.547  1.00  0.00     0.157 HD
HETATM   43  N8  UNL     1      61.489   6.341  25.977  1.00  0.00    -0.348 N 
ATOM     44  H8  UNL     1      62.395   6.357  26.445  1.00  0.00     0.166 HD
BRANCH  35  45
HETATM   45  N5  UNL     1      61.279   5.747  20.682  1.00  0.00    -0.234 N 
ATOM     46  H52 UNL     1      60.511   6.157  20.150  1.00  0.00     0.174 HD
ATOM     47  H51 UNL     1      62.019   5.213  20.227  1.00  0.00     0.174 HD
ENDBRANCH  35  45
ENDBRANCH  27  28
ENDBRANCH   3  27
TORSDOF 9
ENDMDL
MODEL 4
REMARK VINA RESULT: -4.226042421      2.316      3.500
REMARK  9 active torsions:
REMARK  status: ('A' for Active; 'I' for Inactive)
REMARK    1  A    between atoms: C2_2  and  C3_3 
REMARK    2  A    between atoms: C2_2  and  N13_44 
REMARK    3  A    between atoms: C3_3  and  C4_4 
REMARK    4  A    between atoms: N1_5  and  C5_7 
REMARK    5  A    between atoms: C6_8  and  C7_9 
REMARK       I    between atoms: C7_9  and  N2_11 
REMARK    6  A    between atoms: N2_11  and  C8_13 
REMARK    7  A    between atoms: C8_13  and  C9_14 
REMARK    8  A    between atoms: C12_21  and  N5_22 
REMARK    9  A    between atoms: N13_44  and  N14_45 
ROOT
HETATM    1  C7  UNL     1      59.386   8.903  27.843  1.00  0.00     0.276 C 
HETATM    2  O1  UNL     1      58.789   9.822  27.166  1.00  0.00    -0.266 OA
HETATM    3  N2  UNL     1      59.043   8.847  29.190  1.00  0.00    -0.329 N 
ATOM      4  H2  UNL     1      59.501   8.118  29.737  1.00  0.00     0.168 HD
ENDROOT
BRANCH   1   5
HETATM    5  C6  UNL     1      60.300   8.094  27.078  1.00  0.00     0.148 A 
HETATM    6  C5  UNL     1      60.297   6.738  27.003  1.00  0.00     0.111 A 
HETATM    7  C15 UNL     1      61.197   6.036  26.178  1.00  0.00     0.144 A 
HETATM    8  N11 UNL     1      62.066   6.757  25.463  1.00  0.00    -0.269 N 
HETATM    9  N12 UNL     1      61.125   4.768  26.152  1.00  0.00    -0.382 N 
HETATM   10  N10 UNL     1      62.089   8.074  25.521  1.00  0.00    -0.240 N 
ATOM     11  H11 UNL     1      62.729   6.275  24.857  1.00  0.00     0.190 HD
HETATM   12  N9  UNL     1      61.248   8.716  26.291  1.00  0.00    -0.279 N 
ATOM     13  H10 UNL     1      62.766   8.595  24.963  1.00  0.00     0.208 HD
ATOM     14  H9  UNL     1      61.294   9.735  26.310  1.00  0.00     0.189 HD
ATOM     15 2H12 UNL     1      60.462   4.218  26.697  1.00  0.00     0.157 HD
ATOM     16 1H12 UNL     1      61.777   4.260  25.554  1.00  0.00     0.157 HD
BRANCH   6  17
HETATM   17  N1  UNL     1      59.396   5.972  27.818  1.00  0.00    -0.364 N 
HETATM   18  C4  UNL     1      58.235   5.630  27.312  1.00  0.00     0.063 C 
ATOM     19  H1  UNL     1      59.652   5.701  28.767  1.00  0.00     0.165 HD
BRANCH  18  20
HETATM   20  C3  UNL     1      57.802   5.985  25.960  1.00  0.00     0.067 C 
BRANCH  20  21
HETATM   21  C2  UNL     1      56.442   5.421  25.613  1.00  0.00     0.099 C 
HETATM   22  C1  UNL     1      56.376   3.934  25.747  1.00  0.00     0.030 C 
BRANCH  21  23
HETATM   23  N13 UNL     1      55.407   6.024  26.461  1.00  0.00    -0.143 NA
BRANCH  23  24
HETATM   24  N14 UNL     1      54.384   5.085  26.702  1.00  0.00    -0.348 N 
ATOM     25 2H14 UNL     1      53.387   5.288  26.627  1.00  0.00     0.172 HD
ATOM     26 1H14 UNL     1      54.794   4.188  26.960  1.00  0.00     0.172 HD
ENDBRANCH  23  24
ENDBRANCH  21  23
ENDBRANCH  20  21
ENDBRANCH  18  20
ENDBRANCH   6  17
ENDBRANCH   1   5
BRANCH   3  27
HETATM   27  C8  UNL     1      58.126   9.689  29.906  1.00  0.00     0.122 C 
BRANCH  27  28
HETATM   28  C9  UNL     1      56.911  10.075  29.226  1.00  0.00     0.064 A 
HETATM   29  C10 UNL     1      55.725   9.348  29.224  1.00  0.00     0.120 A 
HETATM   30  N3  UNL     1      54.640   9.756  28.548  1.00  0.00    -0.348 N 
HETATM   31  C11 UNL     1      54.649  10.894  27.834  1.00  0.00     0.151 A 
ATOM     32  H3  UNL     1      53.792   9.190  28.576  1.00  0.00     0.167 HD
HETATM   33  N4  UNL     1      53.551  11.281  27.166  1.00  0.00    -0.174 N 
HETATM   34  C14 UNL     1      55.809  11.639  27.815  1.00  0.00     0.122 A 
HETATM   35  C12 UNL     1      53.610  12.426  26.468  1.00  0.00     0.679 A 
ATOM     36  H4  UNL     1      52.698  10.722  27.187  1.00  0.00     0.186 HD
HETATM   37  N6  UNL     1      54.745  13.182  26.432  1.00  0.00    -0.175 N 
HETATM   38  C13 UNL     1      55.839  12.814  27.087  1.00  0.00     0.145 A 
ATOM     39  H6  UNL     1      54.753  14.047  25.890  1.00  0.00     0.186 HD
HETATM   40  N7  UNL     1      56.913  13.516  27.062  1.00  0.00    -0.383 N 
ATOM     41  H72 UNL     1      56.935  14.383  26.525  1.00  0.00     0.157 HD
ATOM     42  H71 UNL     1      57.753  13.233  27.566  1.00  0.00     0.157 HD
HETATM   43  N8  UNL     1      56.891  11.227  28.495  1.00  0.00    -0.348 N 
ATOM     44  H8  UNL     1      57.734  11.799  28.462  1.00  0.00     0.166 HD
BRANCH  35  45
HETATM   45  N5  UNL     1      52.549  12.793  25.825  1.00  0.00    -0.234 N 
ATOM     46  H52 UNL     1      51.943  13.527  26.193  1.00  0.00     0.174 HD
ATOM     47  H51 UNL     1      52.344  12.323  24.944  1.00  0.00     0.174 HD
ENDBRANCH  35  45
ENDBRANCH  27  28
ENDBRANCH   3  27
TORSDOF 9
ENDMDL
MODEL 5
REMARK VINA RESULT: -3.925817344      1.847      7.569
REMARK  9 active torsions:
REMARK  status: ('A' for Active; 'I' for Inactive)
REMARK    1  A    between atoms: C2_2  and  C3_3 
REMARK    2  A    between atoms: C2_2  and  N13_44 
REMARK    3  A    between atoms: C3_3  and  C4_4 
REMARK    4  A    between atoms: N1_5  and  C5_7 
REMARK    5  A    between atoms: C6_8  and  C7_9 
REMARK       I    between atoms: C7_9  and  N2_11 
REMARK    6  A    between atoms: N2_11  and  C8_13 
REMARK    7  A    between atoms: C8_13  and  C9_14 
REMARK    8  A    between atoms: C12_21  and  N5_22 
REMARK    9  A    between atoms: N13_44  and  N14_45 
ROOT
HETATM    1  C7  UNL     1      59.464   9.407  27.641  1.00  0.00     0.276 C 
HETATM    2  O1  UNL     1      60.330   9.825  26.785  1.00  0.00    -0.266 OA
HETATM    3  N2  UNL     1      59.559   8.057  27.965  1.00  0.00    -0.329 N 
ATOM      4  H2  UNL     1      58.885   7.713  28.649  1.00  0.00     0.168 HD
ENDROOT
BRANCH   1   5
HETATM    5  C6  UNL     1      58.552  10.418  28.114  1.00  0.00     0.148 A 
HETATM    6  C5  UNL     1      57.723  10.308  29.185  1.00  0.00     0.111 A 
HETATM    7  C15 UNL     1      56.909  11.377  29.607  1.00  0.00     0.144 A 
HETATM    8  N11 UNL     1      56.979  12.515  28.911  1.00  0.00    -0.269 N 
HETATM    9  N12 UNL     1      56.168  11.203  30.624  1.00  0.00    -0.382 N 
HETATM   10  N10 UNL     1      57.774  12.645  27.868  1.00  0.00    -0.240 N 
ATOM     11  H11 UNL     1      56.400  13.306  29.195  1.00  0.00     0.190 HD
HETATM   12  N9  UNL     1      58.527  11.645  27.484  1.00  0.00    -0.279 N 
ATOM     13  H10 UNL     1      57.804  13.528  27.357  1.00  0.00     0.208 HD
ATOM     14  H9  UNL     1      59.131  11.781  26.673  1.00  0.00     0.189 HD
ATOM     15 2H12 UNL     1      56.116  10.334  31.155  1.00  0.00     0.157 HD
ATOM     16 1H12 UNL     1      55.579  11.977  30.931  1.00  0.00     0.157 HD
BRANCH   6  17
HETATM   17  N1  UNL     1      57.616   9.062  29.891  1.00  0.00    -0.364 N 
HETATM   18  C4  UNL     1      56.692   8.210  29.517  1.00  0.00     0.063 C 
ATOM     19  H1  UNL     1      58.244   8.846  30.665  1.00  0.00     0.165 HD
BRANCH  18  20
HETATM   20  C3  UNL     1      55.759   8.455  28.417  1.00  0.00     0.067 C 
BRANCH  20  21
HETATM   21  C2  UNL     1      54.399   8.919  28.894  1.00  0.00     0.099 C 
HETATM   22  C1  UNL     1      53.915  10.137  28.179  1.00  0.00     0.030 C 
BRANCH  21  23
HETATM   23  N13 UNL     1      53.410   7.846  28.735  1.00  0.00    -0.143 NA
BRANCH  23  24
HETATM   24  N14 UNL     1      52.589   8.118  27.623  1.00  0.00    -0.348 N 
ATOM     25 2H14 UNL     1      52.933   8.233  26.669  1.00  0.00     0.172 HD
ATOM     26 1H14 UNL     1      51.616   8.179  27.920  1.00  0.00     0.172 HD
ENDBRANCH  23  24
ENDBRANCH  21  23
ENDBRANCH  20  21
ENDBRANCH  18  20
ENDBRANCH   6  17
ENDBRANCH   1   5
BRANCH   3  27
HETATM   27  C8  UNL     1      60.487   7.087  27.454  1.00  0.00     0.122 C 
BRANCH  27  28
HETATM   28  C9  UNL     1      60.449   6.816  26.035  1.00  0.00     0.064 A 
HETATM   29  C10 UNL     1      59.307   6.846  25.242  1.00  0.00     0.120 A 
HETATM   30  N3  UNL     1      59.341   6.558  23.932  1.00  0.00    -0.348 N 
HETATM   31  C11 UNL     1      60.490   6.224  23.320  1.00  0.00     0.151 A 
ATOM     32  H3  UNL     1      58.478   6.593  23.389  1.00  0.00     0.167 HD
HETATM   33  N4  UNL     1      60.499   5.939  22.008  1.00  0.00    -0.174 N 
HETATM   34  C14 UNL     1      61.641   6.185  24.077  1.00  0.00     0.122 A 
HETATM   35  C12 UNL     1      61.672   5.612  21.443  1.00  0.00     0.679 A 
ATOM     36  H4  UNL     1      59.641   5.971  21.457  1.00  0.00     0.186 HD
HETATM   37  N6  UNL     1      62.826   5.566  22.169  1.00  0.00    -0.175 N 
HETATM   38  C13 UNL     1      62.834   5.845  23.467  1.00  0.00     0.145 A 
ATOM     39  H6  UNL     1      63.698   5.313  21.706  1.00  0.00     0.186 HD
HETATM   40  N7  UNL     1      63.912   5.806  24.162  1.00  0.00    -0.383 N 
ATOM     41  H72 UNL     1      64.792   5.554  23.712  1.00  0.00     0.157 HD
ATOM     42  H71 UNL     1      63.918   6.020  25.159  1.00  0.00     0.157 HD
HETATM   43  N8  UNL     1      61.601   6.476  25.387  1.00  0.00    -0.348 N 
ATOM     44  H8  UNL     1      62.468   6.440  25.922  1.00  0.00     0.166 HD
BRANCH  35  45
HETATM   45  N5  UNL     1      61.674   5.339  20.178  1.00  0.00    -0.234 N 
ATOM     46  H52 UNL     1      60.894   4.839  19.751  1.00  0.00     0.174 HD
ATOM     47  H51 UNL     1      62.479   5.641  19.630  1.00  0.00     0.174 HD
ENDBRANCH  35  45
ENDBRANCH  27  28
ENDBRANCH   3  27
TORSDOF 9
ENDMDL
