MODEL 1
REMARK VINA RESULT: -8.192090179      0.000      0.000
REMARK  5 active torsions:
REMARK  status: ('A' for Active; 'I' for Inactive)
REMARK    1  A    between atoms: C7_7  and  O1_8 
REMARK    2  A    between atoms: C14_16  and  C15_17 
REMARK    3  A    between atoms: C15_17  and  C16_18 
REMARK    4  A    between atoms: C15_17  and  C20_22 
REMARK    5  A    between atoms: C16_18  and  C17_19 
ROOT
HETATM    1  C1  UNL     1      41.401  19.955 101.226  1.00  0.00     0.021 C 
HETATM    2  C2  UNL     1      41.819  21.292 100.666  1.00  0.00    -0.013 C 
HETATM    3  C3  UNL     1      40.770  21.800  99.728  1.00  0.00     0.041 C 
HETATM    4  C4  UNL     1      39.630  22.517 100.319  1.00  0.00    -0.022 C 
HETATM    5  C5  UNL     1      39.387  22.733 101.572  1.00  0.00    -0.077 C 
HETATM    6  C6  UNL     1      38.211  23.463 102.068  1.00  0.00     0.065 C 
HETATM    7  C7  UNL     1      38.560  24.552 103.020  1.00  0.00     0.122 C 
HETATM    8  C8  UNL     1      39.919  24.413 103.623  1.00  0.00     0.032 C 
HETATM    9  C9  UNL     1      40.367  22.989 103.801  1.00  0.00     0.012 C 
HETATM   10  C10 UNL     1      40.373  22.200 102.543  1.00  0.00     0.019 C 
HETATM   11  C11 UNL     1      41.686  22.235 101.910  1.00  0.00     0.007 C 
HETATM   12  C12 UNL     1      42.208  23.492 101.351  1.00  0.00     0.011 C 
HETATM   13  C13 UNL     1      43.187  23.080 100.241  1.00  0.00     0.036 C 
HETATM   14  C14 UNL     1      43.203  21.537 100.432  1.00  0.00    -0.064 C 
ENDROOT
BRANCH  14  15
HETATM   15  C15 UNL     1      44.260  20.879  99.701  1.00  0.00    -0.051 C 
BRANCH  15  16
HETATM   16  C16 UNL     1      45.609  21.362  99.532  1.00  0.00    -0.014 C 
BRANCH  16  17
HETATM   17  C17 UNL     1      46.178  22.631  99.206  1.00  0.00     0.009 A 
HETATM   18  C18 UNL     1      47.237  22.650  98.053  1.00  0.00     0.009 A 
HETATM   19  C19 UNL     1      46.115  23.603  98.147  1.00  0.00     0.009 A 
ENDBRANCH  16  17
ENDBRANCH  15  16
BRANCH  15  20
HETATM   20  C20 UNL     1      43.762  19.987  98.546  1.00  0.00     0.041 C 
HETATM   21  C21 UNL     1      44.687  20.054  97.376  1.00  0.00    -0.021 C 
HETATM   22  C22 UNL     1      45.712  19.204  97.276  1.00  0.00    -0.030 C 
HETATM   23  C23 UNL     1      46.068  18.145  98.230  1.00  0.00     0.027 C 
HETATM   24  C24 UNL     1      44.988  17.874  99.226  1.00  0.00     0.005 C 
HETATM   25  C25 UNL     1      43.704  18.541  98.853  1.00  0.00     0.013 C 
ENDBRANCH  15  20
ENDBRANCH  14  15
BRANCH   7  26
HETATM   26  O1  UNL     1      38.487  25.796 102.391  1.00  0.00    -0.395 OA
ATOM     27  H1  UNL     1      39.356  26.107 102.166  1.00  0.00     0.210 HD
ENDBRANCH   7  26
TORSDOF 5
ENDMDL
MODEL 2
REMARK VINA RESULT: -8.112546439      0.907      2.675
REMARK  5 active torsions:
REMARK  status: ('A' for Active; 'I' for Inactive)
REMARK    1  A    between atoms: C7_7  and  O1_8 
REMARK    2  A    between atoms: C14_16  and  C15_17 
REMARK    3  A    between atoms: C15_17  and  C16_18 
REMARK    4  A    between atoms: C15_17  and  C20_22 
REMARK    5  A    between atoms: C16_18  and  C17_19 
ROOT
HETATM    1  C1  UNL     1      41.615  20.185 101.251  1.00  0.00     0.021 C 
HETATM    2  C2  UNL     1      41.873  21.577 100.730  1.00  0.00    -0.013 C 
HETATM    3  C3  UNL     1      40.767  21.990  99.811  1.00  0.00     0.041 C 
HETATM    4  C4  UNL     1      39.556  22.552 100.427  1.00  0.00    -0.022 C 
HETATM    5  C5  UNL     1      39.297  22.701 101.687  1.00  0.00    -0.077 C 
HETATM    6  C6  UNL     1      38.049  23.276 102.208  1.00  0.00     0.065 C 
HETATM    7  C7  UNL     1      38.277  24.369 103.192  1.00  0.00     0.122 C 
HETATM    8  C8  UNL     1      39.646  24.370 103.787  1.00  0.00     0.032 C 
HETATM    9  C9  UNL     1      40.256  23.002 103.920  1.00  0.00     0.012 C 
HETATM   10  C10 UNL     1      40.344  22.256 102.639  1.00  0.00     0.019 C 
HETATM   11  C11 UNL     1      41.640  22.461 102.003  1.00  0.00     0.007 C 
HETATM   12  C12 UNL     1      42.011  23.786 101.481  1.00  0.00     0.011 C 
HETATM   13  C13 UNL     1      43.024  23.523 100.356  1.00  0.00     0.036 C 
HETATM   14  C14 UNL     1      43.218  21.987 100.500  1.00  0.00    -0.064 C 
ENDROOT
BRANCH  14  15
HETATM   15  C15 UNL     1      44.339  21.476  99.747  1.00  0.00    -0.051 C 
BRANCH  15  16
HETATM   16  C16 UNL     1      44.417  20.187  99.104  1.00  0.00    -0.014 C 
BRANCH  16  17
HETATM   17  C17 UNL     1      43.912  19.653  97.880  1.00  0.00     0.009 A 
HETATM   18  C18 UNL     1      44.478  20.270  96.557  1.00  0.00     0.009 A 
HETATM   19  C19 UNL     1      44.363  18.819  96.797  1.00  0.00     0.009 A 
ENDBRANCH  16  17
ENDBRANCH  15  16
BRANCH  15  20
HETATM   20  C20 UNL     1      45.703  22.042 100.191  1.00  0.00     0.041 C 
HETATM   21  C21 UNL     1      46.828  21.321  99.524  1.00  0.00    -0.021 C 
HETATM   22  C22 UNL     1      47.300  21.745  98.350  1.00  0.00    -0.030 C 
HETATM   23  C23 UNL     1      46.825  22.902  97.581  1.00  0.00     0.027 C 
HETATM   24  C24 UNL     1      45.925  23.795  98.372  1.00  0.00     0.005 C 
HETATM   25  C25 UNL     1      45.941  23.456  99.827  1.00  0.00     0.013 C 
ENDBRANCH  15  20
ENDBRANCH  14  15
BRANCH   7  26
HETATM   26  O1  UNL     1      38.057  25.615 102.601  1.00  0.00    -0.395 OA
ATOM     27  H1  UNL     1      37.387  26.095 103.074  1.00  0.00     0.210 HD
ENDBRANCH   7  26
TORSDOF 5
ENDMDL
MODEL 3
REMARK VINA RESULT: -7.690178070      1.004      2.732
REMARK  5 active torsions:
REMARK  status: ('A' for Active; 'I' for Inactive)
REMARK    1  A    between atoms: C7_7  and  O1_8 
REMARK    2  A    between atoms: C14_16  and  C15_17 
REMARK    3  A    between atoms: C15_17  and  C16_18 
REMARK    4  A    between atoms: C15_17  and  C20_22 
REMARK    5  A    between atoms: C16_18  and  C17_19 
ROOT
HETATM    1  C1  UNL     1      41.510  19.744 101.132  1.00  0.00     0.021 C 
HETATM    2  C2  UNL     1      42.005  20.991 100.442  1.00  0.00    -0.013 C 
HETATM    3  C3  UNL     1      40.952  21.512  99.517  1.00  0.00     0.041 C 
HETATM    4  C4  UNL     1      39.909  22.369 100.100  1.00  0.00    -0.022 C 
HETATM    5  C5  UNL     1      39.753  22.704 101.341  1.00  0.00    -0.077 C 
HETATM    6  C6  UNL     1      38.671  23.570 101.830  1.00  0.00     0.065 C 
HETATM    7  C7  UNL     1      39.161  24.697 102.670  1.00  0.00     0.122 C 
HETATM    8  C8  UNL     1      40.534  24.489 103.216  1.00  0.00     0.032 C 
HETATM    9  C9  UNL     1      40.873  23.050 103.491  1.00  0.00     0.012 C 
HETATM   10  C10 UNL     1      40.744  22.166 102.305  1.00  0.00     0.019 C 
HETATM   11  C11 UNL     1      42.018  22.037 101.609  1.00  0.00     0.007 C 
HETATM   12  C12 UNL     1      42.611  23.196 100.922  1.00  0.00     0.011 C 
HETATM   13  C13 UNL     1      43.490  22.614  99.804  1.00  0.00     0.036 C 
HETATM   14  C14 UNL     1      43.390  21.096 100.123  1.00  0.00    -0.064 C 
ENDROOT
BRANCH  14  15
HETATM   15  C15 UNL     1      44.347  20.292  99.399  1.00  0.00    -0.051 C 
BRANCH  15  16
HETATM   16  C16 UNL     1      44.477  18.857  99.465  1.00  0.00    -0.014 C 
BRANCH  16  17
HETATM   17  C17 UNL     1      44.011  17.777  98.655  1.00  0.00     0.009 A 
HETATM   18  C18 UNL     1      44.960  16.540  98.520  1.00  0.00     0.009 A 
HETATM   19  C19 UNL     1      43.520  16.435  98.821  1.00  0.00     0.009 A 
ENDBRANCH  16  17
ENDBRANCH  15  16
BRANCH  15  20
HETATM   20  C20 UNL     1      45.660  21.029  99.067  1.00  0.00     0.041 C 
HETATM   21  C21 UNL     1      46.802  20.072  98.959  1.00  0.00    -0.021 C 
HETATM   22  C22 UNL     1      47.099  19.506  97.787  1.00  0.00    -0.030 C 
HETATM   23  C23 UNL     1      46.403  19.717  96.511  1.00  0.00     0.027 C 
HETATM   24  C24 UNL     1      45.473  20.886  96.542  1.00  0.00     0.005 C 
HETATM   25  C25 UNL     1      45.673  21.725  97.762  1.00  0.00     0.013 C 
ENDBRANCH  15  20
ENDBRANCH  14  15
BRANCH   7  26
HETATM   26  O1  UNL     1      39.155  25.889 101.943  1.00  0.00    -0.395 OA
ATOM     27  H1  UNL     1      39.945  26.388 102.116  1.00  0.00     0.210 HD
ENDBRANCH   7  26
TORSDOF 5
ENDMDL
MODEL 4
REMARK VINA RESULT: -7.515881324      2.803      7.304
REMARK  5 active torsions:
REMARK  status: ('A' for Active; 'I' for Inactive)
REMARK    1  A    between atoms: C7_7  and  O1_8 
REMARK    2  A    between atoms: C14_16  and  C15_17 
REMARK    3  A    between atoms: C15_17  and  C16_18 
REMARK    4  A    between atoms: C15_17  and  C20_22 
REMARK    5  A    between atoms: C16_18  and  C17_19 
ROOT
HETATM    1  C1  UNL     1      43.452  20.331  97.624  1.00  0.00     0.021 C 
HETATM    2  C2  UNL     1      44.090  20.779  98.915  1.00  0.00    -0.013 C 
HETATM    3  C3  UNL     1      45.102  19.771  99.359  1.00  0.00     0.041 C 
HETATM    4  C4  UNL     1      46.449  19.868  98.775  1.00  0.00    -0.022 C 
HETATM    5  C5  UNL     1      46.871  20.702  97.879  1.00  0.00    -0.077 C 
HETATM    6  C6  UNL     1      48.244  20.720  97.355  1.00  0.00     0.065 C 
HETATM    7  C7  UNL     1      48.869  22.069  97.404  1.00  0.00     0.122 C 
HETATM    8  C8  UNL     1      47.887  23.185  97.538  1.00  0.00     0.032 C 
HETATM    9  C9  UNL     1      46.562  22.916  96.879  1.00  0.00     0.012 C 
HETATM   10  C10 UNL     1      45.887  21.687  97.370  1.00  0.00     0.019 C 
HETATM   11  C11 UNL     1      44.963  21.996  98.455  1.00  0.00     0.007 C 
HETATM   12  C12 UNL     1      45.472  22.467  99.752  1.00  0.00     0.011 C 
HETATM   13  C13 UNL     1      44.416  22.056 100.790  1.00  0.00     0.036 C 
HETATM   14  C14 UNL     1      43.302  21.501  99.858  1.00  0.00    -0.064 C 
ENDROOT
BRANCH  14  15
HETATM   15  C15 UNL     1      42.043  21.285 100.532  1.00  0.00    -0.051 C 
BRANCH  15  16
HETATM   16  C16 UNL     1      41.487  20.008 100.911  1.00  0.00    -0.014 C 
BRANCH  16  17
HETATM   17  C17 UNL     1      41.944  18.658 100.822  1.00  0.00     0.009 A 
HETATM   18  C18 UNL     1      40.906  17.597 100.326  1.00  0.00     0.009 A 
HETATM   19  C19 UNL     1      42.283  17.697  99.807  1.00  0.00     0.009 A 
ENDBRANCH  16  17
ENDBRANCH  15  16
BRANCH  15  20
HETATM   20  C20 UNL     1      40.987  22.373 100.251  1.00  0.00     0.041 C 
HETATM   21  C21 UNL     1      39.702  22.069 100.949  1.00  0.00    -0.021 C 
HETATM   22  C22 UNL     1      39.487  22.513 102.189  1.00  0.00    -0.030 C 
HETATM   23  C23 UNL     1      40.409  23.311 103.007  1.00  0.00     0.027 C 
HETATM   24  C24 UNL     1      41.547  23.872 102.219  1.00  0.00     0.005 C 
HETATM   25  C25 UNL     1      41.334  23.723 100.748  1.00  0.00     0.013 C 
ENDBRANCH  15  20
ENDBRANCH  14  15
BRANCH   7  26
HETATM   26  O1  UNL     1      49.771  22.152  98.467  1.00  0.00    -0.395 OA
ATOM     27  H1  UNL     1      49.391  22.638  99.189  1.00  0.00     0.210 HD
ENDBRANCH   7  26
TORSDOF 5
ENDMDL
MODEL 5
REMARK VINA RESULT: -7.259595556      2.852      7.358
REMARK  5 active torsions:
REMARK  status: ('A' for Active; 'I' for Inactive)
REMARK    1  A    between atoms: C7_7  and  O1_8 
REMARK    2  A    between atoms: C14_16  and  C15_17 
REMARK    3  A    between atoms: C15_17  and  C16_18 
REMARK    4  A    between atoms: C15_17  and  C20_22 
REMARK    5  A    between atoms: C16_18  and  C17_19 
ROOT
HETATM    1  C1  UNL     1      45.196  23.133 101.265  1.00  0.00     0.021 C 
HETATM    2  C2  UNL     1      44.631  22.471 100.032  1.00  0.00    -0.013 C 
HETATM    3  C3  UNL     1      44.652  23.430  98.885  1.00  0.00     0.041 C 
HETATM    4  C4  UNL     1      45.907  23.544  98.127  1.00  0.00    -0.022 C 
HETATM    5  C5  UNL     1      47.032  22.943  98.352  1.00  0.00    -0.077 C 
HETATM    6  C6  UNL     1      48.239  23.124  97.533  1.00  0.00     0.065 C 
HETATM    7  C7  UNL     1      48.837  21.838  97.084  1.00  0.00     0.122 C 
HETATM    8  C8  UNL     1      48.398  20.657  97.883  1.00  0.00     0.032 C 
HETATM    9  C9  UNL     1      48.104  20.968  99.325  1.00  0.00     0.012 C 
HETATM   10  C10 UNL     1      47.074  22.022  99.513  1.00  0.00     0.019 C 
HETATM   11  C11 UNL     1      45.748  21.436  99.665  1.00  0.00     0.007 C 
HETATM   12  C12 UNL     1      45.109  20.741  98.536  1.00  0.00     0.011 C 
HETATM   13  C13 UNL     1      43.596  20.858  98.777  1.00  0.00     0.036 C 
HETATM   14  C14 UNL     1      43.581  21.520 100.184  1.00  0.00    -0.064 C 
ENDROOT
BRANCH  14  15
HETATM   15  C15 UNL     1      42.280  21.508 100.810  1.00  0.00    -0.051 C 
BRANCH  15  16
HETATM   16  C16 UNL     1      41.555  20.340 101.249  1.00  0.00    -0.014 C 
BRANCH  16  17
HETATM   17  C17 UNL     1      41.780  18.933 101.147  1.00  0.00     0.009 A 
HETATM   18  C18 UNL     1      40.632  18.082 100.511  1.00  0.00     0.009 A 
HETATM   19  C19 UNL     1      42.051  17.953 100.130  1.00  0.00     0.009 A 
ENDBRANCH  16  17
ENDBRANCH  15  16
BRANCH  15  20
HETATM   20  C20 UNL     1      41.379  22.693 100.406  1.00  0.00     0.041 C 
HETATM   21  C21 UNL     1      39.935  22.360 100.595  1.00  0.00    -0.021 C 
HETATM   22  C22 UNL     1      39.333  22.606 101.761  1.00  0.00    -0.030 C 
HETATM   23  C23 UNL     1      39.947  23.199 102.956  1.00  0.00     0.027 C 
HETATM   24  C24 UNL     1      41.283  23.809 102.681  1.00  0.00     0.005 C 
HETATM   25  C25 UNL     1      41.556  23.918 101.216  1.00  0.00     0.013 C 
ENDBRANCH  15  20
ENDBRANCH  14  15
BRANCH   7  26
HETATM   26  O1  UNL     1      48.529  21.596  95.743  1.00  0.00    -0.395 OA
ATOM     27  H1  UNL     1      47.591  21.644  95.603  1.00  0.00     0.210 HD
ENDBRANCH   7  26
TORSDOF 5
ENDMDL
