MODEL 1
REMARK VINA RESULT: -8.466659035      0.000      0.000
REMARK  6 active torsions:
REMARK  status: ('A' for Active; 'I' for Inactive)
REMARK    1  A    between atoms: C2_2  and  C3_3 
REMARK    2  A    between atoms: C3_3  and  O1_4 
REMARK    3  A    between atoms: O1_4  and  C4_5 
REMARK    4  A    between atoms: N1_11  and  O2_13 
REMARK    5  A    between atoms: O2_13  and  C10_14 
REMARK    6  A    between atoms: C16_20  and  O3_21 
ROOT
HETATM    1  C4  UNL     1      79.000   6.500  25.204  1.00  0.00     0.220 C 
HETATM    2  C5  UNL     1      79.310   7.709  25.993  1.00  0.00     0.041 C 
HETATM    3  C6  UNL     1      78.849   7.860  27.217  1.00  0.00    -0.015 C 
HETATM    4  C7  UNL     1      77.998   6.887  27.939  1.00  0.00     0.069 C 
HETATM    5  C8  UNL     1      78.416   6.721  29.379  1.00  0.00     0.071 C 
HETATM    6  C9  UNL     1      79.629   5.912  29.420  1.00  0.00     0.044 C 
HETATM    7  N1  UNL     1      80.400   5.918  30.449  1.00  0.00    -0.266 N 
ATOM      8  H1  UNL     1      81.237   5.335  30.434  1.00  0.00     0.194 HD
HETATM    9  C13 UNL     1      80.041   5.037  28.275  1.00  0.00     0.195 C 
HETATM   10  C14 UNL     1      81.224   5.583  27.589  1.00  0.00     0.009 C 
HETATM   11  C15 UNL     1      81.245   5.879  26.177  1.00  0.00     0.009 C 
HETATM   12  C16 UNL     1      80.169   5.518  25.237  1.00  0.00     0.208 C 
HETATM   13  O4  UNL     1      78.970   4.706  27.510  1.00  0.00    -0.346 OA
HETATM   14  C17 UNL     1      78.044   5.601  27.169  1.00  0.00     0.273 C 
HETATM   15  O5  UNL     1      77.948   5.789  25.838  1.00  0.00    -0.318 OA
ENDROOT
BRANCH   7  16
HETATM   16  O2  UNL     1      80.145   6.675  31.568  1.00  0.00    -0.244 OA
BRANCH  16  17
HETATM   17  C10 UNL     1      80.325   6.126  32.831  1.00  0.00     0.063 C 
HETATM   18  C11 UNL     1      80.292   6.920  33.879  1.00  0.00     0.048 C 
HETATM   19  C12 UNL     1      80.552   4.671  33.025  1.00  0.00     0.078 C 
ENDBRANCH  16  17
ENDBRANCH   7  16
BRANCH  12  20
HETATM   20  O3  UNL     1      80.763   5.605  23.956  1.00  0.00    -0.386 OA
ATOM     21  H3  UNL     1      80.406   4.875  23.466  1.00  0.00     0.210 HD
ENDBRANCH  12  20
BRANCH   1  22
HETATM   22  O1  UNL     1      78.446   6.711  24.004  1.00  0.00    -0.319 OA
BRANCH  22  23
HETATM   23  C3  UNL     1      77.375   6.264  23.439  1.00  0.00     0.138 C 
BRANCH  23  24
HETATM   24  C2  UNL     1      76.183   7.112  23.217  1.00  0.00     0.014 C 
HETATM   25  C1  UNL     1      75.138   6.708  22.499  1.00  0.00     0.013 C 
ENDBRANCH  23  24
ENDBRANCH  22  23
ENDBRANCH   1  22
TORSDOF 6
ENDMDL
MODEL 2
REMARK VINA RESULT: -7.649716435      2.001      2.426
REMARK  6 active torsions:
REMARK  status: ('A' for Active; 'I' for Inactive)
REMARK    1  A    between atoms: C2_2  and  C3_3 
REMARK    2  A    between atoms: C3_3  and  O1_4 
REMARK    3  A    between atoms: O1_4  and  C4_5 
REMARK    4  A    between atoms: N1_11  and  O2_13 
REMARK    5  A    between atoms: O2_13  and  C10_14 
REMARK    6  A    between atoms: C16_20  and  O3_21 
ROOT
HETATM    1  C4  UNL     1      78.324   5.527  24.955  1.00  0.00     0.220 C 
HETATM    2  C5  UNL     1      79.030   6.823  25.001  1.00  0.00     0.041 C 
HETATM    3  C6  UNL     1      79.008   7.574  26.082  1.00  0.00    -0.015 C 
HETATM    4  C7  UNL     1      78.307   7.240  27.342  1.00  0.00     0.069 C 
HETATM    5  C8  UNL     1      79.135   7.569  28.560  1.00  0.00     0.071 C 
HETATM    6  C9  UNL     1      80.177   6.557  28.700  1.00  0.00     0.044 C 
HETATM    7  N1  UNL     1      81.228   6.776  29.406  1.00  0.00    -0.266 N 
ATOM      8  H1  UNL     1      81.930   6.039  29.477  1.00  0.00     0.194 HD
HETATM    9  C13 UNL     1      80.080   5.218  28.034  1.00  0.00     0.195 C 
HETATM   10  C14 UNL     1      81.046   5.105  26.927  1.00  0.00     0.009 C 
HETATM   11  C15 UNL     1      80.656   4.786  25.575  1.00  0.00     0.009 C 
HETATM   12  C16 UNL     1      79.299   4.373  25.178  1.00  0.00     0.208 C 
HETATM   13  O4  UNL     1      78.787   4.900  27.771  1.00  0.00    -0.346 OA
HETATM   14  C17 UNL     1      77.931   5.790  27.270  1.00  0.00     0.273 C 
HETATM   15  O5  UNL     1      77.443   5.439  26.064  1.00  0.00    -0.318 OA
ENDROOT
BRANCH   7  16
HETATM   16  O2  UNL     1      81.448   7.960  30.070  1.00  0.00    -0.244 OA
BRANCH  16  17
HETATM   17  C10 UNL     1      82.331   8.895  29.546  1.00  0.00     0.063 C 
HETATM   18  C11 UNL     1      83.622   8.655  29.610  1.00  0.00     0.048 C 
HETATM   19  C12 UNL     1      81.852  10.153  28.917  1.00  0.00     0.078 C 
ENDBRANCH  16  17
ENDBRANCH   7  16
BRANCH  12  20
HETATM   20  O3  UNL     1      79.461   3.772  23.908  1.00  0.00    -0.386 OA
ATOM     21  H3  UNL     1      80.394   3.618  23.822  1.00  0.00     0.210 HD
ENDBRANCH  12  20
BRANCH   1  22
HETATM   22  O1  UNL     1      77.451   5.371  23.953  1.00  0.00    -0.319 OA
BRANCH  22  23
HETATM   23  C3  UNL     1      77.033   6.158  23.019  1.00  0.00     0.138 C 
BRANCH  23  24
HETATM   24  C2  UNL     1      75.614   6.555  22.893  1.00  0.00     0.014 C 
HETATM   25  C1  UNL     1      74.687   5.751  22.377  1.00  0.00     0.013 C 
ENDBRANCH  23  24
ENDBRANCH  22  23
ENDBRANCH   1  22
TORSDOF 6
ENDMDL
MODEL 3
REMARK VINA RESULT: -7.361792491      2.044      3.158
REMARK  6 active torsions:
REMARK  status: ('A' for Active; 'I' for Inactive)
REMARK    1  A    between atoms: C2_2  and  C3_3 
REMARK    2  A    between atoms: C3_3  and  O1_4 
REMARK    3  A    between atoms: O1_4  and  C4_5 
REMARK    4  A    between atoms: N1_11  and  O2_13 
REMARK    5  A    between atoms: O2_13  and  C10_14 
REMARK    6  A    between atoms: C16_20  and  O3_21 
ROOT
HETATM    1  C4  UNL     1      78.689   5.328  24.348  1.00  0.00     0.220 C 
HETATM    2  C5  UNL     1      79.878   4.453  24.352  1.00  0.00     0.041 C 
HETATM    3  C6  UNL     1      81.027   4.866  24.847  1.00  0.00    -0.015 C 
HETATM    4  C7  UNL     1      81.274   6.200  25.439  1.00  0.00     0.069 C 
HETATM    5  C8  UNL     1      82.108   6.121  26.694  1.00  0.00     0.071 C 
HETATM    6  C9  UNL     1      81.265   5.633  27.781  1.00  0.00     0.044 C 
HETATM    7  N1  UNL     1      81.777   5.125  28.845  1.00  0.00    -0.266 N 
ATOM      8  H1  UNL     1      81.150   4.798  29.580  1.00  0.00     0.194 HD
HETATM    9  C13 UNL     1      79.769   5.695  27.718  1.00  0.00     0.195 C 
HETATM   10  C14 UNL     1      79.189   4.352  27.552  1.00  0.00     0.009 C 
HETATM   11  C15 UNL     1      78.308   4.006  26.464  1.00  0.00     0.009 C 
HETATM   12  C16 UNL     1      77.755   4.976  25.503  1.00  0.00     0.208 C 
HETATM   13  O4  UNL     1      79.362   6.663  26.858  1.00  0.00    -0.346 OA
HETATM   14  C17 UNL     1      79.937   6.838  25.670  1.00  0.00     0.273 C 
HETATM   15  O5  UNL     1      79.091   6.659  24.636  1.00  0.00    -0.318 OA
ENDROOT
BRANCH   7  16
HETATM   16  O2  UNL     1      83.134   5.005  29.036  1.00  0.00    -0.244 OA
BRANCH  16  17
HETATM   17  C10 UNL     1      83.710   5.455  30.217  1.00  0.00     0.063 C 
HETATM   18  C11 UNL     1      84.967   5.840  30.205  1.00  0.00     0.048 C 
HETATM   19  C12 UNL     1      82.943   5.510  31.488  1.00  0.00     0.078 C 
ENDBRANCH  16  17
ENDBRANCH   7  16
BRANCH  12  20
HETATM   20  O3  UNL     1      76.660   4.310  24.905  1.00  0.00    -0.386 OA
ATOM     21  H3  UNL     1      76.410   4.854  24.167  1.00  0.00     0.210 HD
ENDBRANCH  12  20
BRANCH   1  22
HETATM   22  O1  UNL     1      78.105   5.516  23.158  1.00  0.00    -0.319 OA
BRANCH  22  23
HETATM   23  C3  UNL     1      77.515   6.529  22.618  1.00  0.00     0.138 C 
BRANCH  23  24
HETATM   24  C2  UNL     1      76.131   6.919  22.966  1.00  0.00     0.014 C 
HETATM   25  C1  UNL     1      75.064   6.279  22.494  1.00  0.00     0.013 C 
ENDBRANCH  23  24
ENDBRANCH  22  23
ENDBRANCH   1  22
TORSDOF 6
ENDMDL
MODEL 4
REMARK VINA RESULT: -7.268671298      1.832      2.180
REMARK  6 active torsions:
REMARK  status: ('A' for Active; 'I' for Inactive)
REMARK    1  A    between atoms: C2_2  and  C3_3 
REMARK    2  A    between atoms: C3_3  and  O1_4 
REMARK    3  A    between atoms: O1_4  and  C4_5 
REMARK    4  A    between atoms: N1_11  and  O2_13 
REMARK    5  A    between atoms: O2_13  and  C10_14 
REMARK    6  A    between atoms: C16_20  and  O3_21 
ROOT
HETATM    1  C4  UNL     1      78.557   6.106  25.029  1.00  0.00     0.220 C 
HETATM    2  C5  UNL     1      79.986   6.434  25.205  1.00  0.00     0.041 C 
HETATM    3  C6  UNL     1      80.375   7.333  26.084  1.00  0.00    -0.015 C 
HETATM    4  C7  UNL     1      79.480   8.103  26.977  1.00  0.00     0.069 C 
HETATM    5  C8  UNL     1      80.028   8.213  28.377  1.00  0.00     0.071 C 
HETATM    6  C9  UNL     1      79.840   6.933  29.052  1.00  0.00     0.044 C 
HETATM    7  N1  UNL     1      80.523   6.623  30.095  1.00  0.00    -0.266 N 
ATOM      8  H1  UNL     1      80.358   5.717  30.535  1.00  0.00     0.194 HD
HETATM    9  C13 UNL     1      78.849   5.918  28.570  1.00  0.00     0.195 C 
HETATM   10  C14 UNL     1      79.529   4.753  27.978  1.00  0.00     0.009 C 
HETATM   11  C15 UNL     1      79.274   4.294  26.634  1.00  0.00     0.009 C 
HETATM   12  C16 UNL     1      78.203   4.817  25.768  1.00  0.00     0.208 C 
HETATM   13  O4  UNL     1      77.868   6.507  27.840  1.00  0.00    -0.346 OA
HETATM   14  C17 UNL     1      78.133   7.443  26.930  1.00  0.00     0.273 C 
HETATM   15  O5  UNL     1      77.771   7.091  25.681  1.00  0.00    -0.318 OA
ENDROOT
BRANCH   7  16
HETATM   16  O2  UNL     1      81.467   7.458  30.645  1.00  0.00    -0.244 OA
BRANCH  16  17
HETATM   17  C10 UNL     1      82.791   7.045  30.734  1.00  0.00     0.063 C 
HETATM   18  C11 UNL     1      83.728   7.949  30.919  1.00  0.00     0.048 C 
HETATM   19  C12 UNL     1      83.170   5.613  30.625  1.00  0.00     0.078 C 
ENDBRANCH  16  17
ENDBRANCH   7  16
BRANCH  12  20
HETATM   20  O3  UNL     1      78.046   3.840  24.757  1.00  0.00    -0.386 OA
ATOM     21  H3  UNL     1      78.344   4.259  23.958  1.00  0.00     0.210 HD
ENDBRANCH  12  20
BRANCH   1  22
HETATM   22  O1  UNL     1      78.079   6.216  23.784  1.00  0.00    -0.319 OA
BRANCH  22  23
HETATM   23  C3  UNL     1      77.050   6.816  23.285  1.00  0.00     0.138 C 
BRANCH  23  24
HETATM   24  C2  UNL     1      75.795   6.102  22.964  1.00  0.00     0.014 C 
HETATM   25  C1  UNL     1      74.810   6.661  22.265  1.00  0.00     0.013 C 
ENDBRANCH  23  24
ENDBRANCH  22  23
ENDBRANCH   1  22
TORSDOF 6
ENDMDL
MODEL 5
REMARK VINA RESULT: -7.241192028      1.461      1.807
REMARK  6 active torsions:
REMARK  status: ('A' for Active; 'I' for Inactive)
REMARK    1  A    between atoms: C2_2  and  C3_3 
REMARK    2  A    between atoms: C3_3  and  O1_4 
REMARK    3  A    between atoms: O1_4  and  C4_5 
REMARK    4  A    between atoms: N1_11  and  O2_13 
REMARK    5  A    between atoms: O2_13  and  C10_14 
REMARK    6  A    between atoms: C16_20  and  O3_21 
ROOT
HETATM    1  C4  UNL     1      78.863   6.883  26.766  1.00  0.00     0.220 C 
HETATM    2  C5  UNL     1      78.382   7.748  27.862  1.00  0.00     0.041 C 
HETATM    3  C6  UNL     1      78.167   7.265  29.068  1.00  0.00    -0.015 C 
HETATM    4  C7  UNL     1      78.367   5.856  29.474  1.00  0.00     0.069 C 
HETATM    5  C8  UNL     1      79.024   5.740  30.827  1.00  0.00     0.071 C 
HETATM    6  C9  UNL     1      80.443   6.053  30.682  1.00  0.00     0.044 C 
HETATM    7  N1  UNL     1      81.158   6.390  31.695  1.00  0.00    -0.266 N 
ATOM      8  H1  UNL     1      82.145   6.599  31.548  1.00  0.00     0.194 HD
HETATM    9  C13 UNL     1      81.138   6.000  29.356  1.00  0.00     0.195 C 
HETATM   10  C14 UNL     1      81.470   7.352  28.876  1.00  0.00     0.009 C 
HETATM   11  C15 UNL     1      81.036   7.862  27.598  1.00  0.00     0.009 C 
HETATM   12  C16 UNL     1      80.367   7.051  26.566  1.00  0.00     0.208 C 
HETATM   13  O4  UNL     1      80.482   5.176  28.499  1.00  0.00    -0.346 OA
HETATM   14  C17 UNL     1      79.155   5.188  28.387  1.00  0.00     0.273 C 
HETATM   15  O5  UNL     1      78.727   5.525  27.154  1.00  0.00    -0.318 OA
ENDROOT
BRANCH   7  16
HETATM   16  O2  UNL     1      80.650   6.481  32.970  1.00  0.00    -0.244 OA
BRANCH  16  17
HETATM   17  C10 UNL     1      81.172   5.687  33.983  1.00  0.00     0.063 C 
HETATM   18  C11 UNL     1      81.478   6.244  35.134  1.00  0.00     0.048 C 
HETATM   19  C12 UNL     1      81.392   4.230  33.796  1.00  0.00     0.078 C 
ENDBRANCH  16  17
ENDBRANCH   7  16
BRANCH  12  20
HETATM   20  O3  UNL     1      80.502   7.800  25.374  1.00  0.00    -0.386 OA
ATOM     21  H3  UNL     1      81.271   8.342  25.506  1.00  0.00     0.210 HD
ENDBRANCH  12  20
BRANCH   1  22
HETATM   22  O1  UNL     1      78.120   6.881  25.653  1.00  0.00    -0.319 OA
BRANCH  22  23
HETATM   23  C3  UNL     1      77.629   5.935  24.924  1.00  0.00     0.138 C 
BRANCH  23  24
HETATM   24  C2  UNL     1      77.206   6.152  23.523  1.00  0.00     0.014 C 
HETATM   25  C1  UNL     1      76.153   6.898  23.199  1.00  0.00     0.013 C 
ENDBRANCH  23  24
ENDBRANCH  22  23
ENDBRANCH   1  22
TORSDOF 6
ENDMDL
