MODEL 1
REMARK VINA RESULT: -8.304661591      0.000      0.000
REMARK  7 active torsions:
REMARK  status: ('A' for Active; 'I' for Inactive)
REMARK    1  A    between atoms: O1_2  and  C2_3 
REMARK    2  A    between atoms: C2_3  and  C3_4 
REMARK    3  A    between atoms: C3_4  and  C4_5 
REMARK    4  A    between atoms: C4_5  and  C5_6 
REMARK    5  A    between atoms: C6_7  and  C7_8 
REMARK    6  A    between atoms: C12_18  and  C13_19 
REMARK    7  A    between atoms: C17_25  and  C18_26 
ROOT
HETATM    1  C7  UNL     1       8.763  32.719  19.642  1.00  0.00     0.135 C 
HETATM    2  C8  UNL     1       9.628  31.516  19.406  1.00  0.00     0.231 C 
HETATM    3  O2  UNL     1       9.411  30.396  19.906  1.00  0.00    -0.273 OA
HETATM    4  N1  UNL     1      10.718  31.876  18.526  1.00  0.00    -0.332 N 
HETATM    5  C9  UNL     1      11.422  30.894  17.732  1.00  0.00     0.155 C 
HETATM    6  C10 UNL     1      10.821  33.285  18.690  1.00  0.00     0.226 C 
HETATM    7  C11 UNL     1       9.340  33.649  18.600  1.00  0.00     0.245 C 
HETATM    8  N2  UNL     1       9.246  35.025  18.916  1.00  0.00    -0.056 N 
ATOM      9  H21 UNL     1       9.717  35.278  19.785  1.00  0.00     0.278 HD
ATOM     10  H22 UNL     1       8.310  35.318  19.195  1.00  0.00     0.278 HD
HETATM   11  C12 UNL     1       9.764  35.744  17.728  1.00  0.00     0.241 C 
HETATM   12  C23 UNL     1      11.225  35.454  17.545  1.00  0.00     0.155 C 
HETATM   13  C24 UNL     1      11.650  35.707  16.112  1.00  0.00     0.155 C 
HETATM   14  C25 UNL     1      12.872  36.603  16.017  1.00  0.00     0.042 C 
HETATM   15  O4  UNL     1      12.117  34.432  15.612  1.00  0.00    -0.297 OA
HETATM   16  C26 UNL     1      12.532  33.724  16.768  1.00  0.00     0.365 C 
HETATM   17  O5  UNL     1      13.547  32.997  16.917  1.00  0.00    -0.238 OA
HETATM   18  N6  UNL     1      11.507  34.048  17.712  1.00  0.00    -0.295 N 
ENDROOT
BRANCH  11  19
HETATM   19  C13 UNL     1       9.456  37.187  17.864  1.00  0.00    -0.041 A 
HETATM   20  C14 UNL     1       9.755  38.101  18.729  1.00  0.00     0.035 A 
HETATM   21  C15 UNL     1       9.191  39.407  18.400  1.00  0.00     0.040 A 
HETATM   22  N3  UNL     1       9.075  40.703  18.756  1.00  0.00    -0.353 N 
HETATM   23  C21 UNL     1       8.493  39.258  17.243  1.00  0.00    -0.013 A 
HETATM   24  C16 UNL     1       8.335  41.370  17.865  1.00  0.00     0.077 A 
ATOM     25  H3  UNL     1       9.494  41.117  19.589  1.00  0.00     0.166 HD
HETATM   26  C17 UNL     1       7.796  42.602  17.526  1.00  0.00     0.125 A 
HETATM   27  C20 UNL     1       7.960  40.470  16.903  1.00  0.00     0.017 A 
HETATM   28  N5  UNL     1       7.115  42.404  16.371  1.00  0.00    -0.359 N 
HETATM   29  C19 UNL     1       7.199  41.125  15.976  1.00  0.00     0.103 A 
ATOM     30  H5  UNL     1       6.606  43.131  15.869  1.00  0.00     0.165 HD
HETATM   31  C22 UNL     1       8.586  37.852  16.827  1.00  0.00     0.078 A 
BRANCH  26  32
HETATM   32  C18 UNL     1       7.924  43.851  18.244  1.00  0.00     0.283 C 
HETATM   33  N4  UNL     1       8.459  43.886  19.550  1.00  0.00    -0.056 NA
HETATM   34  O3  UNL     1       7.558  44.911  17.700  1.00  0.00    -0.269 OA
ENDBRANCH  26  32
ENDBRANCH  11  19
BRANCH   1  35
HETATM   35  C6  UNL     1       8.955  33.153  21.021  1.00  0.00    -0.015 C 
HETATM   36  C5  UNL     1       8.030  33.434  21.887  1.00  0.00    -0.030 C 
BRANCH  36  37
HETATM   37  C4  UNL     1       6.585  33.365  21.635  1.00  0.00     0.029 C 
BRANCH  37  38
HETATM   38  C3  UNL     1       5.909  34.722  21.587  1.00  0.00     0.030 C 
BRANCH  38  39
HETATM   39  C2  UNL     1       5.783  35.195  20.162  1.00  0.00     0.167 C 
BRANCH  39  40
HETATM   40  O1  UNL     1       6.682  36.161  19.799  1.00  0.00    -0.396 OA
HETATM   41  C1  UNL     1       6.596  37.349  20.476  1.00  0.00     0.201 C 
ENDBRANCH  39  40
ENDBRANCH  38  39
ENDBRANCH  37  38
ENDBRANCH  36  37
ENDBRANCH   1  35
TORSDOF 7
ENDMDL
MODEL 2
REMARK VINA RESULT: -8.151737832      2.418      5.124
REMARK  7 active torsions:
REMARK  status: ('A' for Active; 'I' for Inactive)
REMARK    1  A    between atoms: O1_2  and  C2_3 
REMARK    2  A    between atoms: C2_3  and  C3_4 
REMARK    3  A    between atoms: C3_4  and  C4_5 
REMARK    4  A    between atoms: C4_5  and  C5_6 
REMARK    5  A    between atoms: C6_7  and  C7_8 
REMARK    6  A    between atoms: C12_18  and  C13_19 
REMARK    7  A    between atoms: C17_25  and  C18_26 
ROOT
HETATM    1  C7  UNL     1      11.239  32.759  19.036  1.00  0.00     0.135 C 
HETATM    2  C8  UNL     1      10.595  31.715  19.901  1.00  0.00     0.231 C 
HETATM    3  O2  UNL     1      11.069  30.578  20.087  1.00  0.00    -0.273 OA
HETATM    4  N1  UNL     1       9.371  32.246  20.460  1.00  0.00    -0.332 N 
HETATM    5  C9  UNL     1       8.785  31.715  21.670  1.00  0.00     0.155 C 
HETATM    6  C10 UNL     1       9.023  33.289  19.557  1.00  0.00     0.226 C 
HETATM    7  C11 UNL     1      10.392  33.952  19.413  1.00  0.00     0.245 C 
HETATM    8  N2  UNL     1      10.258  34.929  18.399  1.00  0.00    -0.056 N 
ATOM      9  H21 UNL     1       9.842  34.571  17.540  1.00  0.00     0.278 HD
ATOM     10  H22 UNL     1      11.147  35.220  17.992  1.00  0.00     0.278 HD
HETATM   11  C12 UNL     1       9.494  36.040  19.013  1.00  0.00     0.241 C 
HETATM   12  C23 UNL     1       8.102  35.588  19.346  1.00  0.00     0.155 C 
HETATM   13  C24 UNL     1       7.490  36.469  20.416  1.00  0.00     0.155 C 
HETATM   14  C25 UNL     1       6.119  36.991  20.027  1.00  0.00     0.042 C 
HETATM   15  O4  UNL     1       7.221  35.592  21.537  1.00  0.00    -0.297 OA
HETATM   16  C26 UNL     1       7.069  34.307  20.957  1.00  0.00     0.365 C 
HETATM   17  O5  UNL     1       6.229  33.415  21.243  1.00  0.00    -0.238 OA
HETATM   18  N6  UNL     1       8.108  34.288  19.974  1.00  0.00    -0.295 N 
ENDROOT
BRANCH  11  19
HETATM   19  C13 UNL     1       9.538  37.214  18.110  1.00  0.00    -0.041 A 
HETATM   20  C14 UNL     1       8.839  38.296  17.992  1.00  0.00     0.035 A 
HETATM   21  C15 UNL     1       9.302  39.163  16.913  1.00  0.00     0.040 A 
HETATM   22  N3  UNL     1       9.126  40.324  16.249  1.00  0.00    -0.353 N 
HETATM   23  C21 UNL     1      10.366  38.544  16.335  1.00  0.00    -0.013 A 
HETATM   24  C16 UNL     1      10.038  40.457  15.283  1.00  0.00     0.077 A 
ATOM     25  H3  UNL     1       8.396  41.007  16.457  1.00  0.00     0.166 HD
HETATM   26  C17 UNL     1      10.503  41.267  14.258  1.00  0.00     0.125 A 
HETATM   27  C20 UNL     1      10.829  39.339  15.324  1.00  0.00     0.017 A 
HETATM   28  N5  UNL     1      11.559  40.611  13.716  1.00  0.00    -0.359 N 
HETATM   29  C19 UNL     1      11.775  39.445  14.343  1.00  0.00     0.103 A 
ATOM     30  H5  UNL     1      12.116  40.960  12.936  1.00  0.00     0.165 HD
HETATM   31  C22 UNL     1      10.585  37.265  17.024  1.00  0.00     0.078 A 
BRANCH  26  32
HETATM   32  C18 UNL     1       9.983  42.550  13.839  1.00  0.00     0.283 C 
HETATM   33  N4  UNL     1       9.465  43.466  14.782  1.00  0.00    -0.056 NA
HETATM   34  O3  UNL     1       9.992  42.850  12.629  1.00  0.00    -0.269 OA
ENDBRANCH  26  32
ENDBRANCH  11  19
BRANCH   1  35
HETATM   35  C6  UNL     1      11.114  32.337  17.645  1.00  0.00    -0.015 C 
HETATM   36  C5  UNL     1      11.984  32.505  16.698  1.00  0.00    -0.030 C 
BRANCH  36  37
HETATM   37  C4  UNL     1      13.285  33.166  16.851  1.00  0.00     0.029 C 
BRANCH  37  38
HETATM   38  C3  UNL     1      13.244  34.661  16.599  1.00  0.00     0.030 C 
BRANCH  38  39
HETATM   39  C2  UNL     1      13.603  35.414  17.854  1.00  0.00     0.167 C 
BRANCH  39  40
HETATM   40  O1  UNL     1      14.434  36.485  17.659  1.00  0.00    -0.396 OA
HETATM   41  C1  UNL     1      14.208  37.226  16.529  1.00  0.00     0.201 C 
ENDBRANCH  39  40
ENDBRANCH  38  39
ENDBRANCH  37  38
ENDBRANCH  36  37
ENDBRANCH   1  35
TORSDOF 7
ENDMDL
MODEL 3
REMARK VINA RESULT: -8.012227033      1.043      1.321
REMARK  7 active torsions:
REMARK  status: ('A' for Active; 'I' for Inactive)
REMARK    1  A    between atoms: O1_2  and  C2_3 
REMARK    2  A    between atoms: C2_3  and  C3_4 
REMARK    3  A    between atoms: C3_4  and  C4_5 
REMARK    4  A    between atoms: C4_5  and  C5_6 
REMARK    5  A    between atoms: C6_7  and  C7_8 
REMARK    6  A    between atoms: C12_18  and  C13_19 
REMARK    7  A    between atoms: C17_25  and  C18_26 
ROOT
HETATM    1  C7  UNL     1       8.764  32.746  19.342  1.00  0.00     0.135 C 
HETATM    2  C8  UNL     1       9.669  31.557  19.208  1.00  0.00     0.231 C 
HETATM    3  O2  UNL     1       9.439  30.446  19.723  1.00  0.00    -0.273 OA
HETATM    4  N1  UNL     1      10.816  31.917  18.403  1.00  0.00    -0.332 N 
HETATM    5  C9  UNL     1      11.599  30.931  17.694  1.00  0.00     0.155 C 
HETATM    6  C10 UNL     1      10.876  33.333  18.533  1.00  0.00     0.226 C 
HETATM    7  C11 UNL     1       9.399  33.660  18.320  1.00  0.00     0.245 C 
HETATM    8  N2  UNL     1       9.252  35.040  18.587  1.00  0.00    -0.056 N 
ATOM      9  H21 UNL     1       9.650  35.328  19.481  1.00  0.00     0.278 HD
ATOM     10  H22 UNL     1       8.292  35.319  18.786  1.00  0.00     0.278 HD
HETATM   11  C12 UNL     1       9.844  35.738  17.422  1.00  0.00     0.241 C 
HETATM   12  C23 UNL     1      11.320  35.478  17.358  1.00  0.00     0.155 C 
HETATM   13  C24 UNL     1      11.849  35.701  15.955  1.00  0.00     0.155 C 
HETATM   14  C25 UNL     1      13.055  36.622  15.926  1.00  0.00     0.042 C 
HETATM   15  O4  UNL     1      12.379  34.423  15.529  1.00  0.00    -0.297 OA
HETATM   16  C26 UNL     1      12.719  33.758  16.734  1.00  0.00     0.365 C 
HETATM   17  O5  UNL     1      13.735  33.059  16.981  1.00  0.00    -0.238 OA
HETATM   18  N6  UNL     1      11.618  34.083  17.588  1.00  0.00    -0.295 N 
ENDROOT
BRANCH  11  19
HETATM   19  C13 UNL     1       9.496  37.177  17.492  1.00  0.00    -0.041 A 
HETATM   20  C14 UNL     1       9.774  38.214  16.770  1.00  0.00     0.035 A 
HETATM   21  C15 UNL     1       9.168  39.443  17.276  1.00  0.00     0.040 A 
HETATM   22  N3  UNL     1       9.001  40.769  17.098  1.00  0.00    -0.353 N 
HETATM   23  C21 UNL     1       8.472  39.111  18.396  1.00  0.00    -0.013 A 
HETATM   24  C16 UNL     1       8.226  41.278  18.059  1.00  0.00     0.077 A 
ATOM     25  H3  UNL     1       9.409  41.309  16.334  1.00  0.00     0.166 HD
HETATM   26  C17 UNL     1       7.632  42.429  18.555  1.00  0.00     0.125 A 
HETATM   27  C20 UNL     1       7.884  40.242  18.888  1.00  0.00     0.017 A 
HETATM   28  N5  UNL     1       6.952  42.049  19.664  1.00  0.00    -0.359 N 
HETATM   29  C19 UNL     1       7.089  40.733  19.886  1.00  0.00     0.103 A 
ATOM     30  H5  UNL     1       6.407  42.680  20.252  1.00  0.00     0.165 HD
HETATM   31  C22 UNL     1       8.640  37.670  18.632  1.00  0.00     0.078 A 
BRANCH  26  32
HETATM   32  C18 UNL     1       7.710  43.768  18.012  1.00  0.00     0.283 C 
HETATM   33  N4  UNL     1       8.668  44.098  17.029  1.00  0.00    -0.056 NA
HETATM   34  O3  UNL     1       6.919  44.642  18.419  1.00  0.00    -0.269 OA
ENDBRANCH  26  32
ENDBRANCH  11  19
BRANCH   1  35
HETATM   35  C6  UNL     1       8.840  33.222  20.719  1.00  0.00    -0.015 C 
HETATM   36  C5  UNL     1       7.866  33.685  21.440  1.00  0.00    -0.030 C 
BRANCH  36  37
HETATM   37  C4  UNL     1       6.473  33.819  20.996  1.00  0.00     0.029 C 
BRANCH  37  38
HETATM   38  C3  UNL     1       6.175  35.139  20.312  1.00  0.00     0.030 C 
BRANCH  38  39
HETATM   39  C2  UNL     1       4.750  35.555  20.574  1.00  0.00     0.167 C 
BRANCH  39  40
HETATM   40  O1  UNL     1       4.587  36.883  20.860  1.00  0.00    -0.396 OA
HETATM   41  C1  UNL     1       5.698  37.543  21.316  1.00  0.00     0.201 C 
ENDBRANCH  39  40
ENDBRANCH  38  39
ENDBRANCH  37  38
ENDBRANCH  36  37
ENDBRANCH   1  35
TORSDOF 7
ENDMDL
MODEL 4
REMARK VINA RESULT: -7.959607248      3.055      9.817
REMARK  7 active torsions:
REMARK  status: ('A' for Active; 'I' for Inactive)
REMARK    1  A    between atoms: O1_2  and  C2_3 
REMARK    2  A    between atoms: C2_3  and  C3_4 
REMARK    3  A    between atoms: C3_4  and  C4_5 
REMARK    4  A    between atoms: C4_5  and  C5_6 
REMARK    5  A    between atoms: C6_7  and  C7_8 
REMARK    6  A    between atoms: C12_18  and  C13_19 
REMARK    7  A    between atoms: C17_25  and  C18_26 
ROOT
HETATM    1  C7  UNL     1       8.073  41.585  15.305  1.00  0.00     0.135 C 
HETATM    2  C8  UNL     1       7.625  42.879  15.920  1.00  0.00     0.231 C 
HETATM    3  O2  UNL     1       7.535  43.952  15.293  1.00  0.00    -0.273 OA
HETATM    4  N1  UNL     1       7.325  42.664  17.319  1.00  0.00    -0.332 N 
HETATM    5  C9  UNL     1       6.439  43.534  18.057  1.00  0.00     0.155 C 
HETATM    6  C10 UNL     1       8.076  41.499  17.641  1.00  0.00     0.226 C 
HETATM    7  C11 UNL     1       7.720  40.639  16.428  1.00  0.00     0.245 C 
HETATM    8  N2  UNL     1       8.530  39.483  16.507  1.00  0.00    -0.056 N 
ATOM      9  H21 UNL     1       9.522  39.686  16.636  1.00  0.00     0.278 HD
ATOM     10  H22 UNL     1       8.623  38.986  15.621  1.00  0.00     0.278 HD
HETATM   11  C12 UNL     1       7.947  38.659  17.592  1.00  0.00     0.241 C 
HETATM   12  C23 UNL     1       8.091  39.362  18.910  1.00  0.00     0.155 C 
HETATM   13  C24 UNL     1       7.078  38.844  19.911  1.00  0.00     0.155 C 
HETATM   14  C25 UNL     1       7.715  38.440  21.228  1.00  0.00     0.042 C 
HETATM   15  O4  UNL     1       6.256  39.984  20.260  1.00  0.00    -0.297 OA
HETATM   16  C26 UNL     1       7.085  41.109  20.024  1.00  0.00     0.365 C 
HETATM   17  O5  UNL     1       7.209  42.149  20.720  1.00  0.00    -0.238 OA
HETATM   18  N6  UNL     1       7.740  40.758  18.801  1.00  0.00    -0.295 N 
ENDROOT
BRANCH  11  19
HETATM   19  C13 UNL     1       8.568  37.314  17.564  1.00  0.00    -0.041 A 
HETATM   20  C14 UNL     1       8.232  36.149  18.016  1.00  0.00     0.035 A 
HETATM   21  C15 UNL     1       9.216  35.112  17.717  1.00  0.00     0.040 A 
HETATM   22  N3  UNL     1       9.544  33.808  17.827  1.00  0.00    -0.353 N 
HETATM   23  C21 UNL     1      10.227  35.710  17.033  1.00  0.00    -0.013 A 
HETATM   24  C16 UNL     1      10.717  33.568  17.236  1.00  0.00     0.077 A 
ATOM     25  H3  UNL     1       8.974  33.104  18.296  1.00  0.00     0.166 HD
HETATM   26  C17 UNL     1      11.663  32.600  16.932  1.00  0.00     0.125 A 
HETATM   27  C20 UNL     1      11.162  34.760  16.730  1.00  0.00     0.017 A 
HETATM   28  N5  UNL     1      12.645  33.240  16.253  1.00  0.00    -0.359 N 
HETATM   29  C19 UNL     1      12.365  34.545  16.118  1.00  0.00     0.103 A 
ATOM     30  H5  UNL     1      13.485  32.789  15.891  1.00  0.00     0.165 HD
HETATM   31  C22 UNL     1       9.913  37.139  16.901  1.00  0.00     0.078 A 
BRANCH  26  32
HETATM   32  C18 UNL     1      11.625  31.192  17.263  1.00  0.00     0.283 C 
HETATM   33  N4  UNL     1      11.570  30.763  18.608  1.00  0.00    -0.056 NA
HETATM   34  O3  UNL     1      11.640  30.346  16.348  1.00  0.00    -0.269 OA
ENDBRANCH  26  32
ENDBRANCH  11  19
BRANCH   1  35
HETATM   35  C6  UNL     1       9.500  41.688  15.020  1.00  0.00    -0.015 C 
HETATM   36  C5  UNL     1      10.054  41.839  13.856  1.00  0.00    -0.030 C 
BRANCH  36  37
HETATM   37  C4  UNL     1       9.334  41.934  12.581  1.00  0.00     0.029 C 
BRANCH  37  38
HETATM   38  C3  UNL     1      10.227  41.796  11.363  1.00  0.00     0.030 C 
BRANCH  38  39
HETATM   39  C2  UNL     1       9.993  40.469  10.689  1.00  0.00     0.167 C 
BRANCH  39  40
HETATM   40  O1  UNL     1      10.587  40.339   9.462  1.00  0.00    -0.396 OA
HETATM   41  C1  UNL     1       9.946  40.947   8.415  1.00  0.00     0.201 C 
ENDBRANCH  39  40
ENDBRANCH  38  39
ENDBRANCH  37  38
ENDBRANCH  36  37
ENDBRANCH   1  35
TORSDOF 7
ENDMDL
MODEL 5
REMARK VINA RESULT: -7.900007843      1.360      1.776
REMARK  7 active torsions:
REMARK  status: ('A' for Active; 'I' for Inactive)
REMARK    1  A    between atoms: O1_2  and  C2_3 
REMARK    2  A    between atoms: C2_3  and  C3_4 
REMARK    3  A    between atoms: C3_4  and  C4_5 
REMARK    4  A    between atoms: C4_5  and  C5_6 
REMARK    5  A    between atoms: C6_7  and  C7_8 
REMARK    6  A    between atoms: C12_18  and  C13_19 
REMARK    7  A    between atoms: C17_25  and  C18_26 
ROOT
HETATM    1  C7  UNL     1       8.784  32.716  19.634  1.00  0.00     0.135 C 
HETATM    2  C8  UNL     1       9.650  31.515  19.390  1.00  0.00     0.231 C 
HETATM    3  O2  UNL     1       9.438  30.393  19.887  1.00  0.00    -0.273 OA
HETATM    4  N1  UNL     1      10.735  31.880  18.505  1.00  0.00    -0.332 N 
HETATM    5  C9  UNL     1      11.437  30.903  17.705  1.00  0.00     0.155 C 
HETATM    6  C10 UNL     1      10.836  33.289  18.673  1.00  0.00     0.226 C 
HETATM    7  C11 UNL     1       9.354  33.651  18.592  1.00  0.00     0.245 C 
HETATM    8  N2  UNL     1       9.259  35.025  18.912  1.00  0.00    -0.056 N 
ATOM      9  H21 UNL     1       9.734  35.276  19.779  1.00  0.00     0.278 HD
ATOM     10  H22 UNL     1       8.324  35.315  19.198  1.00  0.00     0.278 HD
HETATM   11  C12 UNL     1       9.770  35.748  17.724  1.00  0.00     0.241 C 
HETATM   12  C23 UNL     1      11.230  35.462  17.532  1.00  0.00     0.155 C 
HETATM   13  C24 UNL     1      11.647  35.721  16.098  1.00  0.00     0.155 C 
HETATM   14  C25 UNL     1      12.866  36.620  16.000  1.00  0.00     0.042 C 
HETATM   15  O4  UNL     1      12.114  34.448  15.591  1.00  0.00    -0.297 OA
HETATM   16  C26 UNL     1      12.536  33.737  16.743  1.00  0.00     0.365 C 
HETATM   17  O5  UNL     1      13.554  33.012  16.885  1.00  0.00    -0.238 OA
HETATM   18  N6  UNL     1      11.515  34.056  17.694  1.00  0.00    -0.295 N 
ENDROOT
BRANCH  11  19
HETATM   19  C13 UNL     1       9.459  37.190  17.866  1.00  0.00    -0.041 A 
HETATM   20  C14 UNL     1       9.710  38.089  18.762  1.00  0.00     0.035 A 
HETATM   21  C15 UNL     1       9.171  39.403  18.423  1.00  0.00     0.040 A 
HETATM   22  N3  UNL     1       9.039  40.693  18.793  1.00  0.00    -0.353 N 
HETATM   23  C21 UNL     1       8.542  39.277  17.224  1.00  0.00    -0.013 A 
HETATM   24  C16 UNL     1       8.356  41.378  17.872  1.00  0.00     0.077 A 
ATOM     25  H3  UNL     1       9.410  41.091  19.656  1.00  0.00     0.166 HD
HETATM   26  C17 UNL     1       7.842  42.618  17.522  1.00  0.00     0.125 A 
HETATM   27  C20 UNL     1       8.035  40.497  16.874  1.00  0.00     0.017 A 
HETATM   28  N5  UNL     1       7.230  42.443  16.326  1.00  0.00    -0.359 N 
HETATM   29  C19 UNL     1       7.332  41.170  15.915  1.00  0.00     0.103 A 
ATOM     30  H5  UNL     1       6.754  43.181  15.807  1.00  0.00     0.165 HD
HETATM   31  C22 UNL     1       8.654  37.877  16.790  1.00  0.00     0.078 A 
BRANCH  26  32
HETATM   32  C18 UNL     1       7.933  43.855  18.268  1.00  0.00     0.283 C 
HETATM   33  N4  UNL     1       8.282  43.854  19.636  1.00  0.00    -0.056 NA
HETATM   34  O3  UNL     1       7.699  44.936  17.692  1.00  0.00    -0.269 OA
ENDBRANCH  26  32
ENDBRANCH  11  19
BRANCH   1  35
HETATM   35  C6  UNL     1       8.982  33.147  21.013  1.00  0.00    -0.015 C 
HETATM   36  C5  UNL     1       8.063  33.486  21.865  1.00  0.00    -0.030 C 
BRANCH  36  37
HETATM   37  C4  UNL     1       6.621  33.501  21.593  1.00  0.00     0.029 C 
BRANCH  37  38
HETATM   38  C3  UNL     1       5.839  32.474  22.390  1.00  0.00     0.030 C 
BRANCH  38  39
HETATM   39  C2  UNL     1       5.531  33.003  23.766  1.00  0.00     0.167 C 
BRANCH  39  40
HETATM   40  O1  UNL     1       4.330  32.591  24.280  1.00  0.00    -0.396 OA
HETATM   41  C1  UNL     1       4.210  32.639  25.644  1.00  0.00     0.201 C 
ENDBRANCH  39  40
ENDBRANCH  38  39
ENDBRANCH  37  38
ENDBRANCH  36  37
ENDBRANCH   1  35
TORSDOF 7
ENDMDL
