MODEL 1
REMARK VINA RESULT: -8.238688301      0.000      0.000
REMARK  10 active torsions:
REMARK  status: ('A' for Active; 'I' for Inactive)
REMARK    1  A    between atoms: C1_2  and  C2_4 
REMARK    2  A    between atoms: C8_10  and  O2_11 
REMARK    3  A    between atoms: O2_11  and  C9_12 
REMARK       I    between atoms: C9_12  and  N2_14 
REMARK    4  A    between atoms: N2_14  and  C10_16 
REMARK    5  A    between atoms: C10_16  and  C11_17 
REMARK    6  A    between atoms: C11_17  and  C12_18 
REMARK    7  A    between atoms: C12_18  and  C13_19 
REMARK       I    between atoms: C13_19  and  N3_21 
REMARK    8  A    between atoms: C16_24  and  N4_25 
REMARK    9  A    between atoms: C19_28  and  O5_29 
REMARK   10  A    between atoms: C20_31  and  O6_32 
ROOT
HETATM    1  C11 UNL     1       6.987  39.159  17.810  1.00  0.00     0.029 C 
ENDROOT
BRANCH   1   2
HETATM    2  C10 UNL     1       7.394  38.163  16.752  1.00  0.00     0.125 C 
BRANCH   2   3
HETATM    3  N2  UNL     1       8.457  37.348  17.272  1.00  0.00    -0.337 N 
HETATM    4  C9  UNL     1       9.803  37.642  16.995  1.00  0.00     0.360 C 
HETATM    5  O3  UNL     1      10.196  38.610  16.302  1.00  0.00    -0.239 OA
ATOM      6  H2  UNL     1       8.230  36.541  17.853  1.00  0.00     0.164 HD
BRANCH   4   7
HETATM    7  O2  UNL     1      10.851  36.846  17.494  1.00  0.00    -0.298 OA
BRANCH   7   8
HETATM    8  C8  UNL     1      10.668  35.494  17.856  1.00  0.00     0.142 C 
HETATM    9  C6  UNL     1      11.711  35.014  18.829  1.00  0.00     0.017 C 
HETATM   10  C5  UNL     1      13.075  35.249  18.231  1.00  0.00     0.012 C 
HETATM   11  C7  UNL     1      11.502  33.540  19.059  1.00  0.00     0.026 C 
HETATM   12  C4  UNL     1      13.235  34.408  16.990  1.00  0.00    -0.013 C 
HETATM   13  C3  UNL     1      13.024  32.951  17.241  1.00  0.00     0.023 C 
HETATM   14  C25 UNL     1      12.210  34.867  15.983  1.00  0.00     0.012 C 
HETATM   15  C2  UNL     1      11.640  32.730  17.814  1.00  0.00     0.040 C 
HETATM   16  C26 UNL     1      10.608  33.215  16.818  1.00  0.00     0.026 C 
HETATM   17  C24 UNL     1      10.825  34.682  16.578  1.00  0.00     0.017 C 
BRANCH  15  18
HETATM   18  C1  UNL     1      11.372  31.317  18.089  1.00  0.00     0.239 C 
HETATM   19  N1  UNL     1      10.954  30.821  19.356  1.00  0.00    -0.061 NA
HETATM   20  O1  UNL     1      11.513  30.477  17.162  1.00  0.00    -0.276 OA
ENDBRANCH  15  18
ENDBRANCH   7   8
ENDBRANCH   4   7
ENDBRANCH   2   3
ENDBRANCH   1   2
BRANCH   1  21
HETATM   21  C12 UNL     1       6.778  40.494  17.160  1.00  0.00     0.104 C 
BRANCH  21  22
HETATM   22  C13 UNL     1       8.015  41.283  17.035  1.00  0.00     0.219 C 
HETATM   23  O4  UNL     1       8.950  41.235  17.869  1.00  0.00    -0.273 OA
HETATM   24  N3  UNL     1       8.180  42.154  15.909  1.00  0.00    -0.352 N 
HETATM   25  C14 UNL     1       9.392  42.929  15.779  1.00  0.00     0.127 C 
HETATM   26  C23 UNL     1       7.162  42.274  14.899  1.00  0.00     0.127 C 
HETATM   27  C15 UNL     1       9.683  43.118  14.289  1.00  0.00     0.045 C 
HETATM   28  C16 UNL     1       9.241  41.843  13.611  1.00  0.00     0.082 C 
HETATM   29  C22 UNL     1       7.729  41.847  13.540  1.00  0.00     0.045 C 
BRANCH  28  30
HETATM   30  N4  UNL     1       9.792  41.597  12.338  1.00  0.00    -0.405 N 
HETATM   31  C17 UNL     1      10.936  42.347  11.973  1.00  0.00     0.120 C 
HETATM   32  C18 UNL     1      10.721  43.258  10.788  1.00  0.00     0.053 C 
HETATM   33  C19 UNL     1      10.109  42.581   9.608  1.00  0.00     0.150 C 
HETATM   34  C20 UNL     1       9.546  41.233   9.932  1.00  0.00     0.164 C 
HETATM   35  C21 UNL     1       8.891  41.261  11.297  1.00  0.00     0.151 C 
BRANCH  33  36
HETATM   36  O5  UNL     1      11.046  42.430   8.562  1.00  0.00    -0.393 OA
ATOM     37  H5  UNL     1      10.890  43.058   7.866  1.00  0.00     0.210 HD
ENDBRANCH  33  36
BRANCH  34  38
HETATM   38  O6  UNL     1      10.518  40.234   9.895  1.00  0.00    -0.391 OA
ATOM     39  H6  UNL     1      11.382  40.583   9.706  1.00  0.00     0.210 HD
ENDBRANCH  34  38
ENDBRANCH  28  30
ENDBRANCH  21  22
ENDBRANCH   1  21
TORSDOF 10
ENDMDL
MODEL 2
REMARK VINA RESULT: -8.238275491      3.938      7.060
REMARK  10 active torsions:
REMARK  status: ('A' for Active; 'I' for Inactive)
REMARK    1  A    between atoms: C1_2  and  C2_4 
REMARK    2  A    between atoms: C8_10  and  O2_11 
REMARK    3  A    between atoms: O2_11  and  C9_12 
REMARK       I    between atoms: C9_12  and  N2_14 
REMARK    4  A    between atoms: N2_14  and  C10_16 
REMARK    5  A    between atoms: C10_16  and  C11_17 
REMARK    6  A    between atoms: C11_17  and  C12_18 
REMARK    7  A    between atoms: C12_18  and  C13_19 
REMARK       I    between atoms: C13_19  and  N3_21 
REMARK    8  A    between atoms: C16_24  and  N4_25 
REMARK    9  A    between atoms: C19_28  and  O5_29 
REMARK   10  A    between atoms: C20_31  and  O6_32 
ROOT
HETATM    1  C11 UNL     1       9.075  32.181  22.010  1.00  0.00     0.029 C 
ENDROOT
BRANCH   1   2
HETATM    2  C10 UNL     1       9.172  31.132  20.931  1.00  0.00     0.125 C 
BRANCH   2   3
HETATM    3  N2  UNL     1       9.513  31.774  19.692  1.00  0.00    -0.337 N 
HETATM    4  C9  UNL     1      10.697  31.453  19.006  1.00  0.00     0.360 C 
HETATM    5  O3  UNL     1      11.536  30.603  19.386  1.00  0.00    -0.239 OA
ATOM      6  H2  UNL     1       8.884  32.477  19.303  1.00  0.00     0.164 HD
BRANCH   4   7
HETATM    7  O2  UNL     1      11.043  32.082  17.795  1.00  0.00    -0.298 OA
BRANCH   7   8
HETATM    8  C8  UNL     1      12.018  33.100  17.723  1.00  0.00     0.142 C 
HETATM    9  C6  UNL     1      11.650  34.308  18.542  1.00  0.00     0.017 C 
HETATM   10  C5  UNL     1      10.297  34.801  18.095  1.00  0.00     0.012 C 
HETATM   11  C7  UNL     1      12.686  35.374  18.306  1.00  0.00     0.026 C 
HETATM   12  C4  UNL     1      10.377  35.269  16.663  1.00  0.00    -0.013 C 
HETATM   13  C3  UNL     1      11.410  36.327  16.452  1.00  0.00     0.023 C 
HETATM   14  C25 UNL     1      10.736  34.081  15.806  1.00  0.00     0.012 C 
HETATM   15  C2  UNL     1      12.767  35.804  16.879  1.00  0.00     0.040 C 
HETATM   16  C26 UNL     1      13.119  34.595  16.040  1.00  0.00     0.026 C 
HETATM   17  C24 UNL     1      12.077  33.535  16.266  1.00  0.00     0.017 C 
BRANCH  15  18
HETATM   18  C1  UNL     1      13.826  36.799  16.702  1.00  0.00     0.239 C 
HETATM   19  N1  UNL     1      13.912  37.675  15.583  1.00  0.00    -0.061 NA
HETATM   20  O1  UNL     1      14.721  36.902  17.582  1.00  0.00    -0.276 OA
ENDBRANCH  15  18
ENDBRANCH   7   8
ENDBRANCH   4   7
ENDBRANCH   2   3
ENDBRANCH   1   2
BRANCH   1  21
HETATM   21  C12 UNL     1       9.494  33.502  21.437  1.00  0.00     0.104 C 
BRANCH  21  22
HETATM   22  C13 UNL     1       8.862  34.654  22.103  1.00  0.00     0.219 C 
HETATM   23  O4  UNL     1       9.318  35.184  23.143  1.00  0.00    -0.273 OA
HETATM   24  N3  UNL     1       7.666  35.215  21.546  1.00  0.00    -0.352 N 
HETATM   25  C14 UNL     1       7.043  36.346  22.192  1.00  0.00     0.127 C 
HETATM   26  C23 UNL     1       7.070  34.675  20.353  1.00  0.00     0.127 C 
HETATM   27  C15 UNL     1       6.359  37.195  21.118  1.00  0.00     0.045 C 
HETATM   28  C16 UNL     1       7.239  37.109  19.894  1.00  0.00     0.082 C 
HETATM   29  C22 UNL     1       7.034  35.750  19.261  1.00  0.00     0.045 C 
BRANCH  28  30
HETATM   30  N4  UNL     1       7.067  38.129  18.937  1.00  0.00    -0.405 N 
HETATM   31  C17 UNL     1       7.171  37.760  17.574  1.00  0.00     0.120 C 
HETATM   32  C18 UNL     1       8.321  38.415  16.847  1.00  0.00     0.053 C 
HETATM   33  C19 UNL     1       8.383  39.895  17.022  1.00  0.00     0.150 C 
HETATM   34  C20 UNL     1       7.497  40.393  18.120  1.00  0.00     0.164 C 
HETATM   35  C21 UNL     1       7.523  39.425  19.284  1.00  0.00     0.151 C 
BRANCH  33  36
HETATM   36  O5  UNL     1       8.030  40.566  15.829  1.00  0.00    -0.393 OA
ATOM     37  H5  UNL     1       8.472  41.405  15.763  1.00  0.00     0.210 HD
ENDBRANCH  33  36
BRANCH  34  38
HETATM   38  O6  UNL     1       6.184  40.583  17.692  1.00  0.00    -0.391 OA
ATOM     39  H6  UNL     1       5.680  41.106  18.303  1.00  0.00     0.210 HD
ENDBRANCH  34  38
ENDBRANCH  28  30
ENDBRANCH  21  22
ENDBRANCH   1  21
TORSDOF 10
ENDMDL
MODEL 3
REMARK VINA RESULT: -8.169551647      2.315      5.460
REMARK  10 active torsions:
REMARK  status: ('A' for Active; 'I' for Inactive)
REMARK    1  A    between atoms: C1_2  and  C2_4 
REMARK    2  A    between atoms: C8_10  and  O2_11 
REMARK    3  A    between atoms: O2_11  and  C9_12 
REMARK       I    between atoms: C9_12  and  N2_14 
REMARK    4  A    between atoms: N2_14  and  C10_16 
REMARK    5  A    between atoms: C10_16  and  C11_17 
REMARK    6  A    between atoms: C11_17  and  C12_18 
REMARK    7  A    between atoms: C12_18  and  C13_19 
REMARK       I    between atoms: C13_19  and  N3_21 
REMARK    8  A    between atoms: C16_24  and  N4_25 
REMARK    9  A    between atoms: C19_28  and  O5_29 
REMARK   10  A    between atoms: C20_31  and  O6_32 
ROOT
HETATM    1  C11 UNL     1      11.012  40.593  13.102  1.00  0.00     0.029 C 
ENDROOT
BRANCH   1   2
HETATM    2  C10 UNL     1      11.778  40.167  14.330  1.00  0.00     0.125 C 
BRANCH   2   3
HETATM    3  N2  UNL     1      11.439  38.805  14.635  1.00  0.00    -0.337 N 
HETATM    4  C9  UNL     1      12.347  37.958  15.293  1.00  0.00     0.360 C 
HETATM    5  O3  UNL     1      13.493  38.294  15.672  1.00  0.00    -0.239 OA
ATOM      6  H2  UNL     1      10.522  38.446  14.369  1.00  0.00     0.164 HD
BRANCH   4   7
HETATM    7  O2  UNL     1      12.026  36.620  15.591  1.00  0.00    -0.298 OA
BRANCH   7   8
HETATM    8  C8  UNL     1      11.646  36.202  16.884  1.00  0.00     0.142 C 
HETATM    9  C6  UNL     1      12.793  35.604  17.654  1.00  0.00     0.017 C 
HETATM   10  C5  UNL     1      13.374  34.468  16.852  1.00  0.00     0.012 C 
HETATM   11  C7  UNL     1      12.263  35.084  18.965  1.00  0.00     0.026 C 
HETATM   12  C4  UNL     1      12.346  33.373  16.705  1.00  0.00    -0.013 C 
HETATM   13  C3  UNL     1      11.835  32.873  18.016  1.00  0.00     0.023 C 
HETATM   14  C25 UNL     1      11.182  33.933  15.927  1.00  0.00     0.012 C 
HETATM   15  C2  UNL     1      11.229  34.021  18.797  1.00  0.00     0.040 C 
HETATM   16  C26 UNL     1      10.077  34.604  18.007  1.00  0.00     0.026 C 
HETATM   17  C24 UNL     1      10.603  35.110  16.694  1.00  0.00     0.017 C 
BRANCH  15  18
HETATM   18  C1  UNL     1      10.714  33.596  20.099  1.00  0.00     0.239 C 
HETATM   19  N1  UNL     1      10.103  34.477  21.036  1.00  0.00    -0.061 NA
HETATM   20  O1  UNL     1      10.806  32.384  20.427  1.00  0.00    -0.276 OA
ENDBRANCH  15  18
ENDBRANCH   7   8
ENDBRANCH   4   7
ENDBRANCH   2   3
ENDBRANCH   1   2
BRANCH   1  21
HETATM   21  C12 UNL     1      10.398  41.936  13.359  1.00  0.00     0.104 C 
BRANCH  21  22
HETATM   22  C13 UNL     1       8.931  41.893  13.484  1.00  0.00     0.219 C 
HETATM   23  O4  UNL     1       8.160  41.749  12.507  1.00  0.00    -0.273 OA
HETATM   24  N3  UNL     1       8.335  42.016  14.782  1.00  0.00    -0.352 N 
HETATM   25  C14 UNL     1       6.898  41.972  14.913  1.00  0.00     0.127 C 
HETATM   26  C23 UNL     1       9.140  42.183  15.964  1.00  0.00     0.127 C 
HETATM   27  C15 UNL     1       6.558  41.358  16.273  1.00  0.00     0.045 C 
HETATM   28  C16 UNL     1       7.613  40.310  16.534  1.00  0.00     0.082 C 
HETATM   29  C22 UNL     1       8.893  41.016  16.927  1.00  0.00     0.045 C 
BRANCH  28  30
HETATM   30  N4  UNL     1       7.283  39.325  17.486  1.00  0.00    -0.405 N 
HETATM   31  C17 UNL     1       7.535  39.629  18.846  1.00  0.00     0.120 C 
HETATM   32  C18 UNL     1       8.560  38.732  19.496  1.00  0.00     0.053 C 
HETATM   33  C19 UNL     1       8.301  37.276  19.298  1.00  0.00     0.150 C 
HETATM   34  C20 UNL     1       7.273  37.001  18.246  1.00  0.00     0.164 C 
HETATM   35  C21 UNL     1       7.439  37.971  17.096  1.00  0.00     0.151 C 
BRANCH  33  36
HETATM   36  O5  UNL     1       7.880  36.663  20.500  1.00  0.00    -0.393 OA
ATOM     37  H5  UNL     1       6.934  36.683  20.583  1.00  0.00     0.210 HD
ENDBRANCH  33  36
BRANCH  34  38
HETATM   38  O6  UNL     1       5.975  37.077  18.747  1.00  0.00    -0.391 OA
ATOM     39  H6  UNL     1       5.321  36.995  18.062  1.00  0.00     0.210 HD
ENDBRANCH  34  38
ENDBRANCH  28  30
ENDBRANCH  21  22
ENDBRANCH   1  21
TORSDOF 10
ENDMDL
MODEL 4
REMARK VINA RESULT: -8.147388678      4.252      7.664
REMARK  10 active torsions:
REMARK  status: ('A' for Active; 'I' for Inactive)
REMARK    1  A    between atoms: C1_2  and  C2_4 
REMARK    2  A    between atoms: C8_10  and  O2_11 
REMARK    3  A    between atoms: O2_11  and  C9_12 
REMARK       I    between atoms: C9_12  and  N2_14 
REMARK    4  A    between atoms: N2_14  and  C10_16 
REMARK    5  A    between atoms: C10_16  and  C11_17 
REMARK    6  A    between atoms: C11_17  and  C12_18 
REMARK    7  A    between atoms: C12_18  and  C13_19 
REMARK       I    between atoms: C13_19  and  N3_21 
REMARK    8  A    between atoms: C16_24  and  N4_25 
REMARK    9  A    between atoms: C19_28  and  O5_29 
REMARK   10  A    between atoms: C20_31  and  O6_32 
ROOT
HETATM    1  C11 UNL     1      11.948  31.837  16.768  1.00  0.00     0.029 C 
ENDROOT
BRANCH   1   2
HETATM    2  C10 UNL     1      11.132  31.245  17.890  1.00  0.00     0.125 C 
BRANCH   2   3
HETATM    3  N2  UNL     1      10.814  32.287  18.828  1.00  0.00    -0.337 N 
HETATM    4  C9  UNL     1      10.092  32.014  20.002  1.00  0.00     0.360 C 
HETATM    5  O3  UNL     1       9.677  30.881  20.340  1.00  0.00    -0.239 OA
ATOM      6  H2  UNL     1      11.117  33.241  18.637  1.00  0.00     0.164 HD
BRANCH   4   7
HETATM    7  O2  UNL     1       9.769  33.028  20.923  1.00  0.00    -0.298 OA
BRANCH   7   8
HETATM    8  C8  UNL     1       8.905  34.097  20.600  1.00  0.00     0.142 C 
HETATM    9  C6  UNL     1       8.993  35.226  21.592  1.00  0.00     0.017 C 
HETATM   10  C5  UNL     1       8.712  34.682  22.969  1.00  0.00     0.012 C 
HETATM   11  C7  UNL     1       7.956  36.257  21.229  1.00  0.00     0.026 C 
HETATM   12  C4  UNL     1       7.294  34.171  23.033  1.00  0.00    -0.013 C 
HETATM   13  C3  UNL     1       6.284  35.209  22.670  1.00  0.00     0.023 C 
HETATM   14  C25 UNL     1       7.169  33.028  22.057  1.00  0.00     0.012 C 
HETATM   15  C2  UNL     1       6.563  35.723  21.273  1.00  0.00     0.040 C 
HETATM   16  C26 UNL     1       6.465  34.574  20.293  1.00  0.00     0.026 C 
HETATM   17  C24 UNL     1       7.490  33.540  20.663  1.00  0.00     0.017 C 
BRANCH  15  18
HETATM   18  C1  UNL     1       5.607  36.752  20.859  1.00  0.00     0.239 C 
HETATM   19  N1  UNL     1       5.721  38.127  21.207  1.00  0.00    -0.061 NA
HETATM   20  O1  UNL     1       4.619  36.419  20.152  1.00  0.00    -0.276 OA
ENDBRANCH  15  18
ENDBRANCH   7   8
ENDBRANCH   4   7
ENDBRANCH   2   3
ENDBRANCH   1   2
BRANCH   1  21
HETATM   21  C12 UNL     1      12.755  32.979  17.308  1.00  0.00     0.104 C 
BRANCH  21  22
HETATM   22  C13 UNL     1      12.867  34.110  16.371  1.00  0.00     0.219 C 
HETATM   23  O4  UNL     1      13.237  33.984  15.180  1.00  0.00    -0.273 OA
HETATM   24  N3  UNL     1      12.538  35.429  16.824  1.00  0.00    -0.352 N 
HETATM   25  C14 UNL     1      12.644  36.543  15.909  1.00  0.00     0.127 C 
HETATM   26  C23 UNL     1      12.102  35.672  18.173  1.00  0.00     0.127 C 
HETATM   27  C15 UNL     1      11.587  37.581  16.293  1.00  0.00     0.045 C 
HETATM   28  C16 UNL     1      10.388  36.799  16.774  1.00  0.00     0.082 C 
HETATM   29  C22 UNL     1      10.692  36.275  18.161  1.00  0.00     0.045 C 
BRANCH  28  30
HETATM   30  N4  UNL     1       9.159  37.488  16.768  1.00  0.00    -0.405 N 
HETATM   31  C17 UNL     1       9.207  38.895  16.618  1.00  0.00     0.120 C 
HETATM   32  C18 UNL     1       8.680  39.658  17.810  1.00  0.00     0.053 C 
HETATM   33  C19 UNL     1       7.339  39.200  18.275  1.00  0.00     0.150 C 
HETATM   34  C20 UNL     1       6.926  37.891  17.680  1.00  0.00     0.164 C 
HETATM   35  C21 UNL     1       8.122  36.968  17.583  1.00  0.00     0.151 C 
BRANCH  33  36
HETATM   36  O5  UNL     1       6.341  40.156  17.978  1.00  0.00    -0.393 OA
ATOM     37  H5  UNL     1       6.326  40.851  18.626  1.00  0.00     0.210 HD
ENDBRANCH  33  36
BRANCH  34  38
HETATM   38  O6  UNL     1       6.344  38.045  16.423  1.00  0.00    -0.391 OA
ATOM     39  H6  UNL     1       6.571  37.335  15.833  1.00  0.00     0.210 HD
ENDBRANCH  34  38
ENDBRANCH  28  30
ENDBRANCH  21  22
ENDBRANCH   1  21
TORSDOF 10
ENDMDL
MODEL 5
REMARK VINA RESULT: -7.909995254      1.054      1.095
REMARK  10 active torsions:
REMARK  status: ('A' for Active; 'I' for Inactive)
REMARK    1  A    between atoms: C1_2  and  C2_4 
REMARK    2  A    between atoms: C8_10  and  O2_11 
REMARK    3  A    between atoms: O2_11  and  C9_12 
REMARK       I    between atoms: C9_12  and  N2_14 
REMARK    4  A    between atoms: N2_14  and  C10_16 
REMARK    5  A    between atoms: C10_16  and  C11_17 
REMARK    6  A    between atoms: C11_17  and  C12_18 
REMARK    7  A    between atoms: C12_18  and  C13_19 
REMARK       I    between atoms: C13_19  and  N3_21 
REMARK    8  A    between atoms: C16_24  and  N4_25 
REMARK    9  A    between atoms: C19_28  and  O5_29 
REMARK   10  A    between atoms: C20_31  and  O6_32 
ROOT
HETATM    1  C11 UNL     1       7.210  39.505  18.097  1.00  0.00     0.029 C 
ENDROOT
BRANCH   1   2
HETATM    2  C10 UNL     1       7.351  38.923  16.712  1.00  0.00     0.125 C 
BRANCH   2   3
HETATM    3  N2  UNL     1       8.225  37.785  16.778  1.00  0.00    -0.337 N 
HETATM    4  C9  UNL     1       9.613  37.921  16.605  1.00  0.00     0.360 C 
HETATM    5  O3  UNL     1      10.205  39.006  16.392  1.00  0.00    -0.239 OA
ATOM      6  H2  UNL     1       7.831  36.861  16.953  1.00  0.00     0.164 HD
BRANCH   4   7
HETATM    7  O2  UNL     1      10.477  36.812  16.660  1.00  0.00    -0.298 OA
BRANCH   7   8
HETATM    8  C8  UNL     1      10.394  35.838  17.679  1.00  0.00     0.142 C 
HETATM    9  C6  UNL     1      11.719  35.597  18.352  1.00  0.00     0.017 C 
HETATM   10  C5  UNL     1      12.732  35.217  17.302  1.00  0.00     0.012 C 
HETATM   11  C7  UNL     1      11.553  34.466  19.333  1.00  0.00     0.026 C 
HETATM   12  C4  UNL     1      12.335  33.908  16.665  1.00  0.00    -0.013 C 
HETATM   13  C3  UNL     1      12.177  32.802  17.656  1.00  0.00     0.023 C 
HETATM   14  C25 UNL     1      11.013  34.113  15.970  1.00  0.00     0.012 C 
HETATM   15  C2  UNL     1      11.135  33.188  18.686  1.00  0.00     0.040 C 
HETATM   16  C26 UNL     1       9.812  33.422  17.989  1.00  0.00     0.026 C 
HETATM   17  C24 UNL     1       9.981  34.540  17.000  1.00  0.00     0.017 C 
BRANCH  15  18
HETATM   18  C1  UNL     1      10.937  32.144  19.693  1.00  0.00     0.239 C 
HETATM   19  N1  UNL     1      11.091  30.753  19.434  1.00  0.00    -0.061 NA
HETATM   20  O1  UNL     1      10.610  32.478  20.862  1.00  0.00    -0.276 OA
ENDBRANCH  15  18
ENDBRANCH   7   8
ENDBRANCH   4   7
ENDBRANCH   2   3
ENDBRANCH   1   2
BRANCH   1  21
HETATM   21  C12 UNL     1       6.894  40.965  17.976  1.00  0.00     0.104 C 
BRANCH  21  22
HETATM   22  C13 UNL     1       8.074  41.798  17.691  1.00  0.00     0.219 C 
HETATM   23  O4  UNL     1       9.048  41.904  18.473  1.00  0.00    -0.273 OA
HETATM   24  N3  UNL     1       8.135  42.528  16.459  1.00  0.00    -0.352 N 
HETATM   25  C14 UNL     1       9.292  43.344  16.171  1.00  0.00     0.127 C 
HETATM   26  C23 UNL     1       7.066  42.466  15.497  1.00  0.00     0.127 C 
HETATM   27  C15 UNL     1       9.502  43.360  14.655  1.00  0.00     0.045 C 
HETATM   28  C16 UNL     1       9.106  41.989  14.163  1.00  0.00     0.082 C 
HETATM   29  C22 UNL     1       7.594  41.904  14.172  1.00  0.00     0.045 C 
BRANCH  28  30
HETATM   30  N4  UNL     1       9.612  41.615  12.902  1.00  0.00    -0.405 N 
HETATM   31  C17 UNL     1      10.794  42.258  12.463  1.00  0.00     0.120 C 
HETATM   32  C18 UNL     1      10.613  43.094  11.219  1.00  0.00     0.053 C 
HETATM   33  C19 UNL     1       9.932  42.375  10.103  1.00  0.00     0.150 C 
HETATM   34  C20 UNL     1       9.289  41.095  10.535  1.00  0.00     0.164 C 
HETATM   35  C21 UNL     1       8.667  41.265  11.904  1.00  0.00     0.151 C 
BRANCH  33  36
HETATM   36  O5  UNL     1      10.834  42.086   9.054  1.00  0.00    -0.393 OA
ATOM     37  H5  UNL     1      10.839  41.158   8.850  1.00  0.00     0.210 HD
ENDBRANCH  33  36
BRANCH  34  38
HETATM   38  O6  UNL     1      10.193  40.034  10.554  1.00  0.00    -0.391 OA
ATOM     39  H6  UNL     1      10.532  39.837   9.689  1.00  0.00     0.210 HD
ENDBRANCH  34  38
ENDBRANCH  28  30
ENDBRANCH  21  22
ENDBRANCH   1  21
TORSDOF 10
ENDMDL
