MODEL 1
REMARK VINA RESULT: -7.880081119      0.000      0.000
REMARK  4 active torsions:
REMARK  status: ('A' for Active; 'I' for Inactive)
REMARK    1  A    between atoms: N1_1  and  C1_4 
REMARK    2  A    between atoms: N3_10  and  C4_11 
REMARK    3  A    between atoms: C4_11  and  C5_12 
REMARK    4  A    between atoms: C5_12  and  C6_13 
ROOT
HETATM    1  C1  UNL     1      13.615   7.023  24.773  1.00  0.00     0.693 A 
HETATM    2  N2  UNL     1      14.273   5.883  24.493  1.00  0.00    -0.154 N 
ATOM      3  H2  UNL     1      14.139   5.046  25.059  1.00  0.00     0.187 HD
HETATM    4  C2  UNL     1      15.109   5.883  23.451  1.00  0.00     0.276 A 
HETATM    5  O1  UNL     1      15.724   4.825  23.186  1.00  0.00    -0.266 OA
HETATM    6  C3  UNL     1      15.257   7.042  22.719  1.00  0.00     0.185 A 
HETATM    7  N3  UNL     1      14.601   8.181  22.996  1.00  0.00    -0.283 N 
HETATM    8  N4  UNL     1      13.778   8.151  24.036  1.00  0.00    -0.130 N 
ATOM      9  H4  UNL     1      13.258   8.992  24.287  1.00  0.00     0.206 HD
ENDROOT
BRANCH   7  10
HETATM   10  C4  UNL     1      14.700   9.406  22.292  1.00  0.00     0.153 C 
BRANCH  10  11
HETATM   11  C5  UNL     1      15.101  10.604  23.082  1.00  0.00     0.060 C 
BRANCH  11  12
HETATM   12  C6  UNL     1      16.569  10.700  23.295  1.00  0.00    -0.057 A 
HETATM   13  C7  UNL     1      17.304  11.657  22.624  1.00  0.00     0.007 A 
HETATM   14  C8  UNL     1      18.669  11.767  22.804  1.00  0.00     0.001 A 
HETATM   15  C9  UNL     1      19.342  10.919  23.666  1.00  0.00     0.000 A 
HETATM   16  C10 UNL     1      18.627   9.966  24.337  1.00  0.00     0.001 A 
HETATM   17  C11 UNL     1      17.266   9.868  24.147  1.00  0.00     0.007 A 
ENDBRANCH  11  12
ENDBRANCH  10  11
ENDBRANCH   7  10
BRANCH   1  18
HETATM   18  N1  UNL     1      12.799   7.036  25.784  1.00  0.00    -0.233 N 
ATOM     19  H12 UNL     1      13.057   6.547  26.641  1.00  0.00     0.174 HD
ATOM     20  H11 UNL     1      11.915   7.538  25.692  1.00  0.00     0.174 HD
ENDBRANCH   1  18
TORSDOF 4
ENDMDL
MODEL 2
REMARK VINA RESULT: -7.864843010      0.038      1.179
REMARK  4 active torsions:
REMARK  status: ('A' for Active; 'I' for Inactive)
REMARK    1  A    between atoms: N1_1  and  C1_4 
REMARK    2  A    between atoms: N3_10  and  C4_11 
REMARK    3  A    between atoms: C4_11  and  C5_12 
REMARK    4  A    between atoms: C5_12  and  C6_13 
ROOT
HETATM    1  C1  UNL     1      13.581   7.038  24.742  1.00  0.00     0.693 A 
HETATM    2  N2  UNL     1      14.241   5.896  24.478  1.00  0.00    -0.154 N 
ATOM      3  H2  UNL     1      14.094   5.061  25.044  1.00  0.00     0.187 HD
HETATM    4  C2  UNL     1      15.095   5.889  23.450  1.00  0.00     0.276 A 
HETATM    5  O1  UNL     1      15.711   4.828  23.200  1.00  0.00    -0.266 OA
HETATM    6  C3  UNL     1      15.259   7.045  22.717  1.00  0.00     0.185 A 
HETATM    7  N3  UNL     1      14.601   8.187  22.978  1.00  0.00    -0.283 N 
HETATM    8  N4  UNL     1      13.761   8.163  24.004  1.00  0.00    -0.130 N 
ATOM      9  H4  UNL     1      13.239   9.006  24.242  1.00  0.00     0.206 HD
ENDROOT
BRANCH   7  10
HETATM   10  C4  UNL     1      14.717   9.409  22.272  1.00  0.00     0.153 C 
BRANCH  10  11
HETATM   11  C5  UNL     1      15.107  10.609  23.064  1.00  0.00     0.060 C 
BRANCH  11  12
HETATM   12  C6  UNL     1      16.574  10.725  23.268  1.00  0.00    -0.057 A 
HETATM   13  C7  UNL     1      17.223   9.867  24.133  1.00  0.00     0.007 A 
HETATM   14  C8  UNL     1      18.585   9.954  24.340  1.00  0.00     0.001 A 
HETATM   15  C9  UNL     1      19.344  10.907  23.684  1.00  0.00     0.000 A 
HETATM   16  C10 UNL     1      18.714  11.765  22.825  1.00  0.00     0.001 A 
HETATM   17  C11 UNL     1      17.355  11.666  22.628  1.00  0.00     0.007 A 
ENDBRANCH  11  12
ENDBRANCH  10  11
ENDBRANCH   7  10
BRANCH   1  18
HETATM   18  N1  UNL     1      12.748   7.057  25.739  1.00  0.00    -0.233 N 
ATOM     19  H12 UNL     1      12.085   6.290  25.850  1.00  0.00     0.174 HD
ATOM     20  H11 UNL     1      12.780   7.845  26.386  1.00  0.00     0.174 HD
ENDBRANCH   1  18
TORSDOF 4
ENDMDL
MODEL 3
REMARK VINA RESULT: -7.690254205      2.103      2.875
REMARK  4 active torsions:
REMARK  status: ('A' for Active; 'I' for Inactive)
REMARK    1  A    between atoms: N1_1  and  C1_4 
REMARK    2  A    between atoms: N3_10  and  C4_11 
REMARK    3  A    between atoms: C4_11  and  C5_12 
REMARK    4  A    between atoms: C5_12  and  C6_13 
ROOT
HETATM    1  C1  UNL     1      13.361   8.162  24.623  1.00  0.00     0.693 A 
HETATM    2  N2  UNL     1      12.903   7.163  25.399  1.00  0.00    -0.154 N 
ATOM      3  H2  UNL     1      11.908   6.944  25.441  1.00  0.00     0.187 HD
HETATM    4  C2  UNL     1      13.791   6.467  26.114  1.00  0.00     0.276 A 
HETATM    5  O1  UNL     1      13.369   5.536  26.838  1.00  0.00    -0.266 OA
HETATM    6  C3  UNL     1      15.125   6.804  26.024  1.00  0.00     0.185 A 
HETATM    7  N3  UNL     1      15.586   7.800  25.250  1.00  0.00    -0.283 N 
HETATM    8  N4  UNL     1      14.681   8.473  24.552  1.00  0.00    -0.130 N 
ATOM      9  H4  UNL     1      14.982   9.239  23.950  1.00  0.00     0.206 HD
ENDROOT
BRANCH   7  10
HETATM   10  C4  UNL     1      16.937   8.203  25.106  1.00  0.00     0.153 C 
BRANCH  10  11
HETATM   11  C5  UNL     1      17.206   9.327  24.166  1.00  0.00     0.060 C 
BRANCH  11  12
HETATM   12  C6  UNL     1      18.286  10.234  24.632  1.00  0.00    -0.057 A 
HETATM   13  C7  UNL     1      19.058   9.888  25.723  1.00  0.00     0.007 A 
HETATM   14  C8  UNL     1      20.068  10.713  26.177  1.00  0.00     0.001 A 
HETATM   15  C9  UNL     1      20.338  11.916  25.548  1.00  0.00     0.000 A 
HETATM   16  C10 UNL     1      19.581  12.272  24.466  1.00  0.00     0.001 A 
HETATM   17  C11 UNL     1      18.577  11.438  24.025  1.00  0.00     0.007 A 
ENDBRANCH  11  12
ENDBRANCH  10  11
ENDBRANCH   7  10
BRANCH   1  18
HETATM   18  N1  UNL     1      12.508   8.846  23.923  1.00  0.00    -0.233 N 
ATOM     19  H12 UNL     1      11.778   8.355  23.405  1.00  0.00     0.174 HD
ATOM     20  H11 UNL     1      12.592   9.862  23.908  1.00  0.00     0.174 HD
ENDBRANCH   1  18
TORSDOF 4
ENDMDL
MODEL 4
REMARK VINA RESULT: -7.368989120      1.128      1.681
REMARK  4 active torsions:
REMARK  status: ('A' for Active; 'I' for Inactive)
REMARK    1  A    between atoms: N1_1  and  C1_4 
REMARK    2  A    between atoms: N3_10  and  C4_11 
REMARK    3  A    between atoms: C4_11  and  C5_12 
REMARK    4  A    between atoms: C5_12  and  C6_13 
ROOT
HETATM    1  C1  UNL     1      13.748   7.026  24.965  1.00  0.00     0.693 A 
HETATM    2  N2  UNL     1      14.144   5.875  24.392  1.00  0.00    -0.154 N 
ATOM      3  H2  UNL     1      13.619   5.012  24.531  1.00  0.00     0.187 HD
HETATM    4  C2  UNL     1      15.245   5.897  23.636  1.00  0.00     0.276 A 
HETATM    5  O1  UNL     1      15.617   4.828  23.100  1.00  0.00    -0.266 OA
HETATM    6  C3  UNL     1      15.919   7.090  23.482  1.00  0.00     0.185 A 
HETATM    7  N3  UNL     1      15.527   8.241  24.052  1.00  0.00    -0.283 N 
HETATM    8  N4  UNL     1      14.431   8.188  24.797  1.00  0.00    -0.130 N 
ATOM      9  H4  UNL     1      14.094   9.036  25.251  1.00  0.00     0.206 HD
ENDROOT
BRANCH   7  10
HETATM   10  C4  UNL     1      16.166   9.500  23.939  1.00  0.00     0.153 C 
BRANCH  10  11
HETATM   11  C5  UNL     1      17.605   9.559  24.318  1.00  0.00     0.060 C 
BRANCH  11  12
HETATM   12  C6  UNL     1      18.205  10.906  24.132  1.00  0.00    -0.057 A 
HETATM   13  C7  UNL     1      18.032  11.582  22.941  1.00  0.00     0.007 A 
HETATM   14  C8  UNL     1      18.579  12.834  22.742  1.00  0.00     0.001 A 
HETATM   15  C9  UNL     1      19.321  13.451  23.735  1.00  0.00     0.000 A 
HETATM   16  C10 UNL     1      19.501  12.792  24.920  1.00  0.00     0.001 A 
HETATM   17  C11 UNL     1      18.949  11.544  25.103  1.00  0.00     0.007 A 
ENDBRANCH  11  12
ENDBRANCH  10  11
ENDBRANCH   7  10
BRANCH   1  18
HETATM   18  N1  UNL     1      12.679   7.018  25.702  1.00  0.00    -0.233 N 
ATOM     19  H12 UNL     1      12.517   6.238  26.339  1.00  0.00     0.174 HD
ATOM     20  H11 UNL     1      12.025   7.797  25.622  1.00  0.00     0.174 HD
ENDBRANCH   1  18
TORSDOF 4
ENDMDL
MODEL 5
REMARK VINA RESULT: -7.250767139      1.386      2.227
REMARK  4 active torsions:
REMARK  status: ('A' for Active; 'I' for Inactive)
REMARK    1  A    between atoms: N1_1  and  C1_4 
REMARK    2  A    between atoms: N3_10  and  C4_11 
REMARK    3  A    between atoms: C4_11  and  C5_12 
REMARK    4  A    between atoms: C5_12  and  C6_13 
ROOT
HETATM    1  C1  UNL     1      14.799   7.182  20.845  1.00  0.00     0.693 A 
HETATM    2  N2  UNL     1      15.131   5.990  21.372  1.00  0.00    -0.154 N 
ATOM      3  H2  UNL     1      15.268   5.172  20.779  1.00  0.00     0.187 HD
HETATM    4  C2  UNL     1      15.276   5.910  22.698  1.00  0.00     0.276 A 
HETATM    5  O1  UNL     1      15.585   4.802  23.194  1.00  0.00    -0.266 OA
HETATM    6  C3  UNL     1      15.078   7.045  23.456  1.00  0.00     0.185 A 
HETATM    7  N3  UNL     1      14.746   8.237  22.932  1.00  0.00    -0.283 N 
HETATM    8  N4  UNL     1      14.610   8.285  21.614  1.00  0.00    -0.130 N 
ATOM      9  H4  UNL     1      14.359   9.168  21.170  1.00  0.00     0.206 HD
ENDROOT
BRANCH   7  10
HETATM   10  C4  UNL     1      14.528   9.441  23.645  1.00  0.00     0.153 C 
BRANCH  10  11
HETATM   11  C5  UNL     1      15.145  10.675  23.083  1.00  0.00     0.060 C 
BRANCH  11  12
HETATM   12  C6  UNL     1      16.611  10.753  23.311  1.00  0.00    -0.057 A 
HETATM   13  C7  UNL     1      17.369  11.683  22.628  1.00  0.00     0.007 A 
HETATM   14  C8  UNL     1      18.733  11.777  22.821  1.00  0.00     0.001 A 
HETATM   15  C9  UNL     1      19.384  10.937  23.708  1.00  0.00     0.000 A 
HETATM   16  C10 UNL     1      18.646  10.009  24.391  1.00  0.00     0.001 A 
HETATM   17  C11 UNL     1      17.286   9.928  24.188  1.00  0.00     0.007 A 
ENDBRANCH  11  12
ENDBRANCH  10  11
ENDBRANCH   7  10
BRANCH   1  18
HETATM   18  N1  UNL     1      14.656   7.273  19.557  1.00  0.00    -0.233 N 
ATOM     19  H12 UNL     1      14.644   8.195  19.119  1.00  0.00     0.174 HD
ATOM     20  H11 UNL     1      14.557   6.415  19.015  1.00  0.00     0.174 HD
ENDBRANCH   1  18
TORSDOF 4
ENDMDL
