MODEL 1
REMARK VINA RESULT: -9.387413992      0.000      0.000
REMARK  10 active torsions:
REMARK  status: ('A' for Active; 'I' for Inactive)
REMARK    1  A    between atoms: C2_2  and  C4_4 
REMARK    2  A    between atoms: C4_4  and  C5_5 
REMARK    3  A    between atoms: C12_14  and  C13_15 
REMARK       I    between atoms: C13_15  and  N1_17 
REMARK    4  A    between atoms: C18_23  and  C19_24 
REMARK    5  A    between atoms: C19_24  and  C20_25 
REMARK    6  A    between atoms: C20_25  and  C21_26 
REMARK    7  A    between atoms: C21_26  and  C22_27 
REMARK    8  A    between atoms: C22_27  and  C23_28 
REMARK    9  A    between atoms: C23_28  and  C24_29 
REMARK   10  A    between atoms: C24_29  and  N3_30 
ROOT
HETATM    1  C4  UNL     1      17.333  29.018  31.255  1.00  0.00     0.008 C 
HETATM    2  C11 UNL     1      18.435  29.036  32.255  1.00  0.00     0.051 C 
HETATM    3  C12 UNL     1      18.032  30.045  33.353  1.00  0.00     0.176 C 
HETATM    4  N2  UNL     1      16.884  30.654  32.932  1.00  0.00    -0.379 N 
HETATM    5  C18 UNL     1      16.132  31.685  33.395  1.00  0.00     0.059 C 
HETATM    6  C30 UNL     1      16.259  29.865  31.881  1.00  0.00     0.137 C 
ENDROOT
BRANCH   3   7
HETATM    7  C13 UNL     1      19.178  30.938  33.660  1.00  0.00     0.242 C 
HETATM    8  O1  UNL     1      19.924  31.302  32.709  1.00  0.00    -0.271 OA
HETATM    9  N1  UNL     1      19.471  31.396  34.957  1.00  0.00    -0.350 N 
HETATM   10  C14 UNL     1      20.608  32.298  35.296  1.00  0.00     0.126 C 
HETATM   11  C17 UNL     1      18.867  31.177  36.253  1.00  0.00     0.126 C 
HETATM   12  C15 UNL     1      21.237  31.517  36.445  1.00  0.00     0.021 C 
HETATM   13  C16 UNL     1      20.092  30.706  37.072  1.00  0.00     0.021 C 
ENDBRANCH   3   7
BRANCH   5  14
HETATM   14  C19 UNL     1      15.348  31.596  34.664  1.00  0.00     0.044 C 
BRANCH  14  15
HETATM   15  C20 UNL     1      14.380  32.709  34.918  1.00  0.00     0.005 C 
BRANCH  15  16
HETATM   16  C21 UNL     1      14.106  32.842  36.425  1.00  0.00     0.000 C 
BRANCH  16  17
HETATM   17  C22 UNL     1      15.255  32.287  37.222  1.00  0.00     0.002 C 
BRANCH  17  18
HETATM   18  C23 UNL     1      16.142  33.486  37.664  1.00  0.00     0.020 C 
BRANCH  18  19
HETATM   19  C24 UNL     1      16.865  33.137  38.908  1.00  0.00     0.128 C 
BRANCH  19  20
HETATM   20  N3  UNL     1      16.729  33.996  40.043  1.00  0.00    -0.329 N 
HETATM   21  C25 UNL     1      17.825  34.926  40.276  1.00  0.00     0.194 A 
HETATM   22  N4  UNL     1      18.880  34.994  39.314  1.00  0.00    -0.063 NA
HETATM   23  N5  UNL     1      17.861  35.680  41.294  1.00  0.00    -0.305 N 
HETATM   24  C26 UNL     1      16.844  35.700  42.290  1.00  0.00     0.192 A 
ATOM     25  H5  UNL     1      18.660  36.304  41.406  1.00  0.00     0.171 HD
HETATM   26  N6  UNL     1      16.916  36.547  43.432  1.00  0.00    -0.063 NA
HETATM   27  N7  UNL     1      15.857  34.906  42.090  1.00  0.00    -0.338 N 
HETATM   28  C27 UNL     1      15.655  34.013  40.984  1.00  0.00     0.102 A 
ATOM     29  H7  UNL     1      15.127  34.909  42.803  1.00  0.00     0.164 HD
HETATM   30  C28 UNL     1      14.367  34.384  40.243  1.00  0.00     0.063 C 
HETATM   31  C29 UNL     1      15.398  32.635  41.586  1.00  0.00     0.063 C 
ENDBRANCH  19  20
ENDBRANCH  18  19
ENDBRANCH  17  18
ENDBRANCH  16  17
ENDBRANCH  15  16
ENDBRANCH  14  15
ENDBRANCH   5  14
BRANCH   1  32
HETATM   32  C2  UNL     1      16.844  27.572  31.176  1.00  0.00    -0.008 C 
HETATM   33  C1  UNL     1      17.974  26.604  31.418  1.00  0.00     0.011 C 
HETATM   34  C3  UNL     1      16.132  27.234  29.919  1.00  0.00     0.011 C 
ENDBRANCH   1  32
BRANCH   1  35
HETATM   35  C5  UNL     1      17.685  29.509  29.899  1.00  0.00    -0.046 A 
HETATM   36  C6  UNL     1      18.784  29.125  29.184  1.00  0.00     0.010 A 
HETATM   37  C7  UNL     1      19.027  29.638  27.928  1.00  0.00     0.026 A 
HETATM   38  C8  UNL     1      18.151  30.548  27.387  1.00  0.00     0.055 A 
HETATM   39 CL1  UNL     1      18.456  31.195  25.798  1.00  0.00    -0.083 Cl
HETATM   40  C9  UNL     1      17.032  30.962  28.072  1.00  0.00     0.056 A 
HETATM   41 CL2  UNL     1      15.944  32.128  27.337  1.00  0.00    -0.083 Cl
HETATM   42  C10 UNL     1      16.812  30.437  29.322  1.00  0.00     0.033 A 
ENDBRANCH   1  35
TORSDOF 10
ENDMDL
MODEL 2
REMARK VINA RESULT: -9.344163264      2.496      4.677
REMARK  10 active torsions:
REMARK  status: ('A' for Active; 'I' for Inactive)
REMARK    1  A    between atoms: C2_2  and  C4_4 
REMARK    2  A    between atoms: C4_4  and  C5_5 
REMARK    3  A    between atoms: C12_14  and  C13_15 
REMARK       I    between atoms: C13_15  and  N1_17 
REMARK    4  A    between atoms: C18_23  and  C19_24 
REMARK    5  A    between atoms: C19_24  and  C20_25 
REMARK    6  A    between atoms: C20_25  and  C21_26 
REMARK    7  A    between atoms: C21_26  and  C22_27 
REMARK    8  A    between atoms: C22_27  and  C23_28 
REMARK    9  A    between atoms: C23_28  and  C24_29 
REMARK   10  A    between atoms: C24_29  and  N3_30 
ROOT
HETATM    1  C4  UNL     1      17.651  31.646  35.426  1.00  0.00     0.008 C 
HETATM    2  C11 UNL     1      18.557  30.874  36.319  1.00  0.00     0.051 C 
HETATM    3  C12 UNL     1      19.504  31.891  36.990  1.00  0.00     0.176 C 
HETATM    4  N2  UNL     1      19.260  33.105  36.414  1.00  0.00    -0.379 N 
HETATM    5  C18 UNL     1      19.841  34.329  36.496  1.00  0.00     0.059 C 
HETATM    6  C30 UNL     1      17.972  33.083  35.736  1.00  0.00     0.137 C 
ENDROOT
BRANCH   3   7
HETATM    7  C13 UNL     1      20.904  31.397  36.920  1.00  0.00     0.242 C 
HETATM    8  O1  UNL     1      21.460  31.023  37.989  1.00  0.00    -0.271 OA
HETATM    9  N1  UNL     1      21.636  31.328  35.721  1.00  0.00    -0.350 N 
HETATM   10  C14 UNL     1      23.037  30.831  35.617  1.00  0.00     0.126 C 
HETATM   11  C17 UNL     1      21.340  31.678  34.349  1.00  0.00     0.126 C 
HETATM   12  C15 UNL     1      23.672  31.980  34.840  1.00  0.00     0.021 C 
HETATM   13  C16 UNL     1      22.534  32.605  34.020  1.00  0.00     0.021 C 
ENDBRANCH   3   7
BRANCH   5  14
HETATM   14  C19 UNL     1      19.776  35.163  37.734  1.00  0.00     0.044 C 
BRANCH  14  15
HETATM   15  C20 UNL     1      18.464  35.826  38.011  1.00  0.00     0.005 C 
BRANCH  15  16
HETATM   16  C21 UNL     1      17.493  34.832  38.671  1.00  0.00     0.000 C 
BRANCH  16  17
HETATM   17  C22 UNL     1      18.144  34.163  39.850  1.00  0.00     0.002 C 
BRANCH  17  18
HETATM   18  C23 UNL     1      17.759  34.972  41.122  1.00  0.00     0.020 C 
BRANCH  18  19
HETATM   19  C24 UNL     1      16.673  34.274  41.846  1.00  0.00     0.128 C 
BRANCH  19  20
HETATM   20  N3  UNL     1      15.815  35.040  42.696  1.00  0.00    -0.329 N 
HETATM   21  C25 UNL     1      14.722  35.740  42.037  1.00  0.00     0.194 A 
HETATM   22  N4  UNL     1      14.518  35.527  40.639  1.00  0.00    -0.063 NA
HETATM   23  N5  UNL     1      13.944  36.517  42.669  1.00  0.00    -0.305 N 
HETATM   24  C26 UNL     1      14.054  36.769  44.066  1.00  0.00     0.192 A 
ATOM     25  H5  UNL     1      13.202  36.986  42.150  1.00  0.00     0.171 HD
HETATM   26  N6  UNL     1      13.177  37.657  44.748  1.00  0.00    -0.063 NA
HETATM   27  N7  UNL     1      14.996  36.142  44.669  1.00  0.00    -0.338 N 
HETATM   28  C27 UNL     1      15.938  35.216  44.107  1.00  0.00     0.102 A 
ATOM     29  H7  UNL     1      15.087  36.322  45.669  1.00  0.00     0.164 HD
HETATM   30  C28 UNL     1      15.790  33.848  44.781  1.00  0.00     0.063 C 
HETATM   31  C29 UNL     1      17.323  35.719  44.504  1.00  0.00     0.063 C 
ENDBRANCH  19  20
ENDBRANCH  18  19
ENDBRANCH  17  18
ENDBRANCH  16  17
ENDBRANCH  15  16
ENDBRANCH  14  15
ENDBRANCH   5  14
BRANCH   1  32
HETATM   32  C2  UNL     1      16.226  31.343  35.888  1.00  0.00    -0.008 C 
HETATM   33  C1  UNL     1      15.222  31.715  34.827  1.00  0.00     0.011 C 
HETATM   34  C3  UNL     1      15.860  31.959  37.187  1.00  0.00     0.011 C 
ENDBRANCH   1  32
BRANCH   1  35
HETATM   35  C5  UNL     1      17.783  31.367  33.974  1.00  0.00    -0.046 A 
HETATM   36  C6  UNL     1      17.906  32.315  32.998  1.00  0.00     0.010 A 
HETATM   37  C7  UNL     1      18.024  31.957  31.672  1.00  0.00     0.026 A 
HETATM   38  C8  UNL     1      18.018  30.627  31.328  1.00  0.00     0.055 A 
HETATM   39 CL1  UNL     1      18.170  30.172  29.652  1.00  0.00    -0.083 Cl
HETATM   40  C9  UNL     1      17.898  29.639  32.278  1.00  0.00     0.056 A 
HETATM   41 CL2  UNL     1      17.896  27.953  31.785  1.00  0.00    -0.083 Cl
HETATM   42  C10 UNL     1      17.781  30.021  33.591  1.00  0.00     0.033 A 
ENDBRANCH   1  35
TORSDOF 10
ENDMDL
MODEL 3
REMARK VINA RESULT: -9.179403150      1.750      3.024
REMARK  10 active torsions:
REMARK  status: ('A' for Active; 'I' for Inactive)
REMARK    1  A    between atoms: C2_2  and  C4_4 
REMARK    2  A    between atoms: C4_4  and  C5_5 
REMARK    3  A    between atoms: C12_14  and  C13_15 
REMARK       I    between atoms: C13_15  and  N1_17 
REMARK    4  A    between atoms: C18_23  and  C19_24 
REMARK    5  A    between atoms: C19_24  and  C20_25 
REMARK    6  A    between atoms: C20_25  and  C21_26 
REMARK    7  A    between atoms: C21_26  and  C22_27 
REMARK    8  A    between atoms: C22_27  and  C23_28 
REMARK    9  A    between atoms: C23_28  and  C24_29 
REMARK   10  A    between atoms: C24_29  and  N3_30 
ROOT
HETATM    1  C4  UNL     1      17.286  28.872  30.539  1.00  0.00     0.008 C 
HETATM    2  C11 UNL     1      18.533  29.170  31.295  1.00  0.00     0.051 C 
HETATM    3  C12 UNL     1      18.137  30.083  32.475  1.00  0.00     0.176 C 
HETATM    4  N2  UNL     1      16.818  30.398  32.312  1.00  0.00    -0.379 N 
HETATM    5  C18 UNL     1      15.957  31.237  32.942  1.00  0.00     0.059 C 
HETATM    6  C30 UNL     1      16.194  29.461  31.390  1.00  0.00     0.137 C 
ENDROOT
BRANCH   3   7
HETATM    7  C13 UNL     1      19.081  31.227  32.565  1.00  0.00     0.242 C 
HETATM    8  O1  UNL     1      18.787  32.294  31.959  1.00  0.00    -0.271 OA
HETATM    9  N1  UNL     1      20.285  31.176  33.291  1.00  0.00    -0.350 N 
HETATM   10  C14 UNL     1      21.248  32.307  33.406  1.00  0.00     0.126 C 
HETATM   11  C17 UNL     1      20.938  30.146  34.069  1.00  0.00     0.126 C 
HETATM   12  C15 UNL     1      22.543  31.597  33.024  1.00  0.00     0.021 C 
HETATM   13  C16 UNL     1      22.337  30.124  33.408  1.00  0.00     0.021 C 
ENDBRANCH   3   7
BRANCH   5  14
HETATM   14  C19 UNL     1      15.489  30.998  34.341  1.00  0.00     0.044 C 
BRANCH  14  15
HETATM   15  C20 UNL     1      14.389  31.888  34.828  1.00  0.00     0.005 C 
BRANCH  15  16
HETATM   16  C21 UNL     1      14.940  32.915  35.831  1.00  0.00     0.000 C 
BRANCH  16  17
HETATM   17  C22 UNL     1      14.413  32.640  37.212  1.00  0.00     0.002 C 
BRANCH  17  18
HETATM   18  C23 UNL     1      15.620  32.675  38.192  1.00  0.00     0.020 C 
BRANCH  18  19
HETATM   19  C24 UNL     1      16.529  33.783  37.821  1.00  0.00     0.128 C 
BRANCH  19  20
HETATM   20  N3  UNL     1      17.940  33.570  37.912  1.00  0.00    -0.329 N 
HETATM   21  C25 UNL     1      18.581  34.047  39.129  1.00  0.00     0.194 A 
HETATM   22  N4  UNL     1      17.760  34.578  40.172  1.00  0.00    -0.063 NA
HETATM   23  N5  UNL     1      19.837  33.992  39.293  1.00  0.00    -0.305 N 
HETATM   24  C26 UNL     1      20.731  33.456  38.322  1.00  0.00     0.192 A 
ATOM     25  H5  UNL     1      20.228  34.350  40.165  1.00  0.00     0.171 HD
HETATM   26  N6  UNL     1      22.139  33.420  38.525  1.00  0.00    -0.063 NA
HETATM   27  N7  UNL     1      20.183  33.008  37.253  1.00  0.00    -0.338 N 
HETATM   28  C27 UNL     1      18.785  32.974  36.927  1.00  0.00     0.102 A 
ATOM     29  H7  UNL     1      20.817  32.629  36.549  1.00  0.00     0.164 HD
HETATM   30  C28 UNL     1      18.335  31.526  36.714  1.00  0.00     0.063 C 
HETATM   31  C29 UNL     1      18.645  33.650  35.567  1.00  0.00     0.063 C 
ENDBRANCH  19  20
ENDBRANCH  18  19
ENDBRANCH  17  18
ENDBRANCH  16  17
ENDBRANCH  15  16
ENDBRANCH  14  15
ENDBRANCH   5  14
BRANCH   1  32
HETATM   32  C2  UNL     1      17.142  27.350  30.525  1.00  0.00    -0.008 C 
HETATM   33  C1  UNL     1      15.707  26.940  30.734  1.00  0.00     0.011 C 
HETATM   34  C3  UNL     1      18.029  26.643  31.482  1.00  0.00     0.011 C 
ENDBRANCH   1  32
BRANCH   1  35
HETATM   35  C5  UNL     1      17.230  29.398  29.152  1.00  0.00    -0.046 A 
HETATM   36  C6  UNL     1      17.533  28.684  28.027  1.00  0.00     0.010 A 
HETATM   37  C7  UNL     1      17.451  29.262  26.777  1.00  0.00     0.026 A 
HETATM   38  C8  UNL     1      17.061  30.574  26.663  1.00  0.00     0.055 A 
HETATM   39 CL1  UNL     1      16.955  31.304  25.084  1.00  0.00    -0.083 Cl
HETATM   40  C9  UNL     1      16.747  31.330  27.769  1.00  0.00     0.056 A 
HETATM   41 CL2  UNL     1      16.254  33.003  27.568  1.00  0.00    -0.083 Cl
HETATM   42  C10 UNL     1      16.836  30.732  29.002  1.00  0.00     0.033 A 
ENDBRANCH   1  35
TORSDOF 10
ENDMDL
MODEL 4
REMARK VINA RESULT: -9.069874936      3.467      6.388
REMARK  10 active torsions:
REMARK  status: ('A' for Active; 'I' for Inactive)
REMARK    1  A    between atoms: C2_2  and  C4_4 
REMARK    2  A    between atoms: C4_4  and  C5_5 
REMARK    3  A    between atoms: C12_14  and  C13_15 
REMARK       I    between atoms: C13_15  and  N1_17 
REMARK    4  A    between atoms: C18_23  and  C19_24 
REMARK    5  A    between atoms: C19_24  and  C20_25 
REMARK    6  A    between atoms: C20_25  and  C21_26 
REMARK    7  A    between atoms: C21_26  and  C22_27 
REMARK    8  A    between atoms: C22_27  and  C23_28 
REMARK    9  A    between atoms: C23_28  and  C24_29 
REMARK   10  A    between atoms: C24_29  and  N3_30 
ROOT
HETATM    1  C4  UNL     1      19.990  33.624  36.637  1.00  0.00     0.008 C 
HETATM    2  C11 UNL     1      19.132  34.147  35.539  1.00  0.00     0.051 C 
HETATM    3  C12 UNL     1      17.778  33.412  35.635  1.00  0.00     0.176 C 
HETATM    4  N2  UNL     1      17.912  32.453  36.599  1.00  0.00    -0.379 N 
HETATM    5  C18 UNL     1      17.127  31.438  37.044  1.00  0.00     0.059 C 
HETATM    6  C30 UNL     1      19.064  32.748  37.436  1.00  0.00     0.137 C 
ENDROOT
BRANCH   3   7
HETATM    7  C13 UNL     1      17.365  32.940  34.288  1.00  0.00     0.242 C 
HETATM    8  O1  UNL     1      16.212  33.244  33.876  1.00  0.00    -0.271 OA
HETATM    9  N1  UNL     1      18.197  32.172  33.454  1.00  0.00    -0.350 N 
HETATM   10  C14 UNL     1      17.814  31.690  32.096  1.00  0.00     0.126 C 
HETATM   11  C17 UNL     1      19.532  31.635  33.596  1.00  0.00     0.126 C 
HETATM   12  C15 UNL     1      18.165  30.211  32.228  1.00  0.00     0.021 C 
HETATM   13  C16 UNL     1      19.283  30.142  33.278  1.00  0.00     0.021 C 
ENDBRANCH   3   7
BRANCH   5  14
HETATM   14  C19 UNL     1      15.854  31.680  37.788  1.00  0.00     0.044 C 
BRANCH  14  15
HETATM   15  C20 UNL     1      15.450  33.112  37.950  1.00  0.00     0.005 C 
BRANCH  15  16
HETATM   16  C21 UNL     1      15.613  33.548  39.416  1.00  0.00     0.000 C 
BRANCH  16  17
HETATM   17  C22 UNL     1      16.614  34.664  39.526  1.00  0.00     0.002 C 
BRANCH  17  18
HETATM   18  C23 UNL     1      16.858  34.929  41.040  1.00  0.00     0.020 C 
BRANCH  18  19
HETATM   19  C24 UNL     1      15.683  34.478  41.819  1.00  0.00     0.128 C 
BRANCH  19  20
HETATM   20  N3  UNL     1      15.166  35.339  42.836  1.00  0.00    -0.329 N 
HETATM   21  C25 UNL     1      14.139  36.281  42.414  1.00  0.00     0.194 A 
HETATM   22  N4  UNL     1      13.649  36.205  41.074  1.00  0.00    -0.063 NA
HETATM   23  N5  UNL     1      13.662  37.152  43.203  1.00  0.00    -0.305 N 
HETATM   24  C26 UNL     1      14.068  37.286  44.561  1.00  0.00     0.192 A 
ATOM     25  H5  UNL     1      12.950  37.790  42.846  1.00  0.00     0.171 HD
HETATM   26  N6  UNL     1      13.526  38.282  45.421  1.00  0.00    -0.063 NA
HETATM   27  N7  UNL     1      14.954  36.448  44.959  1.00  0.00    -0.338 N 
HETATM   28  C27 UNL     1      15.572  35.395  44.204  1.00  0.00     0.102 A 
ATOM     29  H7  UNL     1      15.256  36.542  45.929  1.00  0.00     0.164 HD
HETATM   30  C28 UNL     1      15.270  34.042  44.855  1.00  0.00     0.063 C 
HETATM   31  C29 UNL     1      17.078  35.591  44.347  1.00  0.00     0.063 C 
ENDBRANCH  19  20
ENDBRANCH  18  19
ENDBRANCH  17  18
ENDBRANCH  16  17
ENDBRANCH  15  16
ENDBRANCH  14  15
ENDBRANCH   5  14
BRANCH   1  32
HETATM   32  C2  UNL     1      20.391  34.831  37.485  1.00  0.00    -0.008 C 
HETATM   33  C1  UNL     1      21.079  34.396  38.754  1.00  0.00     0.011 C 
HETATM   34  C3  UNL     1      19.276  35.761  37.791  1.00  0.00     0.011 C 
ENDBRANCH   1  32
BRANCH   1  35
HETATM   35  C5  UNL     1      21.201  32.879  36.210  1.00  0.00    -0.046 A 
HETATM   36  C6  UNL     1      21.502  31.594  36.568  1.00  0.00     0.010 A 
HETATM   37  C7  UNL     1      22.655  30.986  36.120  1.00  0.00     0.026 A 
HETATM   38  C8  UNL     1      23.513  31.680  35.303  1.00  0.00     0.055 A 
HETATM   39 CL1  UNL     1      24.970  30.911  34.733  1.00  0.00    -0.083 Cl
HETATM   40  C9  UNL     1      23.250  32.975  34.918  1.00  0.00     0.056 A 
HETATM   41 CL2  UNL     1      24.381  33.819  33.873  1.00  0.00    -0.083 Cl
HETATM   42  C10 UNL     1      22.096  33.560  35.377  1.00  0.00     0.033 A 
ENDBRANCH   1  35
TORSDOF 10
ENDMDL
MODEL 5
REMARK VINA RESULT: -8.993478485      1.285      1.938
REMARK  10 active torsions:
REMARK  status: ('A' for Active; 'I' for Inactive)
REMARK    1  A    between atoms: C2_2  and  C4_4 
REMARK    2  A    between atoms: C4_4  and  C5_5 
REMARK    3  A    between atoms: C12_14  and  C13_15 
REMARK       I    between atoms: C13_15  and  N1_17 
REMARK    4  A    between atoms: C18_23  and  C19_24 
REMARK    5  A    between atoms: C19_24  and  C20_25 
REMARK    6  A    between atoms: C20_25  and  C21_26 
REMARK    7  A    between atoms: C21_26  and  C22_27 
REMARK    8  A    between atoms: C22_27  and  C23_28 
REMARK    9  A    between atoms: C23_28  and  C24_29 
REMARK   10  A    between atoms: C24_29  and  N3_30 
ROOT
HETATM    1  C4  UNL     1      17.001  29.500  31.351  1.00  0.00     0.008 C 
HETATM    2  C11 UNL     1      18.292  29.485  32.091  1.00  0.00     0.051 C 
HETATM    3  C12 UNL     1      18.100  30.356  33.352  1.00  0.00     0.176 C 
HETATM    4  N2  UNL     1      16.866  30.934  33.252  1.00  0.00    -0.379 N 
HETATM    5  C18 UNL     1      16.196  31.869  33.973  1.00  0.00     0.059 C 
HETATM    6  C30 UNL     1      16.058  30.217  32.278  1.00  0.00     0.137 C 
ENDROOT
BRANCH   3   7
HETATM    7  C13 UNL     1      19.252  31.281  33.504  1.00  0.00     0.242 C 
HETATM    8  O1  UNL     1      19.844  31.675  32.462  1.00  0.00    -0.271 OA
HETATM    9  N1  UNL     1      19.712  31.737  34.752  1.00  0.00    -0.350 N 
HETATM   10  C14 UNL     1      20.860  32.670  34.937  1.00  0.00     0.126 C 
HETATM   11  C17 UNL     1      19.305  31.489  36.118  1.00  0.00     0.126 C 
HETATM   12  C15 UNL     1      21.668  31.899  35.976  1.00  0.00     0.021 C 
HETATM   13  C16 UNL     1      20.648  31.049  36.748  1.00  0.00     0.021 C 
ENDBRANCH   3   7
BRANCH   5  14
HETATM   14  C19 UNL     1      15.708  31.610  35.361  1.00  0.00     0.044 C 
BRANCH  14  15
HETATM   15  C20 UNL     1      14.664  32.550  35.878  1.00  0.00     0.005 C 
BRANCH  15  16
HETATM   16  C21 UNL     1      14.743  32.642  37.411  1.00  0.00     0.000 C 
BRANCH  16  17
HETATM   17  C22 UNL     1      16.149  32.949  37.850  1.00  0.00     0.002 C 
BRANCH  17  18
HETATM   18  C23 UNL     1      16.085  34.173  38.809  1.00  0.00     0.020 C 
BRANCH  18  19
HETATM   19  C24 UNL     1      14.987  33.984  39.783  1.00  0.00     0.128 C 
BRANCH  19  20
HETATM   20  N3  UNL     1      15.220  34.326  41.152  1.00  0.00    -0.329 N 
HETATM   21  C25 UNL     1      14.571  35.540  41.626  1.00  0.00     0.194 A 
HETATM   22  N4  UNL     1      13.677  36.225  40.748  1.00  0.00    -0.063 NA
HETATM   23  N5  UNL     1      14.767  35.994  42.794  1.00  0.00    -0.305 N 
HETATM   24  C26 UNL     1      15.619  35.366  43.746  1.00  0.00     0.192 A 
ATOM     25  H5  UNL     1      14.290  36.854  43.065  1.00  0.00     0.171 HD
HETATM   26  N6  UNL     1      15.833  35.904  45.045  1.00  0.00    -0.063 NA
HETATM   27  N7  UNL     1      16.181  34.281  43.355  1.00  0.00    -0.338 N 
HETATM   28  C27 UNL     1      16.045  33.627  42.085  1.00  0.00     0.102 A 
ATOM     29  H7  UNL     1      16.799  33.828  44.029  1.00  0.00     0.164 HD
HETATM   30  C28 UNL     1      15.469  32.221  42.281  1.00  0.00     0.063 C 
HETATM   31  C29 UNL     1      17.460  33.419  41.555  1.00  0.00     0.063 C 
ENDBRANCH  19  20
ENDBRANCH  18  19
ENDBRANCH  17  18
ENDBRANCH  16  17
ENDBRANCH  15  16
ENDBRANCH  14  15
ENDBRANCH   5  14
BRANCH   1  32
HETATM   32  C2  UNL     1      16.560  28.042  31.221  1.00  0.00    -0.008 C 
HETATM   33  C1  UNL     1      17.672  27.103  31.610  1.00  0.00     0.011 C 
HETATM   34  C3  UNL     1      16.019  27.683  29.887  1.00  0.00     0.011 C 
ENDBRANCH   1  32
BRANCH   1  35
HETATM   35  C5  UNL     1      17.032  30.141  30.013  1.00  0.00    -0.046 A 
HETATM   36  C6  UNL     1      16.040  30.925  29.493  1.00  0.00     0.010 A 
HETATM   37  C7  UNL     1      16.160  31.478  28.236  1.00  0.00     0.026 A 
HETATM   38  C8  UNL     1      17.293  31.239  27.496  1.00  0.00     0.055 A 
HETATM   39 CL1  UNL     1      17.447  31.942  25.909  1.00  0.00    -0.083 Cl
HETATM   40  C9  UNL     1      18.316  30.457  27.981  1.00  0.00     0.056 A 
HETATM   41 CL2  UNL     1      19.743  30.183  26.996  1.00  0.00    -0.083 Cl
HETATM   42  C10 UNL     1      18.173  29.917  29.235  1.00  0.00     0.033 A 
ENDBRANCH   1  35
TORSDOF 10
ENDMDL
