MODEL 1
REMARK VINA RESULT: -7.731722217      0.000      0.000
REMARK  4 active torsions:
REMARK  status: ('A' for Active; 'I' for Inactive)
REMARK    1  A    between atoms: C1_2  and  C2_3 
REMARK       I    between atoms: C1_2  and  N1_13 
REMARK    2  A    between atoms: C2_3  and  S1_4 
REMARK    3  A    between atoms: S1_4  and  C3_7 
REMARK    4  A    between atoms: N1_13  and  C9_15 
ROOT
HETATM    1  O1  UNL     1      40.808   2.900  62.996  1.00  0.00    -0.272 OA
HETATM    2  C1  UNL     1      40.927   1.841  62.385  1.00  0.00     0.236 C 
HETATM    3  N1  UNL     1      41.467   0.678  62.926  1.00  0.00    -0.326 N 
ATOM      4  H1  UNL     1      41.513  -0.148  62.329  1.00  0.00     0.169 HD
ENDROOT
BRANCH   2   5
HETATM    5  C2  UNL     1      40.447   1.840  60.957  1.00  0.00     0.248 C 
BRANCH   5   6
HETATM    6  S1  UNL     1      41.703   2.685  60.017  1.00  0.00     0.183 S 
HETATM    7  O2  UNL     1      41.501   2.313  58.578  1.00  0.00    -0.222 OA
HETATM    8  O3  UNL     1      41.444   4.163  60.172  1.00  0.00    -0.222 OA
BRANCH   6   9
HETATM    9  C3  UNL     1      43.298   2.302  60.583  1.00  0.00     0.059 A 
HETATM   10  C4  UNL     1      43.976   3.012  61.532  1.00  0.00     0.023 A 
HETATM   11  C5  UNL     1      45.247   2.617  61.913  1.00  0.00     0.002 A 
HETATM   12  C6  UNL     1      45.880   1.519  61.376  1.00  0.00     0.000 A 
HETATM   13  C7  UNL     1      45.188   0.806  60.419  1.00  0.00     0.002 A 
HETATM   14  C8  UNL     1      43.922   1.188  60.029  1.00  0.00     0.023 A 
ENDBRANCH   6   9
ENDBRANCH   5   6
ENDBRANCH   2   5
BRANCH   3  15
HETATM   15  C9  UNL     1      41.958   0.563  64.248  1.00  0.00     0.034 A 
HETATM   16  C10 UNL     1      41.243   0.126  65.331  1.00  0.00     0.029 A 
HETATM   17  C11 UNL     1      41.845   0.029  66.578  1.00  0.00     0.002 A 
HETATM   18  C12 UNL     1      43.164   0.359  66.801  1.00  0.00     0.000 A 
HETATM   19  C13 UNL     1      43.856   0.796  65.694  1.00  0.00     0.002 A 
HETATM   20  C14 UNL     1      43.305   0.906  64.450  1.00  0.00     0.029 A 
ENDBRANCH   3  15
TORSDOF 4
ENDMDL
MODEL 2
REMARK VINA RESULT: -7.697617474      1.178      1.648
REMARK  4 active torsions:
REMARK  status: ('A' for Active; 'I' for Inactive)
REMARK    1  A    between atoms: C1_2  and  C2_3 
REMARK       I    between atoms: C1_2  and  N1_13 
REMARK    2  A    between atoms: C2_3  and  S1_4 
REMARK    3  A    between atoms: S1_4  and  C3_7 
REMARK    4  A    between atoms: N1_13  and  C9_15 
ROOT
HETATM    1  O1  UNL     1      40.668  -0.266  61.421  1.00  0.00    -0.272 OA
HETATM    2  C1  UNL     1      40.452   0.926  61.621  1.00  0.00     0.236 C 
HETATM    3  N1  UNL     1      40.602   1.558  62.852  1.00  0.00    -0.326 N 
ATOM      4  H1  UNL     1      40.400   2.557  62.902  1.00  0.00     0.169 HD
ENDROOT
BRANCH   2   5
HETATM    5  C2  UNL     1      39.994   1.727  60.429  1.00  0.00     0.248 C 
BRANCH   5   6
HETATM    6  S1  UNL     1      41.205   3.017  60.211  1.00  0.00     0.183 S 
HETATM    7  O2  UNL     1      41.025   3.560  58.825  1.00  0.00    -0.222 OA
HETATM    8  O3  UNL     1      40.867   4.104  61.202  1.00  0.00    -0.222 OA
BRANCH   6   9
HETATM    9  C3  UNL     1      42.818   2.440  60.493  1.00  0.00     0.059 A 
HETATM   10  C4  UNL     1      43.422   1.445  59.780  1.00  0.00     0.023 A 
HETATM   11  C5  UNL     1      44.716   1.062  60.088  1.00  0.00     0.002 A 
HETATM   12  C6  UNL     1      45.446   1.646  61.099  1.00  0.00     0.000 A 
HETATM   13  C7  UNL     1      44.829   2.651  61.814  1.00  0.00     0.002 A 
HETATM   14  C8  UNL     1      43.540   3.041  61.519  1.00  0.00     0.023 A 
ENDBRANCH   6   9
ENDBRANCH   5   6
ENDBRANCH   2   5
BRANCH   3  15
HETATM   15  C9  UNL     1      41.015   0.908  64.038  1.00  0.00     0.034 A 
HETATM   16  C10 UNL     1      40.207   0.195  64.883  1.00  0.00     0.029 A 
HETATM   17  C11 UNL     1      40.737  -0.425  66.006  1.00  0.00     0.002 A 
HETATM   18  C12 UNL     1      42.073  -0.365  66.336  1.00  0.00     0.000 A 
HETATM   19  C13 UNL     1      42.860   0.359  65.468  1.00  0.00     0.002 A 
HETATM   20  C14 UNL     1      42.382   0.984  64.352  1.00  0.00     0.029 A 
ENDBRANCH   3  15
TORSDOF 4
ENDMDL
MODEL 3
REMARK VINA RESULT: -7.647252721      2.436      4.791
REMARK  4 active torsions:
REMARK  status: ('A' for Active; 'I' for Inactive)
REMARK    1  A    between atoms: C1_2  and  C2_3 
REMARK       I    between atoms: C1_2  and  N1_13 
REMARK    2  A    between atoms: C2_3  and  S1_4 
REMARK    3  A    between atoms: S1_4  and  C3_7 
REMARK    4  A    between atoms: N1_13  and  C9_15 
ROOT
HETATM    1  O1  UNL     1      43.903   1.927  59.710  1.00  0.00    -0.272 OA
HETATM    2  C1  UNL     1      42.703   1.853  59.958  1.00  0.00     0.236 C 
HETATM    3  N1  UNL     1      42.173   1.667  61.232  1.00  0.00    -0.326 N 
ATOM      4  H1  UNL     1      41.158   1.627  61.324  1.00  0.00     0.169 HD
ENDROOT
BRANCH   2   5
HETATM    5  C2  UNL     1      41.772   1.978  58.780  1.00  0.00     0.248 C 
BRANCH   5   6
HETATM    6  S1  UNL     1      40.853   3.483  59.039  1.00  0.00     0.183 S 
HETATM    7  O2  UNL     1      41.488   4.193  60.197  1.00  0.00    -0.222 OA
HETATM    8  O3  UNL     1      41.035   4.323  57.799  1.00  0.00    -0.222 OA
BRANCH   6   9
HETATM    9  C3  UNL     1      39.165   3.170  59.297  1.00  0.00     0.059 A 
HETATM   10  C4  UNL     1      38.612   2.840  60.501  1.00  0.00     0.023 A 
HETATM   11  C5  UNL     1      37.251   2.613  60.597  1.00  0.00     0.002 A 
HETATM   12  C6  UNL     1      36.401   2.704  59.517  1.00  0.00     0.000 A 
HETATM   13  C7  UNL     1      36.967   3.038  58.305  1.00  0.00     0.002 A 
HETATM   14  C8  UNL     1      38.321   3.267  58.195  1.00  0.00     0.023 A 
ENDBRANCH   6   9
ENDBRANCH   5   6
ENDBRANCH   2   5
BRANCH   3  15
HETATM   15  C9  UNL     1      42.948   1.528  62.407  1.00  0.00     0.034 A 
HETATM   16  C10 UNL     1      44.273   1.848  62.534  1.00  0.00     0.029 A 
HETATM   17  C11 UNL     1      44.920   1.695  63.752  1.00  0.00     0.002 A 
HETATM   18  C12 UNL     1      44.290   1.223  64.882  1.00  0.00     0.000 A 
HETATM   19  C13 UNL     1      42.958   0.910  64.724  1.00  0.00     0.002 A 
HETATM   20  C14 UNL     1      42.282   1.046  63.546  1.00  0.00     0.029 A 
ENDBRANCH   3  15
TORSDOF 4
ENDMDL
MODEL 4
REMARK VINA RESULT: -7.594813746      3.187      5.654
REMARK  4 active torsions:
REMARK  status: ('A' for Active; 'I' for Inactive)
REMARK    1  A    between atoms: C1_2  and  C2_3 
REMARK       I    between atoms: C1_2  and  N1_13 
REMARK    2  A    between atoms: C2_3  and  S1_4 
REMARK    3  A    between atoms: S1_4  and  C3_7 
REMARK    4  A    between atoms: N1_13  and  C9_15 
ROOT
HETATM    1  O1  UNL     1      39.170   2.452  58.484  1.00  0.00    -0.272 OA
HETATM    2  C1  UNL     1      39.383   2.236  59.673  1.00  0.00     0.236 C 
HETATM    3  N1  UNL     1      38.543   2.635  60.709  1.00  0.00    -0.326 N 
ATOM      4  H1  UNL     1      38.816   2.396  61.662  1.00  0.00     0.169 HD
ENDROOT
BRANCH   2   5
HETATM    5  C2  UNL     1      40.651   1.487  59.995  1.00  0.00     0.248 C 
BRANCH   5   6
HETATM    6  S1  UNL     1      41.905   2.729  60.243  1.00  0.00     0.183 S 
HETATM    7  O2  UNL     1      42.638   2.880  58.943  1.00  0.00    -0.222 OA
HETATM    8  O3  UNL     1      41.185   4.021  60.542  1.00  0.00    -0.222 OA
BRANCH   6   9
HETATM    9  C3  UNL     1      42.962   2.324  61.558  1.00  0.00     0.059 A 
HETATM   10  C4  UNL     1      42.559   1.755  62.731  1.00  0.00     0.023 A 
HETATM   11  C5  UNL     1      43.488   1.470  63.716  1.00  0.00     0.002 A 
HETATM   12  C6  UNL     1      44.832   1.734  63.574  1.00  0.00     0.000 A 
HETATM   13  C7  UNL     1      45.232   2.308  62.385  1.00  0.00     0.002 A 
HETATM   14  C8  UNL     1      44.317   2.598  61.396  1.00  0.00     0.023 A 
ENDBRANCH   6   9
ENDBRANCH   5   6
ENDBRANCH   2   5
BRANCH   3  15
HETATM   15  C9  UNL     1      37.335   3.349  60.528  1.00  0.00     0.034 A 
HETATM   16  C10 UNL     1      37.225   4.702  60.352  1.00  0.00     0.029 A 
HETATM   17  C11 UNL     1      35.982   5.287  60.154  1.00  0.00     0.002 A 
HETATM   18  C12 UNL     1      34.810   4.564  60.122  1.00  0.00     0.000 A 
HETATM   19  C13 UNL     1      34.952   3.205  60.303  1.00  0.00     0.002 A 
HETATM   20  C14 UNL     1      36.154   2.589  60.500  1.00  0.00     0.029 A 
ENDBRANCH   3  15
TORSDOF 4
ENDMDL
MODEL 5
REMARK VINA RESULT: -7.591477803      3.182      5.671
REMARK  4 active torsions:
REMARK  status: ('A' for Active; 'I' for Inactive)
REMARK    1  A    between atoms: C1_2  and  C2_3 
REMARK       I    between atoms: C1_2  and  N1_13 
REMARK    2  A    between atoms: C2_3  and  S1_4 
REMARK    3  A    between atoms: S1_4  and  C3_7 
REMARK    4  A    between atoms: N1_13  and  C9_15 
ROOT
HETATM    1  O1  UNL     1      39.195   2.438  58.481  1.00  0.00    -0.272 OA
HETATM    2  C1  UNL     1      39.393   2.227  59.674  1.00  0.00     0.236 C 
HETATM    3  N1  UNL     1      38.532   2.618  60.695  1.00  0.00    -0.326 N 
ATOM      4  H1  UNL     1      38.793   2.384  61.653  1.00  0.00     0.169 HD
ENDROOT
BRANCH   2   5
HETATM    5  C2  UNL     1      40.663   1.492  60.017  1.00  0.00     0.248 C 
BRANCH   5   6
HETATM    6  S1  UNL     1      41.928   2.740  60.158  1.00  0.00     0.183 S 
HETATM    7  O2  UNL     1      42.591   2.849  58.816  1.00  0.00    -0.222 OA
HETATM    8  O3  UNL     1      41.225   4.042  60.454  1.00  0.00    -0.222 OA
BRANCH   6   9
HETATM    9  C3  UNL     1      43.055   2.375  61.426  1.00  0.00     0.059 A 
HETATM   10  C4  UNL     1      44.398   2.613  61.364  1.00  0.00     0.023 A 
HETATM   11  C5  UNL     1      45.208   2.283  62.436  1.00  0.00     0.002 A 
HETATM   12  C6  UNL     1      44.722   1.715  63.592  1.00  0.00     0.000 A 
HETATM   13  C7  UNL     1      43.364   1.478  63.648  1.00  0.00     0.002 A 
HETATM   14  C8  UNL     1      42.545   1.801  62.587  1.00  0.00     0.023 A 
ENDBRANCH   6   9
ENDBRANCH   5   6
ENDBRANCH   2   5
BRANCH   3  15
HETATM   15  C9  UNL     1      37.320   3.319  60.494  1.00  0.00     0.034 A 
HETATM   16  C10 UNL     1      37.196   4.672  60.329  1.00  0.00     0.029 A 
HETATM   17  C11 UNL     1      35.950   5.243  60.108  1.00  0.00     0.002 A 
HETATM   18  C12 UNL     1      34.789   4.505  60.044  1.00  0.00     0.000 A 
HETATM   19  C13 UNL     1      34.945   3.147  60.214  1.00  0.00     0.002 A 
HETATM   20  C14 UNL     1      36.150   2.544  60.432  1.00  0.00     0.029 A 
ENDBRANCH   3  15
TORSDOF 4
ENDMDL
