MODEL 1
REMARK VINA RESULT: -9.041442184      0.000      0.000
REMARK  2 active torsions:
REMARK  status: ('A' for Active; 'I' for Inactive)
REMARK       I    between atoms: C1_2  and  N1_3 
REMARK    1  A    between atoms: C1_2  and  C7_12 
REMARK    2  A    between atoms: N1_3  and  C2_5 
ROOT
HETATM    1  C7  UNL     1      26.259   0.864   4.711  1.00  0.00     0.144 A 
HETATM    2  C8  UNL     1      26.734   2.110   4.359  1.00  0.00     0.058 A 
HETATM    3  C9  UNL     1      25.653   2.961   4.374  1.00  0.00     0.012 A 
HETATM    4  C10 UNL     1      24.572   2.193   4.734  1.00  0.00     0.087 A 
HETATM    5  C11 UNL     1      23.341   2.816   4.825  1.00  0.00     0.039 A 
HETATM    6  C12 UNL     1      23.153   4.155   4.573  1.00  0.00     0.015 A 
HETATM    7  C13 UNL     1      24.242   4.919   4.213  1.00  0.00    -0.025 A 
HETATM    8  C14 UNL     1      24.079   6.262   3.955  1.00  0.00     0.012 A 
HETATM    9  C15 UNL     1      25.194   6.984   3.598  1.00  0.00     0.001 A 
HETATM   10  C16 UNL     1      26.435   6.382   3.502  1.00  0.00     0.001 A 
HETATM   11  C17 UNL     1      26.595   5.038   3.759  1.00  0.00     0.013 A 
HETATM   12  C18 UNL     1      25.472   4.295   4.122  1.00  0.00    -0.013 A 
HETATM   13  O2  UNL     1      24.968   0.942   4.929  1.00  0.00    -0.304 OA
ENDROOT
BRANCH   1  14
HETATM   14  C1  UNL     1      27.052  -0.375   4.832  1.00  0.00     0.281 C 
HETATM   15  O1  UNL     1      26.445  -1.467   4.865  1.00  0.00    -0.265 OA
HETATM   16  N1  UNL     1      28.469  -0.311   4.908  1.00  0.00    -0.307 N 
ATOM     17  H1  UNL     1      28.908   0.072   5.745  1.00  0.00     0.170 HD
BRANCH  16  18
HETATM   18  C2  UNL     1      29.204  -0.723   3.948  1.00  0.00     0.107 A 
HETATM   19  C3  UNL     1      29.053  -0.240   2.666  1.00  0.00     0.048 A 
HETATM   20  C4  UNL     1      29.842  -0.678   1.614  1.00  0.00     0.005 A 
HETATM   21  C5  UNL     1      30.797  -1.622   1.880  1.00  0.00     0.017 A 
HETATM   22  C6  UNL     1      30.936  -2.099   3.179  1.00  0.00     0.089 A 
HETATM   23  N2  UNL     1      30.152  -1.650   4.170  1.00  0.00    -0.352 N 
ATOM     24  H2  UNL     1      30.278  -2.019   5.112  1.00  0.00     0.166 HD
ENDBRANCH  16  18
ENDBRANCH   1  14
TORSDOF 2
ENDMDL
MODEL 2
REMARK VINA RESULT: -7.496302450      2.283      6.967
REMARK  2 active torsions:
REMARK  status: ('A' for Active; 'I' for Inactive)
REMARK       I    between atoms: C1_2  and  N1_3 
REMARK    1  A    between atoms: C1_2  and  C7_12 
REMARK    2  A    between atoms: N1_3  and  C2_5 
ROOT
HETATM    1  C7  UNL     1      25.573   1.359   4.812  1.00  0.00     0.144 A 
HETATM    2  C8  UNL     1      26.671   1.381   3.978  1.00  0.00     0.058 A 
HETATM    3  C9  UNL     1      27.175   0.101   3.958  1.00  0.00     0.012 A 
HETATM    4  C10 UNL     1      26.360  -0.639   4.780  1.00  0.00     0.087 A 
HETATM    5  C11 UNL     1      26.651  -1.982   4.937  1.00  0.00     0.039 A 
HETATM    6  C12 UNL     1      27.708  -2.602   4.314  1.00  0.00     0.015 A 
HETATM    7  C13 UNL     1      28.521  -1.852   3.490  1.00  0.00    -0.025 A 
HETATM    8  C14 UNL     1      29.587  -2.451   2.856  1.00  0.00     0.012 A 
HETATM    9  C15 UNL     1      30.372  -1.664   2.044  1.00  0.00     0.001 A 
HETATM   10  C16 UNL     1      30.098  -0.319   1.872  1.00  0.00     0.001 A 
HETATM   11  C17 UNL     1      29.031   0.277   2.509  1.00  0.00     0.013 A 
HETATM   12  C18 UNL     1      28.229  -0.511   3.335  1.00  0.00    -0.013 A 
HETATM   13  O2  UNL     1      25.410   0.143   5.276  1.00  0.00    -0.304 OA
ENDROOT
BRANCH   1  14
HETATM   14  C1  UNL     1      24.703   2.503   5.146  1.00  0.00     0.281 C 
HETATM   15  O1  UNL     1      24.435   2.713   6.349  1.00  0.00    -0.265 OA
HETATM   16  N1  UNL     1      24.189   3.335   4.116  1.00  0.00    -0.307 N 
ATOM     17  H1  UNL     1      23.485   2.964   3.478  1.00  0.00     0.170 HD
BRANCH  16  18
HETATM   18  C2  UNL     1      24.592   4.538   3.972  1.00  0.00     0.107 A 
HETATM   19  C3  UNL     1      25.851   4.824   3.488  1.00  0.00     0.048 A 
HETATM   20  C4  UNL     1      26.302   6.125   3.327  1.00  0.00     0.005 A 
HETATM   21  C5  UNL     1      25.454   7.143   3.667  1.00  0.00     0.017 A 
HETATM   22  C6  UNL     1      24.187   6.838   4.154  1.00  0.00     0.089 A 
HETATM   23  N2  UNL     1      23.788   5.566   4.295  1.00  0.00    -0.352 N 
ATOM     24  H2  UNL     1      22.853   5.374   4.655  1.00  0.00     0.166 HD
ENDBRANCH  16  18
ENDBRANCH   1  14
TORSDOF 2
ENDMDL
MODEL 3
REMARK VINA RESULT: -7.472766508      1.226      1.260
REMARK  2 active torsions:
REMARK  status: ('A' for Active; 'I' for Inactive)
REMARK       I    between atoms: C1_2  and  N1_3 
REMARK    1  A    between atoms: C1_2  and  C7_12 
REMARK    2  A    between atoms: N1_3  and  C2_5 
ROOT
HETATM    1  C7  UNL     1      27.502   1.896   5.100  1.00  0.00     0.144 A 
HETATM    2  C8  UNL     1      27.566   3.148   4.525  1.00  0.00     0.058 A 
HETATM    3  C9  UNL     1      26.289   3.659   4.551  1.00  0.00     0.012 A 
HETATM    4  C10 UNL     1      25.508   2.694   5.141  1.00  0.00     0.087 A 
HETATM    5  C11 UNL     1      24.160   2.959   5.292  1.00  0.00     0.039 A 
HETATM    6  C12 UNL     1      23.572   4.133   4.883  1.00  0.00     0.015 A 
HETATM    7  C13 UNL     1      24.363   5.097   4.292  1.00  0.00    -0.025 A 
HETATM    8  C14 UNL     1      23.796   6.280   3.873  1.00  0.00     0.012 A 
HETATM    9  C15 UNL     1      24.623   7.213   3.289  1.00  0.00     0.001 A 
HETATM   10  C16 UNL     1      25.975   6.968   3.129  1.00  0.00     0.001 A 
HETATM   11  C17 UNL     1      26.538   5.782   3.548  1.00  0.00     0.013 A 
HETATM   12  C18 UNL     1      25.710   4.830   4.142  1.00  0.00    -0.013 A 
HETATM   13  O2  UNL     1      26.265   1.651   5.458  1.00  0.00    -0.304 OA
ENDROOT
BRANCH   1  14
HETATM   14  C1  UNL     1      28.628   0.962   5.294  1.00  0.00     0.281 C 
HETATM   15  O1  UNL     1      28.690   0.323   6.367  1.00  0.00    -0.265 OA
HETATM   16  N1  UNL     1      29.608   0.804   4.278  1.00  0.00    -0.307 N 
ATOM     17  H1  UNL     1      30.254   1.568   4.084  1.00  0.00     0.170 HD
BRANCH  16  18
HETATM   18  C2  UNL     1      29.695  -0.278   3.604  1.00  0.00     0.107 A 
HETATM   19  C3  UNL     1      29.262  -0.349   2.298  1.00  0.00     0.048 A 
HETATM   20  C4  UNL     1      29.350  -1.516   1.554  1.00  0.00     0.005 A 
HETATM   21  C5  UNL     1      29.888  -2.620   2.157  1.00  0.00     0.017 A 
HETATM   22  C6  UNL     1      30.320  -2.531   3.476  1.00  0.00     0.089 A 
HETATM   23  N2  UNL     1      30.217  -1.384   4.162  1.00  0.00    -0.352 N 
ATOM     24  H2  UNL     1      30.543  -1.350   5.128  1.00  0.00     0.166 HD
ENDBRANCH  16  18
ENDBRANCH   1  14
TORSDOF 2
ENDMDL
MODEL 4
REMARK VINA RESULT: -7.132785103      2.245      6.940
REMARK  2 active torsions:
REMARK  status: ('A' for Active; 'I' for Inactive)
REMARK       I    between atoms: C1_2  and  N1_3 
REMARK    1  A    between atoms: C1_2  and  C7_12 
REMARK    2  A    between atoms: N1_3  and  C2_5 
ROOT
HETATM    1  C7  UNL     1      25.605   1.314   4.747  1.00  0.00     0.144 A 
HETATM    2  C8  UNL     1      26.702   1.326   3.912  1.00  0.00     0.058 A 
HETATM    3  C9  UNL     1      27.214   0.049   3.916  1.00  0.00     0.012 A 
HETATM    4  C10 UNL     1      26.404  -0.680   4.754  1.00  0.00     0.087 A 
HETATM    5  C11 UNL     1      26.703  -2.017   4.937  1.00  0.00     0.039 A 
HETATM    6  C12 UNL     1      27.764  -2.643   4.326  1.00  0.00     0.015 A 
HETATM    7  C13 UNL     1      28.572  -1.905   3.487  1.00  0.00    -0.025 A 
HETATM    8  C14 UNL     1      29.641  -2.510   2.863  1.00  0.00     0.012 A 
HETATM    9  C15 UNL     1      30.420  -1.734   2.035  1.00  0.00     0.001 A 
HETATM   10  C16 UNL     1      30.138  -0.395   1.837  1.00  0.00     0.001 A 
HETATM   11  C17 UNL     1      29.068   0.207   2.463  1.00  0.00     0.013 A 
HETATM   12  C18 UNL     1      28.272  -0.569   3.305  1.00  0.00    -0.013 A 
HETATM   13  O2  UNL     1      25.449   0.107   5.235  1.00  0.00    -0.304 OA
ENDROOT
BRANCH   1  14
HETATM   14  C1  UNL     1      24.728   2.459   5.059  1.00  0.00     0.281 C 
HETATM   15  O1  UNL     1      24.422   2.663   6.254  1.00  0.00    -0.265 OA
HETATM   16  N1  UNL     1      24.252   3.299   4.017  1.00  0.00    -0.307 N 
ATOM     17  H1  UNL     1      23.568   2.934   3.355  1.00  0.00     0.170 HD
BRANCH  16  18
HETATM   18  C2  UNL     1      24.664   4.501   3.894  1.00  0.00     0.107 A 
HETATM   19  C3  UNL     1      23.866   5.574   4.227  1.00  0.00     0.048 A 
HETATM   20  C4  UNL     1      24.300   6.885   4.099  1.00  0.00     0.005 A 
HETATM   21  C5  UNL     1      25.565   7.096   3.623  1.00  0.00     0.017 A 
HETATM   22  C6  UNL     1      26.358   6.003   3.292  1.00  0.00     0.089 A 
HETATM   23  N2  UNL     1      25.901   4.750   3.430  1.00  0.00    -0.352 N 
ATOM     24  H2  UNL     1      26.506   3.968   3.179  1.00  0.00     0.166 HD
ENDBRANCH  16  18
ENDBRANCH   1  14
TORSDOF 2
ENDMDL
MODEL 5
REMARK VINA RESULT: -7.024868175      1.883      2.832
REMARK  2 active torsions:
REMARK  status: ('A' for Active; 'I' for Inactive)
REMARK       I    between atoms: C1_2  and  N1_3 
REMARK    1  A    between atoms: C1_2  and  C7_12 
REMARK    2  A    between atoms: N1_3  and  C2_5 
ROOT
HETATM    1  C7  UNL     1      28.537   2.674   4.592  1.00  0.00     0.144 A 
HETATM    2  C8  UNL     1      27.169   2.506   4.632  1.00  0.00     0.058 A 
HETATM    3  C9  UNL     1      26.613   3.747   4.425  1.00  0.00     0.012 A 
HETATM    4  C10 UNL     1      27.669   4.613   4.269  1.00  0.00     0.087 A 
HETATM    5  C11 UNL     1      27.383   5.947   4.043  1.00  0.00     0.039 A 
HETATM    6  C12 UNL     1      26.101   6.440   3.971  1.00  0.00     0.015 A 
HETATM    7  C13 UNL     1      25.047   5.565   4.128  1.00  0.00    -0.025 A 
HETATM    8  C14 UNL     1      23.754   6.036   4.060  1.00  0.00     0.012 A 
HETATM    9  C15 UNL     1      22.733   5.127   4.224  1.00  0.00     0.001 A 
HETATM   10  C16 UNL     1      22.998   3.789   4.450  1.00  0.00     0.001 A 
HETATM   11  C17 UNL     1      24.293   3.322   4.518  1.00  0.00     0.013 A 
HETATM   12  C18 UNL     1      25.335   4.233   4.354  1.00  0.00    -0.013 A 
HETATM   13  O2  UNL     1      28.808   3.939   4.374  1.00  0.00    -0.304 OA
ENDROOT
BRANCH   1  14
HETATM   14  C1  UNL     1      29.556   1.620   4.762  1.00  0.00     0.281 C 
HETATM   15  O1  UNL     1      29.859   1.271   5.924  1.00  0.00    -0.265 OA
HETATM   16  N1  UNL     1      30.168   1.028   3.625  1.00  0.00    -0.307 N 
ATOM     17  H1  UNL     1      30.810   1.581   3.059  1.00  0.00     0.170 HD
BRANCH  16  18
HETATM   18  C2  UNL     1      29.928  -0.183   3.299  1.00  0.00     0.107 A 
HETATM   19  C3  UNL     1      29.298  -0.500   2.116  1.00  0.00     0.048 A 
HETATM   20  C4  UNL     1      29.031  -1.810   1.749  1.00  0.00     0.005 A 
HETATM   21  C5  UNL     1      29.416  -2.805   2.606  1.00  0.00     0.017 A 
HETATM   22  C6  UNL     1      30.051  -2.469   3.797  1.00  0.00     0.089 A 
HETATM   23  N2  UNL     1      30.291  -1.189   4.115  1.00  0.00    -0.352 N 
ATOM     24  H2  UNL     1      30.758  -0.973   4.996  1.00  0.00     0.166 HD
ENDBRANCH  16  18
ENDBRANCH   1  14
TORSDOF 2
ENDMDL
