MODEL 1
REMARK VINA RESULT: -7.221957263      0.000      0.000
REMARK  5 active torsions:
REMARK  status: ('A' for Active; 'I' for Inactive)
REMARK    1  A    between atoms: C2_4  and  N2_5 
REMARK    2  A    between atoms: C2_4  and  S1_16 
REMARK    3  A    between atoms: N2_5  and  C3_7 
REMARK    4  A    between atoms: S1_16  and  C10_17 
REMARK    5  A    between atoms: C10_17  and  C12_19 
ROOT
HETATM    1  C1  UNL     1      29.890   2.953   5.677  1.00  0.00     0.148 C 
HETATM    2  N1  UNL     1      29.389   1.917   4.809  1.00  0.00    -0.375 N 
ATOM      3  H1  UNL     1      29.608   0.945   5.024  1.00  0.00     0.161 HD
HETATM    4  C2  UNL     1      28.665   2.182   3.761  1.00  0.00     0.141 C 
ENDROOT
BRANCH   4   5
HETATM    5  N2  UNL     1      28.336   3.519   3.425  1.00  0.00    -0.323 N 
ATOM      6  H2  UNL     1      29.021   4.110   2.952  1.00  0.00     0.169 HD
BRANCH   5   7
HETATM    7  C3  UNL     1      27.178   3.985   3.716  1.00  0.00     0.107 A 
HETATM    8  C4  UNL     1      26.788   5.248   3.311  1.00  0.00     0.055 A 
HETATM    9  C5  UNL     1      25.537   5.743   3.628  1.00  0.00    -0.057 A 
HETATM   10  C6  UNL     1      25.136   7.103   3.183  1.00  0.00     0.048 C 
HETATM   11  C7  UNL     1      24.722   4.907   4.363  1.00  0.00     0.031 A 
HETATM   12  C8  UNL     1      25.084   3.655   4.774  1.00  0.00     0.007 A 
HETATM   13  C9  UNL     1      24.191   2.765   5.564  1.00  0.00     0.068 C 
HETATM   14  N3  UNL     1      26.330   3.229   4.428  1.00  0.00    -0.346 N 
ATOM     15  H3  UNL     1      26.629   2.299   4.720  1.00  0.00     0.167 HD
ENDBRANCH   5   7
ENDBRANCH   4   5
BRANCH   4  16
HETATM   16  S1  UNL     1      28.078   0.858   2.740  1.00  0.00    -0.089 SA
BRANCH  16  17
HETATM   17  C10 UNL     1      28.404  -0.763   3.471  1.00  0.00     0.058 C 
HETATM   18  C11 UNL     1      28.697  -1.781   2.393  1.00  0.00     0.022 C 
BRANCH  17  19
HETATM   19  C12 UNL     1      27.275  -1.169   4.383  1.00  0.00    -0.039 C 
HETATM   20  C13 UNL     1      27.696  -0.814   5.796  1.00  0.00     0.015 C 
HETATM   21  C14 UNL     1      26.029  -0.381   4.039  1.00  0.00     0.015 C 
HETATM   22  C15 UNL     1      26.947  -2.626   4.290  1.00  0.00     0.015 C 
ENDBRANCH  17  19
ENDBRANCH  16  17
ENDBRANCH   4  16
TORSDOF 5
ENDMDL
MODEL 2
REMARK VINA RESULT: -7.098239190      1.459      5.812
REMARK  5 active torsions:
REMARK  status: ('A' for Active; 'I' for Inactive)
REMARK    1  A    between atoms: C2_4  and  N2_5 
REMARK    2  A    between atoms: C2_4  and  S1_16 
REMARK    3  A    between atoms: N2_5  and  C3_7 
REMARK    4  A    between atoms: S1_16  and  C10_17 
REMARK    5  A    between atoms: C10_17  and  C12_19 
ROOT
HETATM    1  C1  UNL     1      29.755   3.265   5.541  1.00  0.00     0.148 C 
HETATM    2  N1  UNL     1      28.749   3.580   4.558  1.00  0.00    -0.375 N 
ATOM      3  H1  UNL     1      28.836   4.444   4.023  1.00  0.00     0.161 HD
HETATM    4  C2  UNL     1      27.735   2.798   4.330  1.00  0.00     0.141 C 
ENDROOT
BRANCH   4   5
HETATM    5  N2  UNL     1      27.576   1.587   5.049  1.00  0.00    -0.323 N 
ATOM      6  H2  UNL     1      27.298   1.610   6.031  1.00  0.00     0.169 HD
BRANCH   5   7
HETATM    7  C3  UNL     1      27.781   0.464   4.465  1.00  0.00     0.107 A 
HETATM    8  C4  UNL     1      27.046  -0.660   4.790  1.00  0.00     0.055 A 
HETATM    9  C5  UNL     1      27.273  -1.867   4.155  1.00  0.00    -0.057 A 
HETATM   10  C6  UNL     1      26.472  -3.065   4.518  1.00  0.00     0.048 C 
HETATM   11  C7  UNL     1      28.266  -1.871   3.196  1.00  0.00     0.031 A 
HETATM   12  C8  UNL     1      29.005  -0.773   2.859  1.00  0.00     0.007 A 
HETATM   13  C9  UNL     1      30.071  -0.795   1.820  1.00  0.00     0.068 C 
HETATM   14  N3  UNL     1      28.730   0.384   3.521  1.00  0.00    -0.346 N 
ATOM     15  H3  UNL     1      29.265   1.220   3.291  1.00  0.00     0.167 HD
ENDBRANCH   5   7
ENDBRANCH   4   5
BRANCH   4  16
HETATM   16  S1  UNL     1      26.537   3.246   3.102  1.00  0.00    -0.089 SA
BRANCH  16  17
HETATM   17  C10 UNL     1      25.175   4.209   3.799  1.00  0.00     0.058 C 
HETATM   18  C11 UNL     1      25.705   5.292   4.710  1.00  0.00     0.022 C 
BRANCH  17  19
HETATM   19  C12 UNL     1      24.174   3.303   4.469  1.00  0.00    -0.039 C 
HETATM   20  C13 UNL     1      22.807   3.930   4.272  1.00  0.00     0.015 C 
HETATM   21  C14 UNL     1      24.182   1.945   3.799  1.00  0.00     0.015 C 
HETATM   22  C15 UNL     1      24.450   3.107   5.927  1.00  0.00     0.015 C 
ENDBRANCH  17  19
ENDBRANCH  16  17
ENDBRANCH   4  16
TORSDOF 5
ENDMDL
MODEL 3
REMARK VINA RESULT: -7.024251416      1.599      5.568
REMARK  5 active torsions:
REMARK  status: ('A' for Active; 'I' for Inactive)
REMARK    1  A    between atoms: C2_4  and  N2_5 
REMARK    2  A    between atoms: C2_4  and  S1_16 
REMARK    3  A    between atoms: N2_5  and  C3_7 
REMARK    4  A    between atoms: S1_16  and  C10_17 
REMARK    5  A    between atoms: C10_17  and  C12_19 
ROOT
HETATM    1  C1  UNL     1      29.737   3.264   5.555  1.00  0.00     0.148 C 
HETATM    2  N1  UNL     1      28.734   3.594   4.573  1.00  0.00    -0.375 N 
ATOM      3  H1  UNL     1      28.813   4.474   4.065  1.00  0.00     0.161 HD
HETATM    4  C2  UNL     1      27.732   2.806   4.315  1.00  0.00     0.141 C 
ENDROOT
BRANCH   4   5
HETATM    5  N2  UNL     1      27.584   1.573   4.998  1.00  0.00    -0.323 N 
ATOM      6  H2  UNL     1      27.274   1.561   5.970  1.00  0.00     0.169 HD
BRANCH   5   7
HETATM    7  C3  UNL     1      27.839   0.471   4.392  1.00  0.00     0.107 A 
HETATM    8  C4  UNL     1      28.814   0.397   3.416  1.00  0.00     0.055 A 
HETATM    9  C5  UNL     1      29.083  -0.795   2.768  1.00  0.00    -0.057 A 
HETATM   10  C6  UNL     1      30.136  -0.854   1.721  1.00  0.00     0.048 C 
HETATM   11  C7  UNL     1      28.326  -1.881   3.156  1.00  0.00     0.031 A 
HETATM   12  C8  UNL     1      27.358  -1.832   4.118  1.00  0.00     0.007 A 
HETATM   13  C9  UNL     1      26.552  -3.015   4.526  1.00  0.00     0.068 C 
HETATM   14  N3  UNL     1      27.143  -0.628   4.717  1.00  0.00    -0.346 N 
ATOM     15  H3  UNL     1      26.427  -0.560   5.440  1.00  0.00     0.167 HD
ENDBRANCH   5   7
ENDBRANCH   4   5
BRANCH   4  16
HETATM   16  S1  UNL     1      26.537   3.273   3.091  1.00  0.00    -0.089 SA
BRANCH  16  17
HETATM   17  C10 UNL     1      25.178   4.232   3.798  1.00  0.00     0.058 C 
HETATM   18  C11 UNL     1      25.710   5.310   4.714  1.00  0.00     0.022 C 
BRANCH  17  19
HETATM   19  C12 UNL     1      24.179   3.322   4.466  1.00  0.00    -0.039 C 
HETATM   20  C13 UNL     1      22.811   3.945   4.269  1.00  0.00     0.015 C 
HETATM   21  C14 UNL     1      24.192   1.965   3.795  1.00  0.00     0.015 C 
HETATM   22  C15 UNL     1      24.454   3.126   5.924  1.00  0.00     0.015 C 
ENDBRANCH  17  19
ENDBRANCH  16  17
ENDBRANCH   4  16
TORSDOF 5
ENDMDL
MODEL 4
REMARK VINA RESULT: -6.987596957      0.604      1.969
REMARK  5 active torsions:
REMARK  status: ('A' for Active; 'I' for Inactive)
REMARK    1  A    between atoms: C2_4  and  N2_5 
REMARK    2  A    between atoms: C2_4  and  S1_16 
REMARK    3  A    between atoms: N2_5  and  C3_7 
REMARK    4  A    between atoms: S1_16  and  C10_17 
REMARK    5  A    between atoms: C10_17  and  C12_19 
ROOT
HETATM    1  C1  UNL     1      29.905   2.942   5.651  1.00  0.00     0.148 C 
HETATM    2  N1  UNL     1      29.428   1.903   4.773  1.00  0.00    -0.375 N 
ATOM      3  H1  UNL     1      29.682   0.936   4.971  1.00  0.00     0.161 HD
HETATM    4  C2  UNL     1      28.684   2.159   3.736  1.00  0.00     0.141 C 
ENDROOT
BRANCH   4   5
HETATM    5  N2  UNL     1      28.308   3.489   3.424  1.00  0.00    -0.323 N 
ATOM      6  H2  UNL     1      28.965   4.107   2.948  1.00  0.00     0.169 HD
BRANCH   5   7
HETATM    7  C3  UNL     1      27.140   3.914   3.741  1.00  0.00     0.107 A 
HETATM    8  C4  UNL     1      26.258   3.127   4.456  1.00  0.00     0.055 A 
HETATM    9  C5  UNL     1      25.000   3.592   4.794  1.00  0.00    -0.057 A 
HETATM   10  C6  UNL     1      24.066   2.731   5.564  1.00  0.00     0.048 C 
HETATM   11  C7  UNL     1      24.694   4.871   4.375  1.00  0.00     0.031 A 
HETATM   12  C8  UNL     1      25.549   5.668   3.668  1.00  0.00     0.007 A 
HETATM   13  C9  UNL     1      25.203   7.046   3.226  1.00  0.00     0.068 C 
HETATM   14  N3  UNL     1      26.772   5.149   3.368  1.00  0.00    -0.346 N 
ATOM     15  H3  UNL     1      27.432   5.720   2.842  1.00  0.00     0.167 HD
ENDBRANCH   5   7
ENDBRANCH   4   5
BRANCH   4  16
HETATM   16  S1  UNL     1      28.130   0.831   2.702  1.00  0.00    -0.089 SA
BRANCH  16  17
HETATM   17  C10 UNL     1      28.419  -0.787   3.456  1.00  0.00     0.058 C 
HETATM   18  C11 UNL     1      28.737  -1.816   2.396  1.00  0.00     0.022 C 
BRANCH  17  19
HETATM   19  C12 UNL     1      27.259  -1.176   4.335  1.00  0.00    -0.039 C 
HETATM   20  C13 UNL     1      27.617  -0.766   5.750  1.00  0.00     0.015 C 
HETATM   21  C14 UNL     1      26.018  -0.418   3.913  1.00  0.00     0.015 C 
HETATM   22  C15 UNL     1      26.954  -2.641   4.282  1.00  0.00     0.015 C 
ENDBRANCH  17  19
ENDBRANCH  16  17
ENDBRANCH   4  16
TORSDOF 5
ENDMDL
MODEL 5
REMARK VINA RESULT: -6.940554439      0.477      1.334
REMARK  5 active torsions:
REMARK  status: ('A' for Active; 'I' for Inactive)
REMARK    1  A    between atoms: C2_4  and  N2_5 
REMARK    2  A    between atoms: C2_4  and  S1_16 
REMARK    3  A    between atoms: N2_5  and  C3_7 
REMARK    4  A    between atoms: S1_16  and  C10_17 
REMARK    5  A    between atoms: C10_17  and  C12_19 
ROOT
HETATM    1  C1  UNL     1      29.705   2.560   5.591  1.00  0.00     0.148 C 
HETATM    2  N1  UNL     1      29.063   1.615   4.712  1.00  0.00    -0.375 N 
ATOM      3  H1  UNL     1      29.165   0.618   4.901  1.00  0.00     0.161 HD
HETATM    4  C2  UNL     1      28.359   1.992   3.685  1.00  0.00     0.141 C 
ENDROOT
BRANCH   4   5
HETATM    5  N2  UNL     1      28.192   3.367   3.385  1.00  0.00    -0.323 N 
ATOM      6  H2  UNL     1      28.944   3.886   2.930  1.00  0.00     0.169 HD
BRANCH   5   7
HETATM    7  C3  UNL     1      27.095   3.959   3.685  1.00  0.00     0.107 A 
HETATM    8  C4  UNL     1      26.792   5.210   3.184  1.00  0.00     0.055 A 
HETATM    9  C5  UNL     1      25.606   5.841   3.512  1.00  0.00    -0.057 A 
HETATM   10  C6  UNL     1      25.298   7.187   2.962  1.00  0.00     0.048 C 
HETATM   11  C7  UNL     1      24.764   5.149   4.359  1.00  0.00     0.031 A 
HETATM   12  C8  UNL     1      25.042   3.911   4.867  1.00  0.00     0.007 A 
HETATM   13  C9  UNL     1      24.122   3.177   5.777  1.00  0.00     0.068 C 
HETATM   14  N3  UNL     1      26.226   3.346   4.503  1.00  0.00    -0.346 N 
ATOM     15  H3  UNL     1      26.461   2.423   4.866  1.00  0.00     0.167 HD
ENDBRANCH   5   7
ENDBRANCH   4   5
BRANCH   4  16
HETATM   16  S1  UNL     1      27.595   0.775   2.647  1.00  0.00    -0.089 SA
BRANCH  16  17
HETATM   17  C10 UNL     1      26.607  -0.405   3.595  1.00  0.00     0.058 C 
HETATM   18  C11 UNL     1      25.782   0.314   4.638  1.00  0.00     0.022 C 
BRANCH  17  19
HETATM   19  C12 UNL     1      27.483  -1.488   4.171  1.00  0.00    -0.039 C 
HETATM   20  C13 UNL     1      27.925  -1.019   5.543  1.00  0.00     0.015 C 
HETATM   21  C14 UNL     1      26.683  -2.763   4.331  1.00  0.00     0.015 C 
HETATM   22  C15 UNL     1      28.674  -1.788   3.316  1.00  0.00     0.015 C 
ENDBRANCH  17  19
ENDBRANCH  16  17
ENDBRANCH   4  16
TORSDOF 5
ENDMDL
