MODEL 1
REMARK VINA RESULT: -8.376344228      0.000      0.000
REMARK  4 active torsions:
REMARK  status: ('A' for Active; 'I' for Inactive)
REMARK    1  A    between atoms: O1_1  and  C1_3 
REMARK    2  A    between atoms: C6_8  and  C7_9 
REMARK    3  A    between atoms: C12_14  and  N1_15 
REMARK    4  A    between atoms: C17_20  and  N2_21 
ROOT
HETATM    1  C1  UNL     1      24.831   5.690   3.846  1.00  0.00     0.078 A 
HETATM    2  C2  UNL     1      23.727   5.143   4.461  1.00  0.00     0.037 A 
HETATM    3  C3  UNL     1      23.829   3.962   5.146  1.00  0.00     0.004 A 
HETATM    4  C4  UNL     1      25.082   3.347   5.193  1.00  0.00     0.015 A 
HETATM    5  C5  UNL     1      26.209   3.857   4.594  1.00  0.00     0.006 A 
HETATM    6  C6  UNL     1      27.533   3.506   4.463  1.00  0.00     0.064 A 
HETATM    7  N2  UNL     1      28.192   4.502   3.693  1.00  0.00    -0.305 N 
HETATM    8  C18 UNL     1      27.272   5.434   3.369  1.00  0.00     0.114 A 
HETATM    9  C19 UNL     1      26.066   5.048   3.914  1.00  0.00     0.026 A 
ENDROOT
BRANCH   1  10
HETATM   10  O1  UNL     1      24.695   6.888   3.159  1.00  0.00    -0.360 OA
ATOM     11  H1  UNL     1      25.460   7.436   3.031  1.00  0.00     0.217 HD
ENDBRANCH   1  10
BRANCH   6  12
HETATM   12  C7  UNL     1      28.231   2.416   4.940  1.00  0.00     0.019 A 
HETATM   13  C8  UNL     1      29.309   2.521   5.747  1.00  0.00     0.016 A 
HETATM   14  C9  UNL     1      29.981   1.379   6.202  1.00  0.00     0.001 A 
HETATM   15  C10 UNL     1      29.558   0.153   5.837  1.00  0.00     0.002 A 
HETATM   16  C11 UNL     1      28.450   0.009   5.005  1.00  0.00     0.031 A 
HETATM   17  C12 UNL     1      27.789   1.135   4.558  1.00  0.00     0.053 A 
BRANCH  17  18
HETATM   18  N1  UNL     1      26.706   0.999   3.744  1.00  0.00    -0.307 N 
HETATM   19  C13 UNL     1      25.608   0.438   4.238  1.00  0.00     0.099 A 
HETATM   20  C14 UNL     1      24.492   0.298   3.403  1.00  0.00     0.018 A 
HETATM   21  C15 UNL     1      24.518   0.717   2.123  1.00  0.00     0.005 A 
HETATM   22  C16 UNL     1      25.651   1.297   1.606  1.00  0.00     0.050 A 
HETATM   23  C17 UNL     1      26.747   1.425   2.459  1.00  0.00     0.118 A 
ENDBRANCH  17  18
ENDBRANCH   6  12
TORSDOF 4
ENDMDL
MODEL 2
REMARK VINA RESULT: -7.490020756      3.070      6.323
REMARK  4 active torsions:
REMARK  status: ('A' for Active; 'I' for Inactive)
REMARK    1  A    between atoms: O1_1  and  C1_3 
REMARK    2  A    between atoms: C6_8  and  C7_9 
REMARK    3  A    between atoms: C12_14  and  N1_15 
REMARK    4  A    between atoms: C17_20  and  N2_21 
ROOT
HETATM    1  C1  UNL     1      29.109  -2.262   3.350  1.00  0.00     0.078 A 
HETATM    2  C2  UNL     1      29.814  -1.623   2.356  1.00  0.00     0.037 A 
HETATM    3  C3  UNL     1      29.422  -0.389   1.911  1.00  0.00     0.004 A 
HETATM    4  C4  UNL     1      28.292   0.183   2.501  1.00  0.00     0.015 A 
HETATM    5  C5  UNL     1      27.560  -0.419   3.495  1.00  0.00     0.006 A 
HETATM    6  C6  UNL     1      26.446  -0.129   4.249  1.00  0.00     0.064 A 
HETATM    7  N2  UNL     1      26.203  -1.214   5.134  1.00  0.00    -0.305 N 
HETATM    8  C18 UNL     1      27.159  -2.138   4.911  1.00  0.00     0.114 A 
HETATM    9  C19 UNL     1      27.986  -1.661   3.917  1.00  0.00     0.026 A 
ENDROOT
BRANCH   1  10
HETATM   10  O1  UNL     1      29.532  -3.513   3.780  1.00  0.00    -0.360 OA
ATOM     11  H1  UNL     1      29.421  -3.749   4.693  1.00  0.00     0.217 HD
ENDBRANCH   1  10
BRANCH   6  12
HETATM   12  C7  UNL     1      25.617   0.975   4.252  1.00  0.00     0.019 A 
HETATM   13  C8  UNL     1      24.316   0.926   3.893  1.00  0.00     0.016 A 
HETATM   14  C9  UNL     1      23.522   2.079   3.915  1.00  0.00     0.001 A 
HETATM   15  C10 UNL     1      24.047   3.259   4.296  1.00  0.00     0.002 A 
HETATM   16  C11 UNL     1      25.386   3.344   4.672  1.00  0.00     0.031 A 
HETATM   17  C12 UNL     1      26.169   2.207   4.651  1.00  0.00     0.053 A 
BRANCH  17  18
HETATM   18  N1  UNL     1      27.478   2.286   5.017  1.00  0.00    -0.307 N 
HETATM   19  C13 UNL     1      28.264   3.145   4.379  1.00  0.00     0.099 A 
HETATM   20  C14 UNL     1      29.611   3.228   4.755  1.00  0.00     0.018 A 
HETATM   21  C15 UNL     1      30.112   2.459   5.740  1.00  0.00     0.005 A 
HETATM   22  C16 UNL     1      29.303   1.569   6.405  1.00  0.00     0.050 A 
HETATM   23  C17 UNL     1      27.968   1.506   6.011  1.00  0.00     0.118 A 
ENDBRANCH  17  18
ENDBRANCH   6  12
TORSDOF 4
ENDMDL
MODEL 3
REMARK VINA RESULT: -6.977593413      2.536      4.941
REMARK  4 active torsions:
REMARK  status: ('A' for Active; 'I' for Inactive)
REMARK    1  A    between atoms: O1_1  and  C1_3 
REMARK    2  A    between atoms: C6_8  and  C7_9 
REMARK    3  A    between atoms: C12_14  and  N1_15 
REMARK    4  A    between atoms: C17_20  and  N2_21 
ROOT
HETATM    1  C1  UNL     1      29.724  -0.146   4.138  1.00  0.00     0.078 A 
HETATM    2  C2  UNL     1      29.271  -0.646   2.938  1.00  0.00     0.037 A 
HETATM    3  C3  UNL     1      28.426   0.093   2.154  1.00  0.00     0.004 A 
HETATM    4  C4  UNL     1      28.048   1.355   2.619  1.00  0.00     0.015 A 
HETATM    5  C5  UNL     1      28.476   1.891   3.809  1.00  0.00     0.006 A 
HETATM    6  C6  UNL     1      28.294   3.056   4.518  1.00  0.00     0.064 A 
HETATM    7  N2  UNL     1      29.047   2.978   5.721  1.00  0.00    -0.305 N 
HETATM    8  C18 UNL     1      29.670   1.782   5.728  1.00  0.00     0.114 A 
HETATM    9  C19 UNL     1      29.327   1.118   4.570  1.00  0.00     0.026 A 
ENDROOT
BRANCH   1  10
HETATM   10  O1  UNL     1      30.581  -0.920   4.910  1.00  0.00    -0.360 OA
ATOM     11  H1  UNL     1      31.366  -0.522   5.265  1.00  0.00     0.217 HD
ENDBRANCH   1  10
BRANCH   6  12
HETATM   12  C7  UNL     1      27.545   4.180   4.235  1.00  0.00     0.019 A 
HETATM   13  C8  UNL     1      28.057   5.430   4.228  1.00  0.00     0.016 A 
HETATM   14  C9  UNL     1      27.250   6.536   3.933  1.00  0.00     0.001 A 
HETATM   15  C10 UNL     1      25.944   6.367   3.650  1.00  0.00     0.002 A 
HETATM   16  C11 UNL     1      25.384   5.091   3.649  1.00  0.00     0.031 A 
HETATM   17  C12 UNL     1      26.180   4.002   3.939  1.00  0.00     0.053 A 
BRANCH  17  18
HETATM   18  N1  UNL     1      25.636   2.754   3.940  1.00  0.00    -0.307 N 
HETATM   19  C13 UNL     1      25.528   2.109   5.096  1.00  0.00     0.099 A 
HETATM   20  C14 UNL     1      24.968   0.825   5.098  1.00  0.00     0.018 A 
HETATM   21  C15 UNL     1      24.544   0.244   3.960  1.00  0.00     0.005 A 
HETATM   22  C16 UNL     1      24.653   0.906   2.761  1.00  0.00     0.050 A 
HETATM   23  C17 UNL     1      25.214   2.182   2.786  1.00  0.00     0.118 A 
ENDBRANCH  17  18
ENDBRANCH   6  12
TORSDOF 4
ENDMDL
MODEL 4
REMARK VINA RESULT: -6.977518847      2.489      4.866
REMARK  4 active torsions:
REMARK  status: ('A' for Active; 'I' for Inactive)
REMARK    1  A    between atoms: O1_1  and  C1_3 
REMARK    2  A    between atoms: C6_8  and  C7_9 
REMARK    3  A    between atoms: C12_14  and  N1_15 
REMARK    4  A    between atoms: C17_20  and  N2_21 
ROOT
HETATM    1  C1  UNL     1      29.822  -0.101   5.068  1.00  0.00     0.078 A 
HETATM    2  C2  UNL     1      29.742  -0.078   6.443  1.00  0.00     0.037 A 
HETATM    3  C3  UNL     1      29.108   0.953   7.082  1.00  0.00     0.004 A 
HETATM    4  C4  UNL     1      28.555   1.963   6.292  1.00  0.00     0.015 A 
HETATM    5  C5  UNL     1      28.611   1.979   4.920  1.00  0.00     0.006 A 
HETATM    6  C6  UNL     1      28.183   2.796   3.898  1.00  0.00     0.064 A 
HETATM    7  N2  UNL     1      28.580   2.220   2.661  1.00  0.00    -0.305 N 
HETATM    8  C18 UNL     1      29.236   1.075   2.942  1.00  0.00     0.114 A 
HETATM    9  C19 UNL     1      29.258   0.924   4.312  1.00  0.00     0.026 A 
ENDROOT
BRANCH   1  10
HETATM   10  O1  UNL     1      30.472  -1.161   4.449  1.00  0.00    -0.360 OA
ATOM     11  H1  UNL     1      30.655  -1.109   3.519  1.00  0.00     0.217 HD
ENDBRANCH   1  10
BRANCH   6  12
HETATM   12  C7  UNL     1      27.485   3.986   3.923  1.00  0.00     0.019 A 
HETATM   13  C8  UNL     1      28.080   5.192   4.055  1.00  0.00     0.016 A 
HETATM   14  C9  UNL     1      27.321   6.368   4.074  1.00  0.00     0.001 A 
HETATM   15  C10 UNL     1      25.980   6.313   3.961  1.00  0.00     0.002 A 
HETATM   16  C11 UNL     1      25.335   5.086   3.825  1.00  0.00     0.031 A 
HETATM   17  C12 UNL     1      26.084   3.927   3.806  1.00  0.00     0.053 A 
BRANCH  17  18
HETATM   18  N1  UNL     1      25.457   2.725   3.673  1.00  0.00    -0.307 N 
HETATM   19  C13 UNL     1      24.827   2.219   4.727  1.00  0.00     0.099 A 
HETATM   20  C14 UNL     1      24.181   0.983   4.593  1.00  0.00     0.018 A 
HETATM   21  C15 UNL     1      24.191   0.311   3.426  1.00  0.00     0.005 A 
HETATM   22  C16 UNL     1      24.840   0.830   2.332  1.00  0.00     0.050 A 
HETATM   23  C17 UNL     1      25.475   2.061   2.492  1.00  0.00     0.118 A 
ENDBRANCH  17  18
ENDBRANCH   6  12
TORSDOF 4
ENDMDL
MODEL 5
REMARK VINA RESULT: -6.844684512      2.493      4.946
REMARK  4 active torsions:
REMARK  status: ('A' for Active; 'I' for Inactive)
REMARK    1  A    between atoms: O1_1  and  C1_3 
REMARK    2  A    between atoms: C6_8  and  C7_9 
REMARK    3  A    between atoms: C12_14  and  N1_15 
REMARK    4  A    between atoms: C17_20  and  N2_21 
ROOT
HETATM    1  C1  UNL     1      29.805  -0.125   5.047  1.00  0.00     0.078 A 
HETATM    2  C2  UNL     1      29.700  -0.122   6.420  1.00  0.00     0.037 A 
HETATM    3  C3  UNL     1      29.054   0.899   7.064  1.00  0.00     0.004 A 
HETATM    4  C4  UNL     1      28.515   1.921   6.280  1.00  0.00     0.015 A 
HETATM    5  C5  UNL     1      28.596   1.958   4.909  1.00  0.00     0.006 A 
HETATM    6  C6  UNL     1      28.185   2.790   3.893  1.00  0.00     0.064 A 
HETATM    7  N2  UNL     1      28.604   2.233   2.654  1.00  0.00    -0.305 N 
HETATM    8  C18 UNL     1      29.255   1.084   2.929  1.00  0.00     0.114 A 
HETATM    9  C19 UNL     1      29.254   0.912   4.296  1.00  0.00     0.026 A 
ENDROOT
BRANCH   1  10
HETATM   10  O1  UNL     1      30.466  -1.174   4.424  1.00  0.00    -0.360 OA
ATOM     11  H1  UNL     1      30.617  -1.977   4.908  1.00  0.00     0.217 HD
ENDBRANCH   1  10
BRANCH   6  12
HETATM   12  C7  UNL     1      27.486   3.979   3.923  1.00  0.00     0.019 A 
HETATM   13  C8  UNL     1      28.080   5.184   4.069  1.00  0.00     0.016 A 
HETATM   14  C9  UNL     1      27.320   6.360   4.093  1.00  0.00     0.001 A 
HETATM   15  C10 UNL     1      25.980   6.306   3.971  1.00  0.00     0.002 A 
HETATM   16  C11 UNL     1      25.336   5.079   3.821  1.00  0.00     0.031 A 
HETATM   17  C12 UNL     1      26.086   3.920   3.796  1.00  0.00     0.053 A 
BRANCH  17  18
HETATM   18  N1  UNL     1      25.461   2.720   3.649  1.00  0.00    -0.307 N 
HETATM   19  C13 UNL     1      25.537   2.104   2.474  1.00  0.00     0.099 A 
HETATM   20  C14 UNL     1      24.896   0.868   2.321  1.00  0.00     0.018 A 
HETATM   21  C15 UNL     1      24.211   0.305   3.334  1.00  0.00     0.005 A 
HETATM   22  C16 UNL     1      24.128   0.936   4.552  1.00  0.00     0.050 A 
HETATM   23  C17 UNL     1      24.776   2.164   4.678  1.00  0.00     0.118 A 
ENDBRANCH  17  18
ENDBRANCH   6  12
TORSDOF 4
ENDMDL
