MODEL 1
REMARK VINA RESULT: -9.558443809      0.000      0.000
REMARK  15 active torsions:
REMARK  status: ('A' for Active; 'I' for Inactive)
REMARK    1  A    between atoms: N1_1  and  C1_4 
REMARK       I    between atoms: N4_13  and  C5_14 
REMARK    2  A    between atoms: C5_14  and  C6_16 
REMARK    3  A    between atoms: C6_16  and  C7_17 
REMARK    4  A    between atoms: C7_17  and  C8_18 
REMARK    5  A    between atoms: C8_18  and  C9_19 
REMARK    6  A    between atoms: C9_19  and  C10_20 
REMARK    7  A    between atoms: C10_20  and  C11_21 
REMARK    8  A    between atoms: C11_21  and  C12_22 
REMARK    9  A    between atoms: C12_22  and  N5_23 
REMARK   10  A    between atoms: N6_25  and  C13_26 
REMARK   11  A    between atoms: C16_29  and  C17_30 
REMARK   12  A    between atoms: C18_31  and  O4_32 
REMARK   13  A    between atoms: C21_40  and  N8_41 
REMARK   14  A    between atoms: C23_45  and  C24_46 
REMARK   15  A    between atoms: N9_53  and  N10_54 
ROOT
HETATM    1  C10 UNL     1      16.372  32.829  28.707  1.00  0.00     0.005 C 
ENDROOT
BRANCH   1   2
HETATM    2  C9  UNL     1      15.077  32.411  29.310  1.00  0.00     0.000 C 
BRANCH   2   3
HETATM    3  C8  UNL     1      14.084  31.862  28.286  1.00  0.00     0.000 C 
BRANCH   3   4
HETATM    4  C7  UNL     1      13.680  30.450  28.738  1.00  0.00     0.009 C 
BRANCH   4   5
HETATM    5  C6  UNL     1      14.423  29.448  27.931  1.00  0.00     0.104 C 
BRANCH   5   6
HETATM    6  C5  UNL     1      13.557  28.722  26.942  1.00  0.00     0.232 C 
HETATM    7  N4  UNL     1      14.036  28.191  25.733  1.00  0.00    -0.226 N 
HETATM    8  C4  UNL     1      13.201  27.522  24.888  1.00  0.00     0.168 A 
HETATM    9  C25 UNL     1      15.330  28.330  25.358  1.00  0.00     0.326 A 
HETATM   10  C3  UNL     1      13.680  27.003  23.678  1.00  0.00     0.173 A 
HETATM   11  N3  UNL     1      11.909  27.306  25.127  1.00  0.00    -0.174 N 
HETATM   12  C2  UNL     1      12.828  26.324  22.831  1.00  0.00     0.292 A 
HETATM   13  N9  UNL     1      14.963  27.167  23.356  1.00  0.00    -0.213 N 
HETATM   14  N2  UNL     1      11.536  26.143  23.135  1.00  0.00    -0.154 N 
HETATM   15  O1  UNL     1      13.304  25.878  21.757  1.00  0.00    -0.265 OA
HETATM   16  C1  UNL     1      11.069  26.631  24.281  1.00  0.00     0.680 A 
ATOM     17  H2  UNL     1      10.920  25.639  22.496  1.00  0.00     0.187 HD
HETATM   18  C26 UNL     1      15.809  27.811  24.150  1.00  0.00     0.335 A 
HETATM   19  O12 UNL     1      17.037  27.974  23.852  1.00  0.00    -0.260 OA
ATOM     20  H3  UNL     1      11.518  27.666  25.997  1.00  0.00     0.186 HD
HETATM   21  O11 UNL     1      16.184  28.926  26.058  1.00  0.00    -0.261 OA
HETATM   22  O2  UNL     1      12.338  28.606  27.262  1.00  0.00    -0.273 OA
BRANCH  16  23
HETATM   23  N1  UNL     1       9.835  26.479  24.610  1.00  0.00    -0.234 N 
ATOM     24  H12 UNL     1       9.214  27.288  24.602  1.00  0.00     0.174 HD
ATOM     25  H11 UNL     1       9.472  25.564  24.875  1.00  0.00     0.174 HD
ENDBRANCH  16  23
BRANCH  13  26
HETATM   26  N10 UNL     1      15.448  26.648  22.146  1.00  0.00    -0.335 N 
ATOM     27 2H10 UNL     1      14.891  25.944  21.662  1.00  0.00     0.177 HD
ATOM     28 1H10 UNL     1      16.338  26.980  21.774  1.00  0.00     0.177 HD
ENDBRANCH  13  26
ENDBRANCH   5   6
ENDBRANCH   4   5
ENDBRANCH   3   4
ENDBRANCH   2   3
ENDBRANCH   1   2
BRANCH   1  29
HETATM   29  C11 UNL     1      16.664  32.142  27.389  1.00  0.00     0.047 C 
BRANCH  29  30
HETATM   30  C12 UNL     1      17.542  33.054  26.537  1.00  0.00     0.093 C 
BRANCH  30  31
HETATM   31  N5  UNL     1      16.788  33.912  25.739  1.00  0.00    -0.232 N 
HETATM   32  O3  UNL     1      15.475  33.771  25.674  1.00  0.00    -0.152 OA
HETATM   33  N6  UNL     1      15.158  33.851  24.314  1.00  0.00    -0.229 N 
HETATM   34  C22 UNL     1      15.965  34.962  23.892  1.00  0.00     0.197 C 
HETATM   35  C23 UNL     1      17.301  34.522  24.592  1.00  0.00     0.236 C 
BRANCH  33  36
HETATM   36  C13 UNL     1      14.272  32.960  23.701  1.00  0.00     0.092 A 
HETATM   37  C14 UNL     1      14.696  31.620  23.579  1.00  0.00     0.035 A 
HETATM   38  C15 UNL     1      13.918  30.658  22.988  1.00  0.00     0.015 A 
HETATM   39  C16 UNL     1      12.675  30.977  22.487  1.00  0.00    -0.013 A 
HETATM   40  C20 UNL     1      12.263  32.273  22.606  1.00  0.00     0.051 A 
HETATM   41  C21 UNL     1      13.065  33.265  23.214  1.00  0.00     0.132 A 
BRANCH  39  42
HETATM   42  C17 UNL     1      11.833  29.949  21.847  1.00  0.00     0.104 A 
HETATM   43  C18 UNL     1      10.700  29.368  22.357  1.00  0.00     0.221 A 
HETATM   44  O5  UNL     1      10.227  28.492  21.487  1.00  0.00    -0.209 OA
HETATM   45  N7  UNL     1      11.009  28.493  20.454  1.00  0.00    -0.222 N 
HETATM   46  C19 UNL     1      12.028  29.376  20.612  1.00  0.00     0.281 A 
ATOM     47  H7  UNL     1      10.876  27.907  19.629  1.00  0.00     0.198 HD
HETATM   48  O6  UNL     1      12.920  29.580  19.777  1.00  0.00    -0.265 OA
BRANCH  43  49
HETATM   49  O4  UNL     1      10.154  29.671  23.597  1.00  0.00    -0.339 OA
ATOM     50  H4  UNL     1       9.224  29.657  23.791  1.00  0.00     0.220 HD
ENDBRANCH  43  49
ENDBRANCH  39  42
BRANCH  41  51
HETATM   51  N8  UNL     1      12.476  34.526  23.278  1.00  0.00    -0.113 N 
HETATM   52  O7  UNL     1      11.754  34.808  24.273  1.00  0.00    -0.532 OA
HETATM   53  O8  UNL     1      12.618  35.487  22.358  1.00  0.00    -0.532 OA
ENDBRANCH  41  51
ENDBRANCH  33  36
BRANCH  35  54
HETATM   54  C24 UNL     1      18.074  33.739  23.638  1.00  0.00     0.201 C 
HETATM   55  O9  UNL     1      17.961  32.507  23.546  1.00  0.00    -0.646 OA
HETATM   56  O10 UNL     1      18.967  34.392  22.804  1.00  0.00    -0.646 OA
ENDBRANCH  35  54
ENDBRANCH  30  31
ENDBRANCH  29  30
ENDBRANCH   1  29
TORSDOF 15
ENDMDL
MODEL 2
REMARK VINA RESULT: -9.538881500      2.396      4.382
REMARK  15 active torsions:
REMARK  status: ('A' for Active; 'I' for Inactive)
REMARK    1  A    between atoms: N1_1  and  C1_4 
REMARK       I    between atoms: N4_13  and  C5_14 
REMARK    2  A    between atoms: C5_14  and  C6_16 
REMARK    3  A    between atoms: C6_16  and  C7_17 
REMARK    4  A    between atoms: C7_17  and  C8_18 
REMARK    5  A    between atoms: C8_18  and  C9_19 
REMARK    6  A    between atoms: C9_19  and  C10_20 
REMARK    7  A    between atoms: C10_20  and  C11_21 
REMARK    8  A    between atoms: C11_21  and  C12_22 
REMARK    9  A    between atoms: C12_22  and  N5_23 
REMARK   10  A    between atoms: N6_25  and  C13_26 
REMARK   11  A    between atoms: C16_29  and  C17_30 
REMARK   12  A    between atoms: C18_31  and  O4_32 
REMARK   13  A    between atoms: C21_40  and  N8_41 
REMARK   14  A    between atoms: C23_45  and  C24_46 
REMARK   15  A    between atoms: N9_53  and  N10_54 
ROOT
HETATM    1  C10 UNL     1      17.418  34.132  26.040  1.00  0.00     0.005 C 
ENDROOT
BRANCH   1   2
HETATM    2  C9  UNL     1      17.135  34.071  24.580  1.00  0.00     0.000 C 
BRANCH   2   3
HETATM    3  C8  UNL     1      15.647  33.943  24.257  1.00  0.00     0.000 C 
BRANCH   3   4
HETATM    4  C7  UNL     1      15.459  32.666  23.424  1.00  0.00     0.009 C 
BRANCH   4   5
HETATM    5  C6  UNL     1      14.835  31.617  24.273  1.00  0.00     0.104 C 
BRANCH   5   6
HETATM    6  C5  UNL     1      14.163  30.533  23.480  1.00  0.00     0.232 C 
HETATM    7  N4  UNL     1      14.490  29.172  23.592  1.00  0.00    -0.226 N 
HETATM    8  C4  UNL     1      13.825  28.235  22.859  1.00  0.00     0.168 A 
HETATM    9  C25 UNL     1      15.475  28.742  24.416  1.00  0.00     0.326 A 
HETATM   10  C3  UNL     1      14.160  26.879  22.966  1.00  0.00     0.173 A 
HETATM   11  N3  UNL     1      12.833  28.509  22.013  1.00  0.00    -0.174 N 
HETATM   12  C2  UNL     1      13.478  25.937  22.223  1.00  0.00     0.292 A 
HETATM   13  N9  UNL     1      15.138  26.508  23.792  1.00  0.00    -0.213 N 
HETATM   14  N2  UNL     1      12.489  26.284  21.388  1.00  0.00    -0.154 N 
HETATM   15  O1  UNL     1      13.816  24.733  22.352  1.00  0.00    -0.265 OA
HETATM   16  C1  UNL     1      12.161  27.569  21.278  1.00  0.00     0.680 A 
ATOM     17  H2  UNL     1      11.996  25.575  20.846  1.00  0.00     0.187 HD
HETATM   18  C26 UNL     1      15.809  27.388  24.523  1.00  0.00     0.335 A 
HETATM   19  O12 UNL     1      16.746  27.045  25.316  1.00  0.00    -0.260 OA
ATOM     20  H3  UNL     1      12.556  29.485  21.905  1.00  0.00     0.186 HD
HETATM   21  O11 UNL     1      16.150  29.517  25.136  1.00  0.00    -0.261 OA
HETATM   22  O2  UNL     1      13.258  30.919  22.683  1.00  0.00    -0.273 OA
BRANCH  16  23
HETATM   23  N1  UNL     1      11.218  27.944  20.489  1.00  0.00    -0.234 N 
ATOM     24  H12 UNL     1      10.251  27.720  20.724  1.00  0.00     0.174 HD
ATOM     25  H11 UNL     1      11.424  28.462  19.635  1.00  0.00     0.174 HD
ENDBRANCH  16  23
BRANCH  13  26
HETATM   26  N10 UNL     1      15.477  25.151  23.903  1.00  0.00    -0.335 N 
ATOM     27 2H10 UNL     1      14.978  24.477  23.324  1.00  0.00     0.177 HD
ATOM     28 1H10 UNL     1      16.209  24.864  24.554  1.00  0.00     0.177 HD
ENDBRANCH  13  26
ENDBRANCH   5   6
ENDBRANCH   4   5
ENDBRANCH   3   4
ENDBRANCH   2   3
ENDBRANCH   1   2
BRANCH   1  29
HETATM   29  C11 UNL     1      17.139  32.825  26.754  1.00  0.00     0.047 C 
BRANCH  29  30
HETATM   30  C12 UNL     1      16.305  33.108  27.999  1.00  0.00     0.093 C 
BRANCH  30  31
HETATM   31  N5  UNL     1      15.877  31.937  28.622  1.00  0.00    -0.232 N 
HETATM   32  O3  UNL     1      15.511  30.896  27.893  1.00  0.00    -0.152 OA
HETATM   33  N6  UNL     1      14.315  30.445  28.460  1.00  0.00    -0.229 N 
HETATM   34  C22 UNL     1      14.620  30.497  29.863  1.00  0.00     0.197 C 
HETATM   35  C23 UNL     1      15.266  31.929  29.878  1.00  0.00     0.236 C 
BRANCH  33  36
HETATM   36  C13 UNL     1      13.204  30.103  27.683  1.00  0.00     0.092 A 
HETATM   37  C14 UNL     1      13.029  28.736  27.381  1.00  0.00     0.035 A 
HETATM   38  C15 UNL     1      11.983  28.283  26.620  1.00  0.00     0.015 A 
HETATM   39  C16 UNL     1      11.052  29.166  26.118  1.00  0.00    -0.013 A 
HETATM   40  C20 UNL     1      11.219  30.489  26.409  1.00  0.00     0.051 A 
HETATM   41  C21 UNL     1      12.298  30.957  27.193  1.00  0.00     0.132 A 
BRANCH  39  42
HETATM   42  C17 UNL     1       9.926  28.687  25.295  1.00  0.00     0.104 A 
HETATM   43  C18 UNL     1       8.900  27.865  25.689  1.00  0.00     0.221 A 
HETATM   44  O5  UNL     1       8.084  27.662  24.670  1.00  0.00    -0.209 OA
HETATM   45  N7  UNL     1       8.547  28.317  23.652  1.00  0.00    -0.222 N 
HETATM   46  C19 UNL     1       9.690  28.976  23.972  1.00  0.00     0.281 A 
ATOM     47  H7  UNL     1       8.110  28.334  22.730  1.00  0.00     0.198 HD
HETATM   48  O6  UNL     1      10.341  29.680  23.188  1.00  0.00    -0.265 OA
BRANCH  43  49
HETATM   49  O4  UNL     1       8.764  27.340  26.968  1.00  0.00    -0.339 OA
ATOM     50  H4  UNL     1       9.488  27.041  27.505  1.00  0.00     0.220 HD
ENDBRANCH  43  49
ENDBRANCH  39  42
BRANCH  41  51
HETATM   51  N8  UNL     1      12.296  32.331  27.418  1.00  0.00    -0.113 N 
HETATM   52  O7  UNL     1      13.142  33.046  26.815  1.00  0.00    -0.532 OA
HETATM   53  O8  UNL     1      11.451  32.974  28.233  1.00  0.00    -0.532 OA
ENDBRANCH  41  51
ENDBRANCH  33  36
BRANCH  35  54
HETATM   54  C24 UNL     1      14.218  32.895  30.181  1.00  0.00     0.201 C 
HETATM   55  O9  UNL     1      13.151  32.566  30.721  1.00  0.00    -0.646 OA
HETATM   56  O10 UNL     1      14.420  34.226  29.854  1.00  0.00    -0.646 OA
ENDBRANCH  35  54
ENDBRANCH  30  31
ENDBRANCH  29  30
ENDBRANCH   1  29
TORSDOF 15
ENDMDL
MODEL 3
REMARK VINA RESULT: -9.392422332      0.934      2.387
REMARK  15 active torsions:
REMARK  status: ('A' for Active; 'I' for Inactive)
REMARK    1  A    between atoms: N1_1  and  C1_4 
REMARK       I    between atoms: N4_13  and  C5_14 
REMARK    2  A    between atoms: C5_14  and  C6_16 
REMARK    3  A    between atoms: C6_16  and  C7_17 
REMARK    4  A    between atoms: C7_17  and  C8_18 
REMARK    5  A    between atoms: C8_18  and  C9_19 
REMARK    6  A    between atoms: C9_19  and  C10_20 
REMARK    7  A    between atoms: C10_20  and  C11_21 
REMARK    8  A    between atoms: C11_21  and  C12_22 
REMARK    9  A    between atoms: C12_22  and  N5_23 
REMARK   10  A    between atoms: N6_25  and  C13_26 
REMARK   11  A    between atoms: C16_29  and  C17_30 
REMARK   12  A    between atoms: C18_31  and  O4_32 
REMARK   13  A    between atoms: C21_40  and  N8_41 
REMARK   14  A    between atoms: C23_45  and  C24_46 
REMARK   15  A    between atoms: N9_53  and  N10_54 
ROOT
HETATM    1  C10 UNL     1      16.318  32.703  28.724  1.00  0.00     0.005 C 
ENDROOT
BRANCH   1   2
HETATM    2  C9  UNL     1      15.964  31.703  29.769  1.00  0.00     0.000 C 
BRANCH   2   3
HETATM    3  C8  UNL     1      14.472  31.379  29.814  1.00  0.00     0.000 C 
BRANCH   3   4
HETATM    4  C7  UNL     1      14.302  29.904  29.419  1.00  0.00     0.009 C 
BRANCH   4   5
HETATM    5  C6  UNL     1      13.313  29.805  28.315  1.00  0.00     0.104 C 
BRANCH   5   6
HETATM    6  C5  UNL     1      13.848  29.103  27.099  1.00  0.00     0.232 C 
HETATM    7  N4  UNL     1      13.042  28.395  26.193  1.00  0.00    -0.226 N 
HETATM    8  C4  UNL     1      13.587  27.798  25.096  1.00  0.00     0.168 A 
HETATM    9  C25 UNL     1      11.705  28.270  26.377  1.00  0.00     0.326 A 
HETATM   10  C3  UNL     1      12.782  27.085  24.200  1.00  0.00     0.173 A 
HETATM   11  N3  UNL     1      14.882  27.841  24.785  1.00  0.00    -0.174 N 
HETATM   12  C2  UNL     1      13.342  26.488  23.089  1.00  0.00     0.292 A 
HETATM   13  N9  UNL     1      11.471  26.992  24.426  1.00  0.00    -0.213 N 
HETATM   14  N2  UNL     1      14.656  26.570  22.838  1.00  0.00    -0.154 N 
HETATM   15  O1  UNL     1      12.579  25.858  22.315  1.00  0.00    -0.265 OA
HETATM   16  C1  UNL     1      15.432  27.246  23.681  1.00  0.00     0.680 A 
ATOM     17  H2  UNL     1      15.054  26.122  22.012  1.00  0.00     0.187 HD
HETATM   18  C26 UNL     1      10.900  27.558  25.481  1.00  0.00     0.335 A 
HETATM   19  O12 UNL     1       9.649  27.475  25.708  1.00  0.00    -0.260 OA
ATOM     20  H3  UNL     1      15.505  28.351  25.411  1.00  0.00     0.186 HD
HETATM   21  O11 UNL     1      11.099  28.779  27.351  1.00  0.00    -0.261 OA
HETATM   22  O2  UNL     1      15.099  29.185  26.926  1.00  0.00    -0.273 OA
BRANCH  16  23
HETATM   23  N1  UNL     1      16.698  27.349  23.476  1.00  0.00    -0.234 N 
ATOM     24  H12 UNL     1      17.340  27.247  24.262  1.00  0.00     0.174 HD
ATOM     25  H11 UNL     1      17.065  27.528  22.542  1.00  0.00     0.174 HD
ENDBRANCH  16  23
BRANCH  13  26
HETATM   26  N10 UNL     1      10.660  26.279  23.531  1.00  0.00    -0.335 N 
ATOM     27 2H10 UNL     1      11.110  25.730  22.798  1.00  0.00     0.177 HD
ATOM     28 1H10 UNL     1       9.645  26.320  23.625  1.00  0.00     0.177 HD
ENDBRANCH  13  26
ENDBRANCH   5   6
ENDBRANCH   4   5
ENDBRANCH   3   4
ENDBRANCH   2   3
ENDBRANCH   1   2
BRANCH   1  29
HETATM   29  C11 UNL     1      16.502  32.088  27.352  1.00  0.00     0.047 C 
BRANCH  29  30
HETATM   30  C12 UNL     1      17.387  33.003  26.512  1.00  0.00     0.093 C 
BRANCH  30  31
HETATM   31  N5  UNL     1      16.642  33.845  25.689  1.00  0.00    -0.232 N 
HETATM   32  O3  UNL     1      15.330  33.698  25.608  1.00  0.00    -0.152 OA
HETATM   33  N6  UNL     1      15.031  33.754  24.243  1.00  0.00    -0.229 N 
HETATM   34  C22 UNL     1      15.841  34.860  23.813  1.00  0.00     0.197 C 
HETATM   35  C23 UNL     1      17.168  34.437  24.539  1.00  0.00     0.236 C 
BRANCH  33  36
HETATM   36  C13 UNL     1      14.158  32.849  23.634  1.00  0.00     0.092 A 
HETATM   37  C14 UNL     1      14.572  31.501  23.573  1.00  0.00     0.035 A 
HETATM   38  C15 UNL     1      13.803  30.526  22.991  1.00  0.00     0.015 A 
HETATM   39  C16 UNL     1      12.581  30.837  22.439  1.00  0.00    -0.013 A 
HETATM   40  C20 UNL     1      12.178  32.140  22.498  1.00  0.00     0.051 A 
HETATM   41  C21 UNL     1      12.969  33.147  23.096  1.00  0.00     0.132 A 
BRANCH  39  42
HETATM   42  C17 UNL     1      11.750  29.794  21.809  1.00  0.00     0.104 A 
HETATM   43  C18 UNL     1      10.478  29.420  22.161  1.00  0.00     0.221 A 
HETATM   44  O5  UNL     1      10.068  28.452  21.360  1.00  0.00    -0.209 OA
HETATM   45  N7  UNL     1      11.022  28.198  20.520  1.00  0.00    -0.222 N 
HETATM   46  C19 UNL     1      12.097  28.997  20.743  1.00  0.00     0.281 A 
ATOM     47  H7  UNL     1      10.972  27.490  19.788  1.00  0.00     0.198 HD
HETATM   48  O6  UNL     1      13.147  28.966  20.086  1.00  0.00    -0.265 OA
BRANCH  43  49
HETATM   49  O4  UNL     1       9.754  29.987  23.201  1.00  0.00    -0.339 OA
ATOM     50  H4  UNL     1       9.240  30.782  23.125  1.00  0.00     0.220 HD
ENDBRANCH  43  49
ENDBRANCH  39  42
BRANCH  41  51
HETATM   51  N8  UNL     1      12.391  34.414  23.097  1.00  0.00    -0.113 N 
HETATM   52  O7  UNL     1      11.710  34.770  24.097  1.00  0.00    -0.532 OA
HETATM   53  O8  UNL     1      12.504  35.309  22.108  1.00  0.00    -0.532 OA
ENDBRANCH  41  51
ENDBRANCH  33  36
BRANCH  35  54
HETATM   54  C24 UNL     1      17.957  33.640  23.609  1.00  0.00     0.201 C 
HETATM   55  O9  UNL     1      17.817  32.413  23.505  1.00  0.00    -0.646 OA
HETATM   56  O10 UNL     1      18.897  34.276  22.814  1.00  0.00    -0.646 OA
ENDBRANCH  35  54
ENDBRANCH  30  31
ENDBRANCH  29  30
ENDBRANCH   1  29
TORSDOF 15
ENDMDL
MODEL 4
REMARK VINA RESULT: -9.238857956      2.689      5.667
REMARK  15 active torsions:
REMARK  status: ('A' for Active; 'I' for Inactive)
REMARK    1  A    between atoms: N1_1  and  C1_4 
REMARK       I    between atoms: N4_13  and  C5_14 
REMARK    2  A    between atoms: C5_14  and  C6_16 
REMARK    3  A    between atoms: C6_16  and  C7_17 
REMARK    4  A    between atoms: C7_17  and  C8_18 
REMARK    5  A    between atoms: C8_18  and  C9_19 
REMARK    6  A    between atoms: C9_19  and  C10_20 
REMARK    7  A    between atoms: C10_20  and  C11_21 
REMARK    8  A    between atoms: C11_21  and  C12_22 
REMARK    9  A    between atoms: C12_22  and  N5_23 
REMARK   10  A    between atoms: N6_25  and  C13_26 
REMARK   11  A    between atoms: C16_29  and  C17_30 
REMARK   12  A    between atoms: C18_31  and  O4_32 
REMARK   13  A    between atoms: C21_40  and  N8_41 
REMARK   14  A    between atoms: C23_45  and  C24_46 
REMARK   15  A    between atoms: N9_53  and  N10_54 
ROOT
HETATM    1  C10 UNL     1      17.160  28.365  24.973  1.00  0.00     0.005 C 
ENDROOT
BRANCH   1   2
HETATM    2  C9  UNL     1      16.717  27.868  23.640  1.00  0.00     0.000 C 
BRANCH   2   3
HETATM    3  C8  UNL     1      15.910  26.573  23.716  1.00  0.00     0.000 C 
BRANCH   3   4
HETATM    4  C7  UNL     1      15.303  26.320  22.327  1.00  0.00     0.009 C 
BRANCH   4   5
HETATM    5  C6  UNL     1      13.835  26.138  22.463  1.00  0.00     0.104 C 
BRANCH   5   6
HETATM    6  C5  UNL     1      13.048  27.365  22.102  1.00  0.00     0.232 C 
HETATM    7  N4  UNL     1      12.156  28.003  22.979  1.00  0.00    -0.226 N 
HETATM    8  C4  UNL     1      11.488  29.128  22.597  1.00  0.00     0.168 A 
HETATM    9  C25 UNL     1      11.919  27.524  24.224  1.00  0.00     0.326 A 
HETATM   10  C3  UNL     1      10.592  29.755  23.471  1.00  0.00     0.173 A 
HETATM   11  N3  UNL     1      11.624  29.712  21.407  1.00  0.00    -0.174 N 
HETATM   12  C2  UNL     1       9.924  30.896  23.076  1.00  0.00     0.292 A 
HETATM   13  N9  UNL     1      10.395  29.244  24.686  1.00  0.00    -0.213 N 
HETATM   14  N2  UNL     1      10.109  31.431  21.862  1.00  0.00    -0.154 N 
HETATM   15  O1  UNL     1       9.130  31.423  23.896  1.00  0.00    -0.265 OA
HETATM   16  C1  UNL     1      10.958  30.845  21.022  1.00  0.00     0.680 A 
ATOM     17  H2  UNL     1       9.606  32.275  21.586  1.00  0.00     0.187 HD
HETATM   18  C26 UNL     1      11.024  28.151  25.098  1.00  0.00     0.335 A 
HETATM   19  O12 UNL     1      10.843  27.654  26.257  1.00  0.00    -0.260 OA
ATOM     20  H3  UNL     1      12.268  29.289  20.739  1.00  0.00     0.186 HD
HETATM   21  O11 UNL     1      12.478  26.498  24.679  1.00  0.00    -0.261 OA
HETATM   22  O2  UNL     1      13.235  27.811  20.932  1.00  0.00    -0.273 OA
BRANCH  16  23
HETATM   23  N1  UNL     1      11.163  31.326  19.847  1.00  0.00    -0.234 N 
ATOM     24  H12 UNL     1      11.674  32.203  19.750  1.00  0.00     0.174 HD
ATOM     25  H11 UNL     1      10.824  30.843  19.016  1.00  0.00     0.174 HD
ENDBRANCH  16  23
BRANCH  13  26
HETATM   26  N10 UNL     1       9.498  29.870  25.566  1.00  0.00    -0.335 N 
ATOM     27 2H10 UNL     1       9.861  30.570  26.212  1.00  0.00     0.177 HD
ATOM     28 1H10 UNL     1       8.510  29.617  25.545  1.00  0.00     0.177 HD
ENDBRANCH  13  26
ENDBRANCH   5   6
ENDBRANCH   4   5
ENDBRANCH   3   4
ENDBRANCH   2   3
ENDBRANCH   1   2
BRANCH   1  29
HETATM   29  C11 UNL     1      16.626  29.744  25.300  1.00  0.00     0.047 C 
BRANCH  29  30
HETATM   30  C12 UNL     1      16.269  29.800  26.782  1.00  0.00     0.093 C 
BRANCH  30  31
HETATM   31  N5  UNL     1      14.892  29.765  26.992  1.00  0.00    -0.232 N 
HETATM   32  O3  UNL     1      14.063  29.911  25.972  1.00  0.00    -0.152 OA
HETATM   33  N6  UNL     1      13.095  30.823  26.403  1.00  0.00    -0.229 N 
HETATM   34  C22 UNL     1      12.814  30.343  27.728  1.00  0.00     0.197 C 
HETATM   35  C23 UNL     1      14.302  30.154  28.197  1.00  0.00     0.236 C 
BRANCH  33  36
HETATM   36  C13 UNL     1      12.662  31.885  25.604  1.00  0.00     0.092 A 
HETATM   37  C14 UNL     1      13.268  32.020  24.337  1.00  0.00     0.035 A 
HETATM   38  C15 UNL     1      12.932  33.028  23.470  1.00  0.00     0.015 A 
HETATM   39  C16 UNL     1      11.975  33.956  23.816  1.00  0.00    -0.013 A 
HETATM   40  C20 UNL     1      11.387  33.826  25.041  1.00  0.00     0.051 A 
HETATM   41  C21 UNL     1      11.733  32.788  25.936  1.00  0.00     0.132 A 
BRANCH  39  42
HETATM   42  C17 UNL     1      11.611  35.045  22.890  1.00  0.00     0.104 A 
HETATM   43  C18 UNL     1      12.326  36.186  22.628  1.00  0.00     0.221 A 
HETATM   44  O5  UNL     1      11.674  36.918  21.742  1.00  0.00    -0.209 OA
HETATM   45  N7  UNL     1      10.582  36.292  21.433  1.00  0.00    -0.222 N 
HETATM   46  C19 UNL     1      10.480  35.120  22.111  1.00  0.00     0.281 A 
ATOM     47  H7  UNL     1       9.889  36.635  20.767  1.00  0.00     0.198 HD
HETATM   48  O6  UNL     1       9.537  34.324  22.005  1.00  0.00    -0.265 OA
BRANCH  43  49
HETATM   49  O4  UNL     1      13.543  36.500  23.217  1.00  0.00    -0.339 OA
ATOM     50  H4  UNL     1      14.048  35.902  23.755  1.00  0.00     0.220 HD
ENDBRANCH  43  49
ENDBRANCH  39  42
BRANCH  41  51
HETATM   51  N8  UNL     1      11.012  32.787  27.128  1.00  0.00    -0.113 N 
HETATM   52  O7  UNL     1       9.900  32.193  27.163  1.00  0.00    -0.532 OA
HETATM   53  O8  UNL     1      11.410  33.369  28.265  1.00  0.00    -0.532 OA
ENDBRANCH  41  51
ENDBRANCH  33  36
BRANCH  35  54
HETATM   54  C24 UNL     1      14.729  31.384  28.850  1.00  0.00     0.201 C 
HETATM   55  O9  UNL     1      14.747  32.475  28.262  1.00  0.00    -0.646 OA
HETATM   56  O10 UNL     1      15.130  31.332  30.176  1.00  0.00    -0.646 OA
ENDBRANCH  35  54
ENDBRANCH  30  31
ENDBRANCH  29  30
ENDBRANCH   1  29
TORSDOF 15
ENDMDL
MODEL 5
REMARK VINA RESULT: -9.223015568      2.644      6.775
REMARK  15 active torsions:
REMARK  status: ('A' for Active; 'I' for Inactive)
REMARK    1  A    between atoms: N1_1  and  C1_4 
REMARK       I    between atoms: N4_13  and  C5_14 
REMARK    2  A    between atoms: C5_14  and  C6_16 
REMARK    3  A    between atoms: C6_16  and  C7_17 
REMARK    4  A    between atoms: C7_17  and  C8_18 
REMARK    5  A    between atoms: C8_18  and  C9_19 
REMARK    6  A    between atoms: C9_19  and  C10_20 
REMARK    7  A    between atoms: C10_20  and  C11_21 
REMARK    8  A    between atoms: C11_21  and  C12_22 
REMARK    9  A    between atoms: C12_22  and  N5_23 
REMARK   10  A    between atoms: N6_25  and  C13_26 
REMARK   11  A    between atoms: C16_29  and  C17_30 
REMARK   12  A    between atoms: C18_31  and  O4_32 
REMARK   13  A    between atoms: C21_40  and  N8_41 
REMARK   14  A    between atoms: C23_45  and  C24_46 
REMARK   15  A    between atoms: N9_53  and  N10_54 
ROOT
HETATM    1  C10 UNL     1      11.508  34.572  23.582  1.00  0.00     0.005 C 
ENDROOT
BRANCH   1   2
HETATM    2  C9  UNL     1      11.481  34.445  22.099  1.00  0.00     0.000 C 
BRANCH   2   3
HETATM    3  C8  UNL     1      10.074  34.251  21.534  1.00  0.00     0.000 C 
BRANCH   3   4
HETATM    4  C7  UNL     1       9.328  33.281  22.463  1.00  0.00     0.009 C 
BRANCH   4   5
HETATM    5  C6  UNL     1       9.421  31.906  21.909  1.00  0.00     0.104 C 
BRANCH   5   6
HETATM    6  C5  UNL     1       9.851  30.885  22.923  1.00  0.00     0.232 C 
HETATM    7  N4  UNL     1      10.831  29.909  22.677  1.00  0.00    -0.226 N 
HETATM    8  C4  UNL     1      11.192  29.025  23.649  1.00  0.00     0.168 A 
HETATM    9  C25 UNL     1      11.443  29.804  21.472  1.00  0.00     0.326 A 
HETATM   10  C3  UNL     1      12.163  28.048  23.396  1.00  0.00     0.173 A 
HETATM   11  N3  UNL     1      10.681  29.013  24.879  1.00  0.00    -0.174 N 
HETATM   12  C2  UNL     1      12.525  27.159  24.388  1.00  0.00     0.292 A 
HETATM   13  N9  UNL     1      12.735  27.986  22.193  1.00  0.00    -0.213 N 
HETATM   14  N2  UNL     1      11.968  27.203  25.605  1.00  0.00    -0.154 N 
HETATM   15  O1  UNL     1      13.400  26.299  24.113  1.00  0.00    -0.265 OA
HETATM   16  C1  UNL     1      11.045  28.128  25.859  1.00  0.00     0.680 A 
ATOM     17  H2  UNL     1      12.247  26.538  26.327  1.00  0.00     0.187 HD
HETATM   18  C26 UNL     1      12.412  28.828  21.220  1.00  0.00     0.335 A 
HETATM   19  O12 UNL     1      12.952  28.778  20.067  1.00  0.00    -0.260 OA
ATOM     20  H3  UNL     1       9.971  29.708  25.106  1.00  0.00     0.186 HD
HETATM   21  O11 UNL     1      11.188  30.565  20.508  1.00  0.00    -0.261 OA
HETATM   22  O2  UNL     1       9.270  30.950  24.046  1.00  0.00    -0.273 OA
BRANCH  16  23
HETATM   23  N1  UNL     1      10.485  28.204  27.014  1.00  0.00    -0.234 N 
ATOM     24  H12 UNL     1       9.509  27.926  27.115  1.00  0.00     0.174 HD
ATOM     25  H11 UNL     1      11.003  28.536  27.827  1.00  0.00     0.174 HD
ENDBRANCH  16  23
BRANCH  13  26
HETATM   26  N10 UNL     1      13.708  27.009  21.936  1.00  0.00    -0.335 N 
ATOM     27 2H10 UNL     1      13.959  26.816  20.967  1.00  0.00     0.177 HD
ATOM     28 1H10 UNL     1      14.145  26.514  22.714  1.00  0.00     0.177 HD
ENDBRANCH  13  26
ENDBRANCH   5   6
ENDBRANCH   4   5
ENDBRANCH   3   4
ENDBRANCH   2   3
ENDBRANCH   1   2
BRANCH   1  29
HETATM   29  C11 UNL     1      12.565  33.703  24.233  1.00  0.00     0.047 C 
BRANCH  29  30
HETATM   30  C12 UNL     1      13.083  32.699  23.208  1.00  0.00     0.093 C 
BRANCH  30  31
HETATM   31  N5  UNL     1      13.585  31.546  23.809  1.00  0.00    -0.232 N 
HETATM   32  O3  UNL     1      13.259  31.257  25.058  1.00  0.00    -0.152 OA
HETATM   33  N6  UNL     1      14.456  30.895  25.683  1.00  0.00    -0.229 N 
HETATM   34  C22 UNL     1      15.058  30.048  24.690  1.00  0.00     0.197 C 
HETATM   35  C23 UNL     1      14.808  30.978  23.449  1.00  0.00     0.236 C 
BRANCH  33  36
HETATM   36  C13 UNL     1      14.809  31.370  26.949  1.00  0.00     0.092 A 
HETATM   37  C14 UNL     1      15.896  32.266  27.017  1.00  0.00     0.035 A 
HETATM   38  C15 UNL     1      16.338  32.791  28.204  1.00  0.00     0.015 A 
HETATM   39  C16 UNL     1      15.723  32.452  29.389  1.00  0.00    -0.013 A 
HETATM   40  C20 UNL     1      14.670  31.585  29.325  1.00  0.00     0.051 A 
HETATM   41  C21 UNL     1      14.214  31.044  28.102  1.00  0.00     0.132 A 
BRANCH  39  42
HETATM   42  C17 UNL     1      16.196  33.009  30.670  1.00  0.00     0.104 A 
HETATM   43  C18 UNL     1      16.079  34.305  31.106  1.00  0.00     0.221 A 
HETATM   44  O5  UNL     1      16.623  34.415  32.305  1.00  0.00    -0.209 OA
HETATM   45  N7  UNL     1      17.078  33.250  32.645  1.00  0.00    -0.222 N 
HETATM   46  C19 UNL     1      16.844  32.330  31.674  1.00  0.00     0.281 A 
ATOM     47  H7  UNL     1      17.549  33.051  33.528  1.00  0.00     0.198 HD
HETATM   48  O6  UNL     1      17.173  31.138  31.739  1.00  0.00    -0.265 OA
BRANCH  43  49
HETATM   49  O4  UNL     1      15.477  35.324  30.380  1.00  0.00    -0.339 OA
ATOM     50  H4  UNL     1      15.403  36.223  30.678  1.00  0.00     0.220 HD
ENDBRANCH  43  49
ENDBRANCH  39  42
BRANCH  41  51
HETATM   51  N8  UNL     1      13.110  30.202  28.218  1.00  0.00    -0.113 N 
HETATM   52  O7  UNL     1      13.277  28.960  28.080  1.00  0.00    -0.532 OA
HETATM   53  O8  UNL     1      11.861  30.608  28.475  1.00  0.00    -0.532 OA
ENDBRANCH  41  51
ENDBRANCH  33  36
BRANCH  35  54
HETATM   54  C24 UNL     1      15.980  31.827  23.277  1.00  0.00     0.201 C 
HETATM   55  O9  UNL     1      15.907  32.968  22.799  1.00  0.00    -0.646 OA
HETATM   56  O10 UNL     1      17.220  31.340  23.660  1.00  0.00    -0.646 OA
ENDBRANCH  35  54
ENDBRANCH  30  31
ENDBRANCH  29  30
ENDBRANCH   1  29
TORSDOF 15
ENDMDL
