MODEL 1
REMARK VINA RESULT: -6.396314228      0.000      0.000
REMARK  4 active torsions:
REMARK  status: ('A' for Active; 'I' for Inactive)
REMARK    1  A    between atoms: C2_2  and  C5_5 
REMARK    2  A    between atoms: C5_5  and  N1_6 
REMARK    3  A    between atoms: C5_5  and  C13_22 
REMARK       I    between atoms: N1_6  and  C6_8 
REMARK       I    between atoms: C6_8  and  N2_10 
REMARK    4  A    between atoms: C10_14  and  C11_15 
REMARK       I    between atoms: C11_15  and  N3_17 
REMARK       I    between atoms: C13_22  and  N6_24 
ROOT
HETATM    1  N1  UNL     1      41.750  -0.307  33.526  1.00  0.00    -0.329 N 
ATOM      2  H1  UNL     1      41.355  -0.886  34.267  1.00  0.00     0.165 HD
HETATM    3  C6  UNL     1      42.894   0.448  33.815  1.00  0.00     0.319 C 
HETATM    4  O1  UNL     1      43.386   1.160  32.901  1.00  0.00    -0.247 OA
HETATM    5  N2  UNL     1      43.533   0.460  35.077  1.00  0.00    -0.321 N 
HETATM    6  C7  UNL     1      43.087  -0.281  36.235  1.00  0.00     0.129 C 
HETATM    7  C8  UNL     1      43.276   0.820  37.296  1.00  0.00     0.022 C 
HETATM    8  C9  UNL     1      44.762   1.095  36.992  1.00  0.00     0.037 C 
HETATM    9  C10 UNL     1      44.739   1.190  35.472  1.00  0.00     0.181 C 
ENDROOT
BRANCH   1  10
HETATM   10  C5  UNL     1      41.092  -0.313  32.230  1.00  0.00     0.186 C 
BRANCH  10  11
HETATM   11  C2  UNL     1      39.615  -0.405  32.480  1.00  0.00    -0.022 C 
HETATM   12  C1  UNL     1      39.074   0.981  32.784  1.00  0.00     0.017 C 
HETATM   13  C3  UNL     1      38.838  -0.933  31.295  1.00  0.00     0.017 C 
HETATM   14  C4  UNL     1      39.276  -1.278  33.662  1.00  0.00     0.017 C 
ENDBRANCH  10  11
BRANCH  10  15
HETATM   15  C13 UNL     1      41.630  -1.462  31.436  1.00  0.00     0.247 C 
HETATM   16  O3  UNL     1      41.548  -2.623  31.896  1.00  0.00    -0.271 OA
HETATM   17  N6  UNL     1      42.224  -1.255  30.192  1.00  0.00    -0.302 N 
HETATM   18  C14 UNL     1      42.255  -1.939  29.146  1.00  0.00     0.203 C 
ATOM     19  H6  UNL     1      42.733  -0.373  30.121  1.00  0.00     0.171 HD
HETATM   20  N7  UNL     1      42.963  -1.455  28.000  1.00  0.00    -0.066 NA
HETATM   21  N8  UNL     1      41.611  -3.191  29.035  1.00  0.00    -0.066 NA
ENDBRANCH  10  15
ENDBRANCH   1  10
BRANCH   9  22
HETATM   22  C11 UNL     1      45.950   0.560  34.884  1.00  0.00     0.246 C 
HETATM   23  O2  UNL     1      46.138   0.784  33.636  1.00  0.00    -0.271 OA
HETATM   24  N3  UNL     1      46.887  -0.225  35.520  1.00  0.00    -0.302 N 
HETATM   25  C12 UNL     1      46.915  -1.413  35.933  1.00  0.00     0.203 C 
ATOM     26  H3  UNL     1      47.760   0.272  35.696  1.00  0.00     0.171 HD
HETATM   27  N4  UNL     1      48.048  -1.995  36.576  1.00  0.00    -0.066 NA
HETATM   28  N5  UNL     1      45.800  -2.273  35.778  1.00  0.00    -0.066 NA
ENDBRANCH   9  22
TORSDOF 4
ENDMDL
MODEL 2
REMARK VINA RESULT: -6.380467885      2.182      2.940
REMARK  4 active torsions:
REMARK  status: ('A' for Active; 'I' for Inactive)
REMARK    1  A    between atoms: C2_2  and  C5_5 
REMARK    2  A    between atoms: C5_5  and  N1_6 
REMARK    3  A    between atoms: C5_5  and  C13_22 
REMARK       I    between atoms: N1_6  and  C6_8 
REMARK       I    between atoms: C6_8  and  N2_10 
REMARK    4  A    between atoms: C10_14  and  C11_15 
REMARK       I    between atoms: C11_15  and  N3_17 
REMARK       I    between atoms: C13_22  and  N6_24 
ROOT
HETATM    1  N1  UNL     1      41.994  -1.492  31.715  1.00  0.00    -0.329 N 
ATOM      2  H1  UNL     1      42.358  -2.413  31.959  1.00  0.00     0.165 HD
HETATM    3  C6  UNL     1      41.853  -0.545  32.739  1.00  0.00     0.319 C 
HETATM    4  O1  UNL     1      41.408   0.594  32.440  1.00  0.00    -0.247 OA
HETATM    5  N2  UNL     1      42.181  -0.791  34.092  1.00  0.00    -0.321 N 
HETATM    6  C7  UNL     1      42.682  -2.047  34.603  1.00  0.00     0.129 C 
HETATM    7  C8  UNL     1      41.829  -2.127  35.885  1.00  0.00     0.022 C 
HETATM    8  C9  UNL     1      42.247  -0.757  36.453  1.00  0.00     0.037 C 
HETATM    9  C10 UNL     1      42.094   0.131  35.225  1.00  0.00     0.181 C 
ENDROOT
BRANCH   1  10
HETATM   10  C5  UNL     1      41.651  -1.237  30.326  1.00  0.00     0.186 C 
BRANCH  10  11
HETATM   11  C2  UNL     1      40.508  -2.144  29.976  1.00  0.00    -0.022 C 
HETATM   12  C1  UNL     1      39.277  -1.304  29.679  1.00  0.00     0.017 C 
HETATM   13  C3  UNL     1      40.769  -2.993  28.751  1.00  0.00     0.017 C 
HETATM   14  C4  UNL     1      40.139  -3.081  31.098  1.00  0.00     0.017 C 
ENDBRANCH  10  11
BRANCH  10  15
HETATM   15  C13 UNL     1      42.870  -1.472  29.490  1.00  0.00     0.247 C 
HETATM   16  O3  UNL     1      43.728  -2.301  29.871  1.00  0.00    -0.271 OA
HETATM   17  N6  UNL     1      43.064  -0.780  28.297  1.00  0.00    -0.302 N 
HETATM   18  C14 UNL     1      43.599  -1.097  27.213  1.00  0.00     0.203 C 
ATOM     19  H6  UNL     1      42.697   0.173  28.310  1.00  0.00     0.171 HD
HETATM   20  N7  UNL     1      43.650  -0.151  26.140  1.00  0.00    -0.066 NA
HETATM   21  N8  UNL     1      44.165  -2.371  26.987  1.00  0.00    -0.066 NA
ENDBRANCH  10  15
ENDBRANCH   1  10
BRANCH   9  22
HETATM   22  C11 UNL     1      43.182   1.141  35.163  1.00  0.00     0.246 C 
HETATM   23  O2  UNL     1      42.799   2.364  35.123  1.00  0.00    -0.271 OA
HETATM   24  N3  UNL     1      44.542   0.919  35.150  1.00  0.00    -0.302 N 
HETATM   25  C12 UNL     1      45.365   0.513  34.290  1.00  0.00     0.203 C 
ATOM     26  H3  UNL     1      44.983   1.133  36.045  1.00  0.00     0.171 HD
HETATM   27  N4  UNL     1      46.762   0.370  34.545  1.00  0.00    -0.066 NA
HETATM   28  N5  UNL     1      44.952   0.169  32.980  1.00  0.00    -0.066 NA
ENDBRANCH   9  22
TORSDOF 4
ENDMDL
MODEL 3
REMARK VINA RESULT: -6.362005209      1.414      6.649
REMARK  4 active torsions:
REMARK  status: ('A' for Active; 'I' for Inactive)
REMARK    1  A    between atoms: C2_2  and  C5_5 
REMARK    2  A    between atoms: C5_5  and  N1_6 
REMARK    3  A    between atoms: C5_5  and  C13_22 
REMARK       I    between atoms: N1_6  and  C6_8 
REMARK       I    between atoms: C6_8  and  N2_10 
REMARK    4  A    between atoms: C10_14  and  C11_15 
REMARK       I    between atoms: C11_15  and  N3_17 
REMARK       I    between atoms: C13_22  and  N6_24 
ROOT
HETATM    1  N1  UNL     1      42.123  -0.390  33.365  1.00  0.00    -0.329 N 
ATOM      2  H1  UNL     1      42.061   0.572  33.030  1.00  0.00     0.165 HD
HETATM    3  C6  UNL     1      41.400  -1.376  32.679  1.00  0.00     0.319 C 
HETATM    4  O1  UNL     1      41.478  -2.564  33.087  1.00  0.00    -0.247 OA
HETATM    5  N2  UNL     1      40.586  -1.117  31.553  1.00  0.00    -0.321 N 
HETATM    6  C7  UNL     1      40.372   0.190  30.973  1.00  0.00     0.129 C 
HETATM    7  C8  UNL     1      38.851   0.090  30.741  1.00  0.00     0.022 C 
HETATM    8  C9  UNL     1      38.891  -1.207  29.909  1.00  0.00     0.037 C 
HETATM    9  C10 UNL     1      39.815  -2.072  30.756  1.00  0.00     0.181 C 
ENDROOT
BRANCH   1  10
HETATM   10  C5  UNL     1      42.955  -0.659  34.526  1.00  0.00     0.186 C 
BRANCH  10  11
HETATM   11  C2  UNL     1      42.539   0.298  35.604  1.00  0.00    -0.022 C 
HETATM   12  C1  UNL     1      41.247  -0.193  36.235  1.00  0.00     0.017 C 
HETATM   13  C3  UNL     1      43.554   0.426  36.717  1.00  0.00     0.017 C 
HETATM   14  C4  UNL     1      42.271   1.687  35.082  1.00  0.00     0.017 C 
ENDBRANCH  10  11
BRANCH  10  15
HETATM   15  C13 UNL     1      44.388  -0.507  34.121  1.00  0.00     0.247 C 
HETATM   16  O3  UNL     1      44.684   0.251  33.169  1.00  0.00    -0.271 OA
HETATM   17  N6  UNL     1      45.397  -1.200  34.788  1.00  0.00    -0.302 N 
HETATM   18  C14 UNL     1      46.582  -0.912  35.060  1.00  0.00     0.203 C 
ATOM     19  H6  UNL     1      45.112  -2.122  35.120  1.00  0.00     0.171 HD
HETATM   20  N7  UNL     1      47.396  -1.848  35.773  1.00  0.00    -0.066 NA
HETATM   21  N8  UNL     1      47.171   0.318  34.692  1.00  0.00    -0.066 NA
ENDBRANCH  10  15
ENDBRANCH   1  10
BRANCH   9  22
HETATM   22  C11 UNL     1      40.715  -2.885  29.896  1.00  0.00     0.246 C 
HETATM   23  O2  UNL     1      40.688  -4.148  30.109  1.00  0.00    -0.271 OA
HETATM   24  N3  UNL     1      41.562  -2.442  28.904  1.00  0.00    -0.302 N 
HETATM   25  C12 UNL     1      42.674  -1.854  28.885  1.00  0.00     0.203 C 
ATOM     26  H3  UNL     1      41.205  -2.636  27.969  1.00  0.00     0.171 HD
HETATM   27  N4  UNL     1      43.356  -1.500  27.683  1.00  0.00    -0.066 NA
HETATM   28  N5  UNL     1      43.341  -1.501  30.084  1.00  0.00    -0.066 NA
ENDBRANCH   9  22
TORSDOF 4
ENDMDL
MODEL 4
REMARK VINA RESULT: -6.173564557      4.181      7.002
REMARK  4 active torsions:
REMARK  status: ('A' for Active; 'I' for Inactive)
REMARK    1  A    between atoms: C2_2  and  C5_5 
REMARK    2  A    between atoms: C5_5  and  N1_6 
REMARK    3  A    between atoms: C5_5  and  C13_22 
REMARK       I    between atoms: N1_6  and  C6_8 
REMARK       I    between atoms: C6_8  and  N2_10 
REMARK    4  A    between atoms: C10_14  and  C11_15 
REMARK       I    between atoms: C11_15  and  N3_17 
REMARK       I    between atoms: C13_22  and  N6_24 
ROOT
HETATM    1  N1  UNL     1      47.076   0.300  38.488  1.00  0.00    -0.329 N 
ATOM      2  H1  UNL     1      46.466   0.002  39.250  1.00  0.00     0.165 HD
HETATM    3  C6  UNL     1      48.445   0.016  38.587  1.00  0.00     0.319 C 
HETATM    4  O1  UNL     1      49.198   0.377  37.646  1.00  0.00    -0.247 OA
HETATM    5  N2  UNL     1      49.034  -0.653  39.685  1.00  0.00    -0.321 N 
HETATM    6  C7  UNL     1      48.315  -1.114  40.852  1.00  0.00     0.129 C 
HETATM    7  C8  UNL     1      49.321  -0.663  41.930  1.00  0.00     0.022 C 
HETATM    8  C9  UNL     1      50.541  -1.401  41.344  1.00  0.00     0.037 C 
HETATM    9  C10 UNL     1      50.439  -1.017  39.873  1.00  0.00     0.181 C 
ENDROOT
BRANCH   1  10
HETATM   10  C5  UNL     1      46.474   0.992  37.360  1.00  0.00     0.186 C 
BRANCH  10  11
HETATM   11  C2  UNL     1      45.441   1.930  37.914  1.00  0.00    -0.022 C 
HETATM   12  C1  UNL     1      45.224   3.069  36.932  1.00  0.00     0.017 C 
HETATM   13  C3  UNL     1      44.095   1.275  38.135  1.00  0.00     0.017 C 
HETATM   14  C4  UNL     1      45.856   2.552  39.223  1.00  0.00     0.017 C 
ENDBRANCH  10  11
BRANCH  10  15
HETATM   15  C13 UNL     1      45.905  -0.032  36.429  1.00  0.00     0.247 C 
HETATM   16  O3  UNL     1      45.591  -1.161  36.870  1.00  0.00    -0.271 OA
HETATM   17  N6  UNL     1      45.723   0.254  35.077  1.00  0.00    -0.302 N 
HETATM   18  C14 UNL     1      44.862  -0.106  34.246  1.00  0.00     0.203 C 
ATOM     19  H6  UNL     1      46.431   0.879  34.691  1.00  0.00     0.171 HD
HETATM   20  N7  UNL     1      44.936   0.362  32.896  1.00  0.00    -0.066 NA
HETATM   21  N8  UNL     1      43.794  -0.969  34.580  1.00  0.00    -0.066 NA
ENDBRANCH  10  15
ENDBRANCH   1  10
BRANCH   9  22
HETATM   22  C11 UNL     1      50.806  -2.162  39.000  1.00  0.00     0.246 C 
HETATM   23  O2  UNL     1      51.587  -1.882  38.023  1.00  0.00    -0.271 OA
HETATM   24  N3  UNL     1      50.412  -3.477  39.121  1.00  0.00    -0.302 N 
HETATM   25  C12 UNL     1      49.350  -4.109  38.886  1.00  0.00     0.203 C 
ATOM     26  H3  UNL     1      51.153  -4.076  39.485  1.00  0.00     0.171 HD
HETATM   27  N4  UNL     1      49.205  -5.511  39.107  1.00  0.00    -0.066 NA
HETATM   28  N5  UNL     1      48.204  -3.457  38.370  1.00  0.00    -0.066 NA
ENDBRANCH   9  22
TORSDOF 4
ENDMDL
MODEL 5
REMARK VINA RESULT: -6.132438482      4.585      6.630
REMARK  4 active torsions:
REMARK  status: ('A' for Active; 'I' for Inactive)
REMARK    1  A    between atoms: C2_2  and  C5_5 
REMARK    2  A    between atoms: C5_5  and  N1_6 
REMARK    3  A    between atoms: C5_5  and  C13_22 
REMARK       I    between atoms: N1_6  and  C6_8 
REMARK       I    between atoms: C6_8  and  N2_10 
REMARK    4  A    between atoms: C10_14  and  C11_15 
REMARK       I    between atoms: C11_15  and  N3_17 
REMARK       I    between atoms: C13_22  and  N6_24 
ROOT
HETATM    1  N1  UNL     1      37.989  -3.640  30.018  1.00  0.00    -0.329 N 
ATOM      2  H1  UNL     1      37.371  -3.555  30.825  1.00  0.00     0.165 HD
HETATM    3  C6  UNL     1      38.967  -2.654  29.829  1.00  0.00     0.319 C 
HETATM    4  O1  UNL     1      39.735  -2.758  28.837  1.00  0.00    -0.247 OA
HETATM    5  N2  UNL     1      39.145  -1.544  30.687  1.00  0.00    -0.321 N 
HETATM    6  C7  UNL     1      38.338  -1.267  31.855  1.00  0.00     0.129 C 
HETATM    7  C8  UNL     1      38.156   0.250  31.649  1.00  0.00     0.022 C 
HETATM    8  C9  UNL     1      39.657   0.591  31.560  1.00  0.00     0.037 C 
HETATM    9  C10 UNL     1      40.145  -0.480  30.593  1.00  0.00     0.181 C 
ENDROOT
BRANCH   1  10
HETATM   10  C5  UNL     1      37.805  -4.776  29.130  1.00  0.00     0.186 C 
BRANCH  10  11
HETATM   11  C2  UNL     1      36.327  -4.998  28.992  1.00  0.00    -0.022 C 
HETATM   12  C1  UNL     1      35.630  -3.653  28.880  1.00  0.00     0.017 C 
HETATM   13  C3  UNL     1      35.954  -5.794  27.761  1.00  0.00     0.017 C 
HETATM   14  C4  UNL     1      35.728  -5.705  30.181  1.00  0.00     0.017 C 
ENDBRANCH  10  11
BRANCH  10  15
HETATM   15  C13 UNL     1      38.527  -5.949  29.715  1.00  0.00     0.247 C 
HETATM   16  O3  UNL     1      38.522  -7.044  29.106  1.00  0.00    -0.271 OA
HETATM   17  N6  UNL     1      39.204  -5.840  30.928  1.00  0.00    -0.302 N 
HETATM   18  C14 UNL     1      40.247  -6.372  31.364  1.00  0.00     0.203 C 
ATOM     19  H6  UNL     1      38.761  -5.202  31.590  1.00  0.00     0.171 HD
HETATM   20  N7  UNL     1      40.708  -6.059  32.683  1.00  0.00    -0.066 NA
HETATM   21  N8  UNL     1      41.013  -7.284  30.605  1.00  0.00    -0.066 NA
ENDBRANCH  10  15
ENDBRANCH   1  10
BRANCH   9  22
HETATM   22  C11 UNL     1      41.486  -0.982  30.992  1.00  0.00     0.246 C 
HETATM   23  O2  UNL     1      41.892  -0.611  32.149  1.00  0.00    -0.271 OA
HETATM   24  N3  UNL     1      42.331  -1.797  30.271  1.00  0.00    -0.302 N 
HETATM   25  C12 UNL     1      43.090  -1.632  29.282  1.00  0.00     0.203 C 
ATOM     26  H3  UNL     1      42.346  -2.755  30.622  1.00  0.00     0.171 HD
HETATM   27  N4  UNL     1      43.882  -2.676  28.716  1.00  0.00    -0.066 NA
HETATM   28  N5  UNL     1      43.216  -0.370  28.651  1.00  0.00    -0.066 NA
ENDBRANCH   9  22
TORSDOF 4
ENDMDL
