MODEL 1
REMARK VINA RESULT: -6.814568971      0.000      0.000
REMARK  4 active torsions:
REMARK  status: ('A' for Active; 'I' for Inactive)
REMARK       I    between atoms: C1_4  and  N3_6 
REMARK    1  A    between atoms: N4_9  and  C4_10 
REMARK    2  A    between atoms: C4_10  and  C5_11 
REMARK    3  A    between atoms: C8_14  and  N5_15 
REMARK       I    between atoms: N5_15  and  C9_17 
REMARK       I    between atoms: C9_17  and  N6_19 
REMARK    4  A    between atoms: N6_19  and  C10_21 
ROOT
HETATM    1  C5  UNL     1      38.635  -0.982  31.220  1.00  0.00     0.034 C 
HETATM    2  C6  UNL     1      38.571   0.525  31.356  1.00  0.00     0.010 C 
HETATM    3  C7  UNL     1      39.807   0.394  32.221  1.00  0.00     0.026 C 
HETATM    4  C8  UNL     1      40.132  -0.833  31.395  1.00  0.00     0.091 C 
ENDROOT
BRANCH   1   5
HETATM    5  C4  UNL     1      38.199  -1.522  29.894  1.00  0.00     0.246 C 
BRANCH   5   6
HETATM    6  N4  UNL     1      37.500  -2.740  29.944  1.00  0.00    -0.039 N 
HETATM    7  C3  UNL     1      36.114  -2.719  30.227  1.00  0.00     0.268 C 
HETATM    8  C2  UNL     1      35.559  -4.009  29.600  1.00  0.00     0.277 C 
HETATM    9  N3  UNL     1      36.754  -4.643  29.141  1.00  0.00     0.018 N 
HETATM   10  C1  UNL     1      36.606  -5.632  28.192  1.00  0.00     0.288 C 
HETATM   11  C14 UNL     1      37.535  -5.010  30.305  1.00  0.00     0.277 C 
HETATM   12  C15 UNL     1      37.530  -3.481  28.671  1.00  0.00     0.483 C 
HETATM   13  N1  UNL     1      36.425  -5.397  26.944  1.00  0.00    -0.367 N 
HETATM   14  N2  UNL     1      36.653  -7.007  28.589  1.00  0.00    -0.057 NA
ATOM     15  H12 UNL     1      36.315  -6.129  26.242  1.00  0.00     0.158 HD
ATOM     16  H11 UNL     1      36.392  -4.419  26.661  1.00  0.00     0.158 HD
HETATM   17  C13 UNL     1      38.129  -3.714  30.820  1.00  0.00     0.268 C 
ENDBRANCH   5   6
ENDBRANCH   1   5
BRANCH   4  18
HETATM   18  N5  UNL     1      40.844  -0.440  30.194  1.00  0.00    -0.338 N 
HETATM   19  C9  UNL     1      41.917  -1.244  29.741  1.00  0.00     0.317 C 
HETATM   20  O1  UNL     1      42.219  -2.271  30.392  1.00  0.00    -0.247 OA
HETATM   21  N6  UNL     1      42.674  -0.948  28.583  1.00  0.00    -0.328 N 
ATOM     22  H6  UNL     1      42.430  -0.113  28.052  1.00  0.00     0.165 HD
ATOM     23  H5  UNL     1      40.576   0.402  29.685  1.00  0.00     0.164 HD
BRANCH  21  24
HETATM   24  C10 UNL     1      43.769  -1.755  28.108  1.00  0.00     0.196 C 
HETATM   25  C11 UNL     1      44.649  -1.061  27.067  1.00  0.00     0.157 C 
HETATM   26  N7  UNL     1      43.721  -1.481  26.055  1.00  0.00    -0.357 N 
HETATM   27  C12 UNL     1      43.340  -2.556  26.933  1.00  0.00     0.242 C 
ATOM     28  H7  UNL     1      43.450  -1.159  25.125  1.00  0.00     0.162 HD
HETATM   29  O2  UNL     1      42.851  -3.675  26.685  1.00  0.00    -0.271 OA
ENDBRANCH  21  24
ENDBRANCH   4  18
TORSDOF 4
ENDMDL
MODEL 2
REMARK VINA RESULT: -6.676131805      1.051      1.234
REMARK  4 active torsions:
REMARK  status: ('A' for Active; 'I' for Inactive)
REMARK       I    between atoms: C1_4  and  N3_6 
REMARK    1  A    between atoms: N4_9  and  C4_10 
REMARK    2  A    between atoms: C4_10  and  C5_11 
REMARK    3  A    between atoms: C8_14  and  N5_15 
REMARK       I    between atoms: N5_15  and  C9_17 
REMARK       I    between atoms: C9_17  and  N6_19 
REMARK    4  A    between atoms: N6_19  and  C10_21 
ROOT
HETATM    1  C5  UNL     1      38.954  -0.925  31.067  1.00  0.00     0.034 C 
HETATM    2  C6  UNL     1      38.976   0.577  31.269  1.00  0.00     0.010 C 
HETATM    3  C7  UNL     1      40.240   0.344  32.071  1.00  0.00     0.026 C 
HETATM    4  C8  UNL     1      40.462  -0.860  31.180  1.00  0.00     0.091 C 
ENDROOT
BRANCH   1   5
HETATM    5  C4  UNL     1      38.432  -1.381  29.741  1.00  0.00     0.246 C 
BRANCH   5   6
HETATM    6  N4  UNL     1      37.677  -2.567  29.771  1.00  0.00    -0.039 N 
HETATM    7  C3  UNL     1      36.794  -2.840  28.700  1.00  0.00     0.268 C 
HETATM    8  C2  UNL     1      36.643  -4.371  28.689  1.00  0.00     0.277 C 
HETATM    9  N3  UNL     1      37.388  -4.742  29.850  1.00  0.00     0.018 N 
HETATM   10  C1  UNL     1      37.789  -6.059  29.933  1.00  0.00     0.288 C 
HETATM   11  C14 UNL     1      36.686  -4.231  31.009  1.00  0.00     0.277 C 
HETATM   12  C15 UNL     1      38.508  -3.784  29.788  1.00  0.00     0.483 C 
HETATM   13  N1  UNL     1      38.804  -6.534  29.309  1.00  0.00    -0.367 N 
HETATM   14  N2  UNL     1      37.054  -6.972  30.756  1.00  0.00    -0.057 NA
ATOM     15  H12 UNL     1      39.101  -7.507  29.371  1.00  0.00     0.158 HD
ATOM     16  H11 UNL     1      39.328  -5.884  28.724  1.00  0.00     0.158 HD
HETATM   17  C13 UNL     1      36.950  -2.738  31.017  1.00  0.00     0.268 C 
ENDBRANCH   5   6
ENDBRANCH   1   5
BRANCH   4  18
HETATM   18  N5  UNL     1      41.142  -0.453  29.966  1.00  0.00    -0.338 N 
HETATM   19  C9  UNL     1      42.187  -1.263  29.461  1.00  0.00     0.317 C 
HETATM   20  O1  UNL     1      42.493  -2.308  30.080  1.00  0.00    -0.247 OA
HETATM   21  N6  UNL     1      42.912  -0.954  28.286  1.00  0.00    -0.328 N 
ATOM     22  H6  UNL     1      42.664  -0.103  27.781  1.00  0.00     0.165 HD
ATOM     23  H5  UNL     1      40.871   0.405  29.483  1.00  0.00     0.164 HD
BRANCH  21  24
HETATM   24  C10 UNL     1      43.977  -1.766  27.759  1.00  0.00     0.196 C 
HETATM   25  C11 UNL     1      44.792  -1.088  26.657  1.00  0.00     0.157 C 
HETATM   26  N7  UNL     1      43.806  -1.524  25.708  1.00  0.00    -0.357 N 
HETATM   27  C12 UNL     1      43.481  -2.586  26.624  1.00  0.00     0.242 C 
ATOM     28  H7  UNL     1      43.480  -1.217  24.792  1.00  0.00     0.162 HD
HETATM   29  O2  UNL     1      42.980  -3.709  26.423  1.00  0.00    -0.271 OA
ENDBRANCH  21  24
ENDBRANCH   4  18
TORSDOF 4
ENDMDL
MODEL 3
REMARK VINA RESULT: -6.467322887      1.130      1.306
REMARK  4 active torsions:
REMARK  status: ('A' for Active; 'I' for Inactive)
REMARK       I    between atoms: C1_4  and  N3_6 
REMARK    1  A    between atoms: N4_9  and  C4_10 
REMARK    2  A    between atoms: C4_10  and  C5_11 
REMARK    3  A    between atoms: C8_14  and  N5_15 
REMARK       I    between atoms: N5_15  and  C9_17 
REMARK       I    between atoms: C9_17  and  N6_19 
REMARK    4  A    between atoms: N6_19  and  C10_21 
ROOT
HETATM    1  C5  UNL     1      38.674  -1.206  31.408  1.00  0.00     0.034 C 
HETATM    2  C6  UNL     1      38.294   0.253  31.259  1.00  0.00     0.010 C 
HETATM    3  C7  UNL     1      39.526   0.549  32.089  1.00  0.00     0.026 C 
HETATM    4  C8  UNL     1      40.105  -0.719  31.498  1.00  0.00     0.091 C 
ENDROOT
BRANCH   1   5
HETATM    5  C4  UNL     1      38.368  -2.069  30.224  1.00  0.00     0.246 C 
BRANCH   5   6
HETATM    6  N4  UNL     1      38.348  -3.451  30.480  1.00  0.00    -0.039 N 
HETATM    7  C3  UNL     1      37.598  -3.929  31.579  1.00  0.00     0.268 C 
HETATM    8  C2  UNL     1      37.253  -5.385  31.223  1.00  0.00     0.277 C 
HETATM    9  N3  UNL     1      37.968  -5.559  29.999  1.00  0.00     0.018 N 
HETATM   10  C1  UNL     1      37.580  -6.614  29.200  1.00  0.00     0.288 C 
HETATM   11  C14 UNL     1      39.384  -5.496  30.301  1.00  0.00     0.277 C 
HETATM   12  C15 UNL     1      37.782  -4.239  29.370  1.00  0.00     0.483 C 
HETATM   13  N1  UNL     1      36.557  -6.581  28.427  1.00  0.00    -0.367 N 
HETATM   14  N2  UNL     1      38.343  -7.826  29.208  1.00  0.00    -0.057 NA
ATOM     15  H12 UNL     1      36.271  -7.361  27.836  1.00  0.00     0.158 HD
ATOM     16  H11 UNL     1      36.015  -5.718  28.421  1.00  0.00     0.158 HD
HETATM   17  C13 UNL     1      39.679  -4.029  30.549  1.00  0.00     0.268 C 
ENDBRANCH   5   6
ENDBRANCH   1   5
BRANCH   4  18
HETATM   18  N5  UNL     1      40.725  -0.426  30.221  1.00  0.00    -0.338 N 
HETATM   19  C9  UNL     1      41.932  -1.081  29.880  1.00  0.00     0.317 C 
HETATM   20  O1  UNL     1      42.429  -1.895  30.693  1.00  0.00    -0.247 OA
HETATM   21  N6  UNL     1      42.616  -0.864  28.660  1.00  0.00    -0.328 N 
ATOM     22  H6  UNL     1      42.214  -0.202  27.997  1.00  0.00     0.165 HD
ATOM     23  H5  UNL     1      40.298   0.242  29.579  1.00  0.00     0.164 HD
BRANCH  21  24
HETATM   24  C10 UNL     1      43.845  -1.521  28.298  1.00  0.00     0.196 C 
HETATM   25  C11 UNL     1      44.306  -1.237  26.867  1.00  0.00     0.157 C 
HETATM   26  N7  UNL     1      43.447  -2.296  26.418  1.00  0.00    -0.357 N 
HETATM   27  C12 UNL     1      43.559  -2.866  27.735  1.00  0.00     0.242 C 
ATOM     28  H7  UNL     1      42.968  -2.538  25.550  1.00  0.00     0.162 HD
HETATM   29  O2  UNL     1      43.438  -4.044  28.126  1.00  0.00    -0.271 OA
ENDBRANCH  21  24
ENDBRANCH   4  18
TORSDOF 4
ENDMDL
MODEL 4
REMARK VINA RESULT: -6.452097559      1.447      1.762
REMARK  4 active torsions:
REMARK  status: ('A' for Active; 'I' for Inactive)
REMARK       I    between atoms: C1_4  and  N3_6 
REMARK    1  A    between atoms: N4_9  and  C4_10 
REMARK    2  A    between atoms: C4_10  and  C5_11 
REMARK    3  A    between atoms: C8_14  and  N5_15 
REMARK       I    between atoms: N5_15  and  C9_17 
REMARK       I    between atoms: C9_17  and  N6_19 
REMARK    4  A    between atoms: N6_19  and  C10_21 
ROOT
HETATM    1  C5  UNL     1      38.576  -0.858  31.467  1.00  0.00     0.034 C 
HETATM    2  C6  UNL     1      38.468   0.654  31.440  1.00  0.00     0.010 C 
HETATM    3  C7  UNL     1      39.742   0.654  32.259  1.00  0.00     0.026 C 
HETATM    4  C8  UNL     1      40.073  -0.647  31.559  1.00  0.00     0.091 C 
ENDROOT
BRANCH   1   5
HETATM    5  C4  UNL     1      38.105  -1.553  30.228  1.00  0.00     0.246 C 
BRANCH   5   6
HETATM    6  N4  UNL     1      37.881  -2.934  30.366  1.00  0.00    -0.039 N 
HETATM    7  C3  UNL     1      36.985  -3.571  29.476  1.00  0.00     0.268 C 
HETATM    8  C2  UNL     1      37.432  -5.042  29.446  1.00  0.00     0.277 C 
HETATM    9  N3  UNL     1      38.467  -5.049  30.431  1.00  0.00     0.018 N 
HETATM   10  C1  UNL     1      39.349  -6.109  30.395  1.00  0.00     0.288 C 
HETATM   11  C14 UNL     1      37.855  -4.793  31.719  1.00  0.00     0.277 C 
HETATM   12  C15 UNL     1      39.101  -3.741  30.186  1.00  0.00     0.483 C 
HETATM   13  N1  UNL     1      40.330  -6.189  29.574  1.00  0.00    -0.367 N 
HETATM   14  N2  UNL     1      39.188  -7.195  31.315  1.00  0.00    -0.057 NA
ATOM     15  H12 UNL     1      40.983  -6.972  29.547  1.00  0.00     0.158 HD
ATOM     16  H11 UNL     1      40.445  -5.415  28.919  1.00  0.00     0.158 HD
HETATM   17  C13 UNL     1      37.524  -3.313  31.722  1.00  0.00     0.268 C 
ENDBRANCH   5   6
ENDBRANCH   1   5
BRANCH   4  18
HETATM   18  N5  UNL     1      40.723  -0.370  30.293  1.00  0.00    -0.338 N 
HETATM   19  C9  UNL     1      41.895  -1.087  29.954  1.00  0.00     0.317 C 
HETATM   20  O1  UNL     1      42.336  -1.939  30.759  1.00  0.00    -0.247 OA
HETATM   21  N6  UNL     1      42.603  -0.891  28.744  1.00  0.00    -0.328 N 
ATOM     22  H6  UNL     1      42.246  -0.198  28.087  1.00  0.00     0.165 HD
ATOM     23  H5  UNL     1      40.341   0.330  29.657  1.00  0.00     0.164 HD
BRANCH  21  24
HETATM   24  C10 UNL     1      43.797  -1.611  28.384  1.00  0.00     0.196 C 
HETATM   25  C11 UNL     1      44.311  -1.303  26.977  1.00  0.00     0.157 C 
HETATM   26  N7  UNL     1      43.399  -2.287  26.467  1.00  0.00    -0.357 N 
HETATM   27  C12 UNL     1      43.441  -2.912  27.763  1.00  0.00     0.242 C 
ATOM     28  H7  UNL     1      42.928  -2.464  25.579  1.00  0.00     0.162 HD
HETATM   29  O2  UNL     1      43.238  -4.094  28.103  1.00  0.00    -0.271 OA
ENDBRANCH  21  24
ENDBRANCH   4  18
TORSDOF 4
ENDMDL
MODEL 5
REMARK VINA RESULT: -6.365658886      1.822      2.270
REMARK  4 active torsions:
REMARK  status: ('A' for Active; 'I' for Inactive)
REMARK       I    between atoms: C1_4  and  N3_6 
REMARK    1  A    between atoms: N4_9  and  C4_10 
REMARK    2  A    between atoms: C4_10  and  C5_11 
REMARK    3  A    between atoms: C8_14  and  N5_15 
REMARK       I    between atoms: N5_15  and  C9_17 
REMARK       I    between atoms: C9_17  and  N6_19 
REMARK    4  A    between atoms: N6_19  and  C10_21 
ROOT
HETATM    1  C5  UNL     1      39.351  -1.520  31.008  1.00  0.00     0.034 C 
HETATM    2  C6  UNL     1      38.971  -0.060  30.866  1.00  0.00     0.010 C 
HETATM    3  C7  UNL     1      40.301   0.241  31.526  1.00  0.00     0.026 C 
HETATM    4  C8  UNL     1      40.787  -1.052  30.905  1.00  0.00     0.091 C 
ENDROOT
BRANCH   1   5
HETATM    5  C4  UNL     1      38.889  -2.410  29.898  1.00  0.00     0.246 C 
BRANCH   5   6
HETATM    6  N4  UNL     1      38.472  -3.692  30.293  1.00  0.00    -0.039 N 
HETATM    7  C3  UNL     1      37.626  -4.430  29.432  1.00  0.00     0.268 C 
HETATM    8  C2  UNL     1      37.878  -5.904  29.792  1.00  0.00     0.277 C 
HETATM    9  N3  UNL     1      38.764  -5.781  30.906  1.00  0.00     0.018 N 
HETATM   10  C1  UNL     1      39.498  -6.900  31.240  1.00  0.00     0.288 C 
HETATM   11  C14 UNL     1      38.025  -5.174  31.994  1.00  0.00     0.277 C 
HETATM   12  C15 UNL     1      39.589  -4.633  30.487  1.00  0.00     0.483 C 
HETATM   13  N1  UNL     1      40.560  -7.263  30.621  1.00  0.00    -0.367 N 
HETATM   14  N2  UNL     1      39.077  -7.721  32.335  1.00  0.00    -0.057 NA
ATOM     15  H12 UNL     1      41.104  -8.090  30.868  1.00  0.00     0.158 HD
ATOM     16  H11 UNL     1      40.860  -6.678  29.841  1.00  0.00     0.158 HD
HETATM   17  C13 UNL     1      37.892  -3.709  31.625  1.00  0.00     0.268 C 
ENDBRANCH   5   6
ENDBRANCH   1   5
BRANCH   4  18
HETATM   18  N5  UNL     1      41.245  -0.802  29.552  1.00  0.00    -0.338 N 
HETATM   19  C9  UNL     1      42.402  -1.472  29.087  1.00  0.00     0.317 C 
HETATM   20  O1  UNL     1      42.996  -2.260  29.859  1.00  0.00    -0.247 OA
HETATM   21  N6  UNL     1      42.930  -1.298  27.785  1.00  0.00    -0.328 N 
ATOM     22  H6  UNL     1      42.449  -0.657  27.155  1.00  0.00     0.165 HD
ATOM     23  H5  UNL     1      40.742  -0.155  28.945  1.00  0.00     0.164 HD
BRANCH  21  24
HETATM   24  C10 UNL     1      44.106  -1.970  27.296  1.00  0.00     0.196 C 
HETATM   25  C11 UNL     1      44.941  -1.138  26.322  1.00  0.00     0.157 C 
HETATM   26  N7  UNL     1      44.079  -1.580  25.262  1.00  0.00    -0.357 N 
HETATM   27  C12 UNL     1      43.781  -2.737  26.066  1.00  0.00     0.242 C 
ATOM     28  H7  UNL     1      43.801  -1.230  24.345  1.00  0.00     0.162 HD
HETATM   29  O2  UNL     1      43.405  -3.879  25.740  1.00  0.00    -0.271 OA
ENDBRANCH  21  24
ENDBRANCH   4  18
TORSDOF 4
ENDMDL
