MODEL 1
REMARK VINA RESULT: -6.316229713      0.000      0.000
REMARK  15 active torsions:
REMARK  status: ('A' for Active; 'I' for Inactive)
REMARK    1  A    between atoms: N1_1  and  C1_5 
REMARK    2  A    between atoms: C1_5  and  C2_6 
REMARK    3  A    between atoms: C2_6  and  C3_7 
REMARK    4  A    between atoms: C3_7  and  C4_8 
REMARK    5  A    between atoms: N2_9  and  N3_11 
REMARK    6  A    between atoms: N3_11  and  C5_13 
REMARK    7  A    between atoms: C6_16  and  N5_17 
REMARK    8  A    between atoms: N5_17  and  C7_19 
REMARK    9  A    between atoms: C7_19  and  C8_20 
REMARK   10  A    between atoms: C8_20  and  O1_21 
REMARK   11  A    between atoms: C9_25  and  N7_26 
REMARK   12  A    between atoms: N7_26  and  C10_28 
REMARK   13  A    between atoms: C10_28  and  C11_29 
REMARK   14  A    between atoms: C11_29  and  C12_30 
REMARK   15  A    between atoms: C12_30  and  N8_31 
ROOT
HETATM    1  C5  UNL     1      -1.100  10.030  78.082  1.00  0.00     0.725 A 
HETATM    2  N4  UNL     1      -1.396   8.947  77.337  1.00  0.00    -0.020 N 
ATOM      3  H4  UNL     1      -0.786   8.130  77.357  1.00  0.00     0.203 HD
HETATM    4  C6  UNL     1      -2.509   8.949  76.562  1.00  0.00     0.707 A 
HETATM    5  N6  UNL     1      -3.304  10.026  76.543  1.00  0.00    -0.022 N 
ATOM      6  H6  UNL     1      -4.139  10.018  75.958  1.00  0.00     0.203 HD
HETATM    7  C9  UNL     1      -3.028  11.116  77.276  1.00  0.00     0.707 A 
HETATM    8  N9  UNL     1      -1.923  11.098  78.037  1.00  0.00    -0.020 N 
ATOM      9  H9  UNL     1      -1.699  11.918  78.601  1.00  0.00     0.203 HD
ENDROOT
BRANCH   1  10
HETATM   10  N3  UNL     1      -0.043  10.050  78.829  1.00  0.00    -0.132 N 
ATOM     11  H3  UNL     1       0.360   9.181  79.178  1.00  0.00     0.205 HD
BRANCH  10  12
HETATM   12  N2  UNL     1       0.538  11.278  79.150  1.00  0.00    -0.301 N 
HETATM   13  C4  UNL     1       1.776  11.458  78.844  1.00  0.00     0.080 C 
ATOM     14  H2  UNL     1      -0.001  12.009  79.613  1.00  0.00     0.186 HD
BRANCH  13  15
HETATM   15  C3  UNL     1       2.393  12.763  79.184  1.00  0.00     0.048 C 
BRANCH  15  16
HETATM   16  C2  UNL     1       2.236  12.965  80.674  1.00  0.00     0.032 C 
BRANCH  16  17
HETATM   17  C1  UNL     1       2.901  14.272  81.033  1.00  0.00     0.230 C 
BRANCH  17  18
HETATM   18  N1  UNL     1       3.366  14.878  79.802  1.00  0.00    -0.079 N 
ATOM     19  H13 UNL     1       2.680  14.826  79.049  1.00  0.00     0.274 HD
ATOM     20  H12 UNL     1       3.426  15.894  79.858  1.00  0.00     0.274 HD
ATOM     21  H11 UNL     1       4.255  14.441  79.560  1.00  0.00     0.274 HD
ENDBRANCH  17  18
ENDBRANCH  16  17
ENDBRANCH  15  16
ENDBRANCH  13  15
ENDBRANCH  10  12
ENDBRANCH   1  10
BRANCH   4  22
HETATM   22  N5  UNL     1      -2.792   7.927  75.858  1.00  0.00    -0.223 N 
ATOM     23  H5  UNL     1      -2.099   7.189  75.731  1.00  0.00     0.177 HD
BRANCH  22  24
HETATM   24  C7  UNL     1      -4.077   7.809  75.244  1.00  0.00     0.164 C 
BRANCH  24  25
HETATM   25  C8  UNL     1      -4.889   6.818  76.083  1.00  0.00     0.184 C 
BRANCH  25  26
HETATM   26  O1  UNL     1      -5.367   7.522  77.194  1.00  0.00    -0.399 OA
ATOM     27  H1  UNL     1      -5.664   6.874  77.823  1.00  0.00     0.209 HD
ENDBRANCH  25  26
ENDBRANCH  24  25
ENDBRANCH  22  24
ENDBRANCH   4  22
BRANCH   7  28
HETATM   28  N7  UNL     1      -3.796  12.166  77.261  1.00  0.00    -0.225 N 
ATOM     29  H7  UNL     1      -3.455  13.068  77.596  1.00  0.00     0.177 HD
BRANCH  28  30
HETATM   30  C10 UNL     1      -5.145  12.022  76.758  1.00  0.00     0.139 C 
BRANCH  30  31
HETATM   31  C11 UNL     1      -6.060  12.618  77.838  1.00  0.00     0.047 C 
BRANCH  31  32
HETATM   32  C12 UNL     1      -5.229  13.709  78.510  1.00  0.00     0.231 C 
BRANCH  32  33
HETATM   33  N8  UNL     1      -5.337  13.619  79.951  1.00  0.00    -0.079 N 
ATOM     34  H83 UNL     1      -5.743  12.731  80.246  1.00  0.00     0.274 HD
ATOM     35  H82 UNL     1      -4.423  13.523  80.393  1.00  0.00     0.274 HD
ATOM     36  H81 UNL     1      -5.856  14.413  80.323  1.00  0.00     0.274 HD
ENDBRANCH  32  33
ENDBRANCH  31  32
ENDBRANCH  30  31
ENDBRANCH  28  30
ENDBRANCH   7  28
TORSDOF 15
ENDMDL
MODEL 2
REMARK VINA RESULT: -6.261916534      1.258      5.978
REMARK  15 active torsions:
REMARK  status: ('A' for Active; 'I' for Inactive)
REMARK    1  A    between atoms: N1_1  and  C1_5 
REMARK    2  A    between atoms: C1_5  and  C2_6 
REMARK    3  A    between atoms: C2_6  and  C3_7 
REMARK    4  A    between atoms: C3_7  and  C4_8 
REMARK    5  A    between atoms: N2_9  and  N3_11 
REMARK    6  A    between atoms: N3_11  and  C5_13 
REMARK    7  A    between atoms: C6_16  and  N5_17 
REMARK    8  A    between atoms: N5_17  and  C7_19 
REMARK    9  A    between atoms: C7_19  and  C8_20 
REMARK   10  A    between atoms: C8_20  and  O1_21 
REMARK   11  A    between atoms: C9_25  and  N7_26 
REMARK   12  A    between atoms: N7_26  and  C10_28 
REMARK   13  A    between atoms: C10_28  and  C11_29 
REMARK   14  A    between atoms: C11_29  and  C12_30 
REMARK   15  A    between atoms: C12_30  and  N8_31 
ROOT
HETATM    1  C5  UNL     1      -2.968  11.283  77.247  1.00  0.00     0.725 A 
HETATM    2  N4  UNL     1      -3.238  10.172  76.535  1.00  0.00    -0.020 N 
ATOM      3  H4  UNL     1      -4.038  10.151  75.904  1.00  0.00     0.203 HD
HETATM    4  C6  UNL     1      -2.441   9.082  76.663  1.00  0.00     0.707 A 
HETATM    5  N6  UNL     1      -1.393   9.119  77.496  1.00  0.00    -0.022 N 
ATOM      6  H6  UNL     1      -0.799   8.296  77.585  1.00  0.00     0.203 HD
HETATM    7  C9  UNL     1      -1.105  10.215  78.215  1.00  0.00     0.707 A 
HETATM    8  N9  UNL     1      -1.904  11.284  78.076  1.00  0.00    -0.020 N 
ATOM      9  H9  UNL     1      -1.699  12.126  78.615  1.00  0.00     0.203 HD
ENDROOT
BRANCH   1  10
HETATM   10  N3  UNL     1      -3.715  12.335  77.140  1.00  0.00    -0.132 N 
ATOM     11  H3  UNL     1      -3.944  12.716  76.222  1.00  0.00     0.205 HD
BRANCH  10  12
HETATM   12  N2  UNL     1      -4.203  12.941  78.299  1.00  0.00    -0.301 N 
HETATM   13  C4  UNL     1      -5.436  13.314  78.312  1.00  0.00     0.080 C 
ATOM     14  H2  UNL     1      -3.602  13.084  79.110  1.00  0.00     0.186 HD
BRANCH  13  15
HETATM   15  C3  UNL     1      -5.955  13.957  79.543  1.00  0.00     0.048 C 
BRANCH  15  16
HETATM   16  C2  UNL     1      -6.979  13.023  80.147  1.00  0.00     0.032 C 
BRANCH  16  17
HETATM   17  C1  UNL     1      -7.734  12.374  79.013  1.00  0.00     0.230 C 
BRANCH  17  18
HETATM   18  N1  UNL     1      -7.957  10.989  79.373  1.00  0.00    -0.079 N 
ATOM     19  H13 UNL     1      -7.438  10.337  78.783  1.00  0.00     0.274 HD
ATOM     20  H12 UNL     1      -7.528  10.735  80.262  1.00  0.00     0.274 HD
ATOM     21  H11 UNL     1      -8.963  10.824  79.356  1.00  0.00     0.274 HD
ENDBRANCH  17  18
ENDBRANCH  16  17
ENDBRANCH  15  16
ENDBRANCH  13  15
ENDBRANCH  10  12
ENDBRANCH   1  10
BRANCH   4  22
HETATM   22  N5  UNL     1      -2.694   8.030  75.992  1.00  0.00    -0.223 N 
ATOM     23  H5  UNL     1      -2.013   7.273  75.958  1.00  0.00     0.177 HD
BRANCH  22  24
HETATM   24  C7  UNL     1      -3.930   7.908  75.284  1.00  0.00     0.164 C 
BRANCH  24  25
HETATM   25  C8  UNL     1      -4.799   6.916  76.061  1.00  0.00     0.184 C 
BRANCH  25  26
HETATM   26  O1  UNL     1      -5.297   7.598  77.177  1.00  0.00    -0.399 OA
ATOM     27  H1  UNL     1      -5.945   8.215  76.856  1.00  0.00     0.209 HD
ENDBRANCH  25  26
ENDBRANCH  24  25
ENDBRANCH  22  24
ENDBRANCH   4  22
BRANCH   7  28
HETATM   28  N7  UNL     1      -0.089  10.257  79.026  1.00  0.00    -0.225 N 
ATOM     29  H7  UNL     1       0.454   9.418  79.229  1.00  0.00     0.177 HD
BRANCH  28  30
HETATM   30  C10 UNL     1       0.253  11.527  79.630  1.00  0.00     0.139 C 
BRANCH  30  31
HETATM   31  C11 UNL     1       1.727  11.775  79.277  1.00  0.00     0.047 C 
BRANCH  31  32
HETATM   32  C12 UNL     1       2.070  13.120  79.914  1.00  0.00     0.231 C 
BRANCH  32  33
HETATM   33  N8  UNL     1       2.516  14.062  78.908  1.00  0.00    -0.079 N 
ATOM     34  H83 UNL     1       2.796  13.593  78.047  1.00  0.00     0.274 HD
ATOM     35  H82 UNL     1       1.742  14.613  78.537  1.00  0.00     0.274 HD
ATOM     36  H81 UNL     1       3.261  14.654  79.275  1.00  0.00     0.274 HD
ENDBRANCH  32  33
ENDBRANCH  31  32
ENDBRANCH  30  31
ENDBRANCH  28  30
ENDBRANCH   7  28
TORSDOF 15
ENDMDL
MODEL 3
REMARK VINA RESULT: -6.197808516      1.131      6.005
REMARK  15 active torsions:
REMARK  status: ('A' for Active; 'I' for Inactive)
REMARK    1  A    between atoms: N1_1  and  C1_5 
REMARK    2  A    between atoms: C1_5  and  C2_6 
REMARK    3  A    between atoms: C2_6  and  C3_7 
REMARK    4  A    between atoms: C3_7  and  C4_8 
REMARK    5  A    between atoms: N2_9  and  N3_11 
REMARK    6  A    between atoms: N3_11  and  C5_13 
REMARK    7  A    between atoms: C6_16  and  N5_17 
REMARK    8  A    between atoms: N5_17  and  C7_19 
REMARK    9  A    between atoms: C7_19  and  C8_20 
REMARK   10  A    between atoms: C8_20  and  O1_21 
REMARK   11  A    between atoms: C9_25  and  N7_26 
REMARK   12  A    between atoms: N7_26  and  C10_28 
REMARK   13  A    between atoms: C10_28  and  C11_29 
REMARK   14  A    between atoms: C11_29  and  C12_30 
REMARK   15  A    between atoms: C12_30  and  N8_31 
ROOT
HETATM    1  C5  UNL     1      -3.043  11.123  77.247  1.00  0.00     0.725 A 
HETATM    2  N4  UNL     1      -3.354  10.045  76.501  1.00  0.00    -0.020 N 
ATOM      3  H4  UNL     1      -4.198  10.045  75.928  1.00  0.00     0.203 HD
HETATM    4  C6  UNL     1      -2.539   8.961  76.515  1.00  0.00     0.707 A 
HETATM    5  N6  UNL     1      -1.433   8.971  77.270  1.00  0.00    -0.022 N 
ATOM      6  H6  UNL     1      -0.826   8.152  77.274  1.00  0.00     0.203 HD
HETATM    7  C9  UNL     1      -1.105  10.033  78.022  1.00  0.00     0.707 A 
HETATM    8  N9  UNL     1      -1.922  11.097  77.996  1.00  0.00    -0.020 N 
ATOM      9  H9  UNL     1      -1.687  11.913  78.562  1.00  0.00     0.203 HD
ENDROOT
BRANCH   1  10
HETATM   10  N3  UNL     1      -3.807  12.169  77.249  1.00  0.00    -0.132 N 
ATOM     11  H3  UNL     1      -3.437  13.080  76.978  1.00  0.00     0.205 HD
BRANCH  10  12
HETATM   12  N2  UNL     1      -5.144  12.032  77.626  1.00  0.00    -0.301 N 
HETATM   13  C4  UNL     1      -5.996  12.866  77.139  1.00  0.00     0.080 C 
ATOM     14  H2  UNL     1      -5.436  11.295  78.267  1.00  0.00     0.186 HD
BRANCH  13  15
HETATM   15  C3  UNL     1      -7.417  12.721  77.539  1.00  0.00     0.048 C 
BRANCH  15  16
HETATM   16  C2  UNL     1      -7.440  12.086  78.911  1.00  0.00     0.032 C 
BRANCH  16  17
HETATM   17  C1  UNL     1      -7.829  13.152  79.904  1.00  0.00     0.230 C 
BRANCH  17  18
HETATM   18  N1  UNL     1      -6.653  13.469  80.688  1.00  0.00    -0.079 N 
ATOM     19  H13 UNL     1      -5.933  12.749  80.633  1.00  0.00     0.274 HD
ATOM     20  H12 UNL     1      -6.108  14.235  80.294  1.00  0.00     0.274 HD
ATOM     21  H11 UNL     1      -6.960  13.651  81.644  1.00  0.00     0.274 HD
ENDBRANCH  17  18
ENDBRANCH  16  17
ENDBRANCH  15  16
ENDBRANCH  13  15
ENDBRANCH  10  12
ENDBRANCH   1  10
BRANCH   4  22
HETATM   22  N5  UNL     1      -2.829   7.942  75.810  1.00  0.00    -0.223 N 
ATOM     23  H5  UNL     1      -2.128   7.220  75.647  1.00  0.00     0.177 HD
BRANCH  22  24
HETATM   24  C7  UNL     1      -4.136   7.805  75.247  1.00  0.00     0.164 C 
BRANCH  24  25
HETATM   25  C8  UNL     1      -4.907   6.819  76.128  1.00  0.00     0.184 C 
BRANCH  25  26
HETATM   26  O1  UNL     1      -5.387   7.544  77.225  1.00  0.00    -0.399 OA
ATOM     27  H1  UNL     1      -6.112   8.071  76.911  1.00  0.00     0.209 HD
ENDBRANCH  25  26
ENDBRANCH  24  25
ENDBRANCH  22  24
ENDBRANCH   4  22
BRANCH   7  28
HETATM   28  N7  UNL     1      -0.032  10.048  78.758  1.00  0.00    -0.225 N 
ATOM     29  H7  UNL     1       0.766   9.454  78.533  1.00  0.00     0.177 HD
BRANCH  28  30
HETATM   30  C10 UNL     1      -0.001  10.932  79.904  1.00  0.00     0.139 C 
BRANCH  30  31
HETATM   31  C11 UNL     1       1.447  11.434  80.004  1.00  0.00     0.047 C 
BRANCH  31  32
HETATM   32  C12 UNL     1       1.403  12.883  79.522  1.00  0.00     0.231 C 
BRANCH  32  33
HETATM   33  N8  UNL     1       2.727  13.340  79.154  1.00  0.00    -0.079 N 
ATOM     34  H83 UNL     1       3.428  13.061  79.841  1.00  0.00     0.274 HD
ATOM     35  H82 UNL     1       3.092  12.832  78.348  1.00  0.00     0.274 HD
ATOM     36  H81 UNL     1       2.730  14.347  79.000  1.00  0.00     0.274 HD
ENDBRANCH  32  33
ENDBRANCH  31  32
ENDBRANCH  30  31
ENDBRANCH  28  30
ENDBRANCH   7  28
TORSDOF 15
ENDMDL
MODEL 4
REMARK VINA RESULT: -6.190991509      2.738      6.652
REMARK  15 active torsions:
REMARK  status: ('A' for Active; 'I' for Inactive)
REMARK    1  A    between atoms: N1_1  and  C1_5 
REMARK    2  A    between atoms: C1_5  and  C2_6 
REMARK    3  A    between atoms: C2_6  and  C3_7 
REMARK    4  A    between atoms: C3_7  and  C4_8 
REMARK    5  A    between atoms: N2_9  and  N3_11 
REMARK    6  A    between atoms: N3_11  and  C5_13 
REMARK    7  A    between atoms: C6_16  and  N5_17 
REMARK    8  A    between atoms: N5_17  and  C7_19 
REMARK    9  A    between atoms: C7_19  and  C8_20 
REMARK   10  A    between atoms: C8_20  and  O1_21 
REMARK   11  A    between atoms: C9_25  and  N7_26 
REMARK   12  A    between atoms: N7_26  and  C10_28 
REMARK   13  A    between atoms: C10_28  and  C11_29 
REMARK   14  A    between atoms: C11_29  and  C12_30 
REMARK   15  A    between atoms: C12_30  and  N8_31 
ROOT
HETATM    1  C5  UNL     1      -2.109  12.018  78.309  1.00  0.00     0.725 A 
HETATM    2  N4  UNL     1      -1.098  11.810  79.174  1.00  0.00    -0.020 N 
ATOM      3  H4  UNL     1      -0.788  12.561  79.791  1.00  0.00     0.203 HD
HETATM    4  C6  UNL     1      -0.493  10.597  79.221  1.00  0.00     0.707 A 
HETATM    5  N6  UNL     1      -0.906   9.616  78.408  1.00  0.00    -0.022 N 
ATOM      6  H6  UNL     1      -0.447   8.707  78.451  1.00  0.00     0.203 HD
HETATM    7  C9  UNL     1      -1.911   9.802  77.537  1.00  0.00     0.707 A 
HETATM    8  N9  UNL     1      -2.498  11.008  77.504  1.00  0.00    -0.020 N 
ATOM      9  H9  UNL     1      -3.264  11.166  76.849  1.00  0.00     0.203 HD
ENDROOT
BRANCH   1  10
HETATM   10  N3  UNL     1      -2.700  13.169  78.248  1.00  0.00    -0.132 N 
ATOM     11  H3  UNL     1      -2.168  14.013  78.041  1.00  0.00     0.205 HD
BRANCH  10  12
HETATM   12  N2  UNL     1      -4.077  13.236  78.467  1.00  0.00    -0.301 N 
HETATM   13  C4  UNL     1      -4.578  14.371  78.812  1.00  0.00     0.080 C 
ATOM     14  H2  UNL     1      -4.668  12.412  78.357  1.00  0.00     0.186 HD
BRANCH  13  15
HETATM   15  C3  UNL     1      -6.041  14.444  79.044  1.00  0.00     0.048 C 
BRANCH  15  16
HETATM   16  C2  UNL     1      -6.353  13.581  80.246  1.00  0.00     0.032 C 
BRANCH  16  17
HETATM   17  C1  UNL     1      -7.575  12.759  79.917  1.00  0.00     0.230 C 
BRANCH  17  18
HETATM   18  N1  UNL     1      -7.155  11.681  79.045  1.00  0.00    -0.079 N 
ATOM     19  H13 UNL     1      -7.137  11.950  78.060  1.00  0.00     0.274 HD
ATOM     20  H12 UNL     1      -6.165  11.456  79.140  1.00  0.00     0.274 HD
ATOM     21  H11 UNL     1      -7.763  10.883  79.227  1.00  0.00     0.274 HD
ENDBRANCH  17  18
ENDBRANCH  16  17
ENDBRANCH  15  16
ENDBRANCH  13  15
ENDBRANCH  10  12
ENDBRANCH   1  10
BRANCH   4  22
HETATM   22  N5  UNL     1       0.463  10.397  80.038  1.00  0.00    -0.223 N 
ATOM     23  H5  UNL     1       0.482   9.546  80.599  1.00  0.00     0.177 HD
BRANCH  22  24
HETATM   24  C7  UNL     1       1.509  11.361  80.171  1.00  0.00     0.164 C 
BRANCH  24  25
HETATM   25  C8  UNL     1       2.242  11.421  78.828  1.00  0.00     0.184 C 
BRANCH  25  26
HETATM   26  O1  UNL     1       3.150  10.356  78.813  1.00  0.00    -0.399 OA
ATOM     27  H1  UNL     1       2.948   9.833  78.045  1.00  0.00     0.209 HD
ENDBRANCH  25  26
ENDBRANCH  24  25
ENDBRANCH  22  24
ENDBRANCH   4  22
BRANCH   7  28
HETATM   28  N7  UNL     1      -2.317   8.854  76.744  1.00  0.00    -0.225 N 
ATOM     29  H7  UNL     1      -1.790   7.985  76.655  1.00  0.00     0.177 HD
BRANCH  28  30
HETATM   30  C10 UNL     1      -3.535   9.065  75.993  1.00  0.00     0.139 C 
BRANCH  30  31
HETATM   31  C11 UNL     1      -3.820   7.735  75.278  1.00  0.00     0.047 C 
BRANCH  31  32
HETATM   32  C12 UNL     1      -4.930   7.073  76.091  1.00  0.00     0.231 C 
BRANCH  32  33
HETATM   33  N8  UNL     1      -5.527   5.983  75.348  1.00  0.00    -0.079 N 
ATOM     34  H83 UNL     1      -6.373   6.277  74.860  1.00  0.00     0.274 HD
ATOM     35  H82 UNL     1      -4.965   5.725  74.537  1.00  0.00     0.274 HD
ATOM     36  H81 UNL     1      -5.700   5.184  75.957  1.00  0.00     0.274 HD
ENDBRANCH  32  33
ENDBRANCH  31  32
ENDBRANCH  30  31
ENDBRANCH  28  30
ENDBRANCH   7  28
TORSDOF 15
ENDMDL
MODEL 5
REMARK VINA RESULT: -6.170991722      2.289      7.444
REMARK  15 active torsions:
REMARK  status: ('A' for Active; 'I' for Inactive)
REMARK    1  A    between atoms: N1_1  and  C1_5 
REMARK    2  A    between atoms: C1_5  and  C2_6 
REMARK    3  A    between atoms: C2_6  and  C3_7 
REMARK    4  A    between atoms: C3_7  and  C4_8 
REMARK    5  A    between atoms: N2_9  and  N3_11 
REMARK    6  A    between atoms: N3_11  and  C5_13 
REMARK    7  A    between atoms: C6_16  and  N5_17 
REMARK    8  A    between atoms: N5_17  and  C7_19 
REMARK    9  A    between atoms: C7_19  and  C8_20 
REMARK   10  A    between atoms: C8_20  and  O1_21 
REMARK   11  A    between atoms: C9_25  and  N7_26 
REMARK   12  A    between atoms: N7_26  and  C10_28 
REMARK   13  A    between atoms: C10_28  and  C11_29 
REMARK   14  A    between atoms: C11_29  and  C12_30 
REMARK   15  A    between atoms: C12_30  and  N8_31 
ROOT
HETATM    1  C5  UNL     1      -2.064   9.748  77.303  1.00  0.00     0.725 A 
HETATM    2  N4  UNL     1      -2.810  10.867  77.234  1.00  0.00    -0.020 N 
ATOM      3  H4  UNL     1      -3.623  10.903  76.621  1.00  0.00     0.203 HD
HETATM    4  C6  UNL     1      -2.474  11.946  77.985  1.00  0.00     0.707 A 
HETATM    5  N6  UNL     1      -1.403  11.888  78.788  1.00  0.00    -0.022 N 
ATOM      6  H6  UNL     1      -1.158  12.704  79.349  1.00  0.00     0.203 HD
HETATM    7  C9  UNL     1      -0.645  10.784  78.871  1.00  0.00     0.707 A 
HETATM    8  N9  UNL     1      -0.993   9.727  78.122  1.00  0.00    -0.020 N 
ATOM      9  H9  UNL     1      -0.428   8.879  78.174  1.00  0.00     0.203 HD
ENDROOT
BRANCH   1  10
HETATM   10  N3  UNL     1      -2.367   8.706  76.595  1.00  0.00    -0.132 N 
ATOM     11  H3  UNL     1      -1.639   8.175  76.119  1.00  0.00     0.205 HD
BRANCH  10  12
HETATM   12  N2  UNL     1      -3.705   8.320  76.495  1.00  0.00    -0.301 N 
HETATM   13  C4  UNL     1      -4.054   7.615  75.475  1.00  0.00     0.080 C 
ATOM     14  H2  UNL     1      -4.384   8.589  77.206  1.00  0.00     0.186 HD
BRANCH  13  15
HETATM   15  C3  UNL     1      -5.475   7.204  75.368  1.00  0.00     0.048 C 
BRANCH  15  16
HETATM   16  C2  UNL     1      -6.291   8.171  76.195  1.00  0.00     0.032 C 
BRANCH  16  17
HETATM   17  C1  UNL     1      -7.191   8.934  75.255  1.00  0.00     0.230 C 
BRANCH  17  18
HETATM   18  N1  UNL     1      -8.221   8.022  74.799  1.00  0.00    -0.079 N 
ATOM     19  H13 UNL     1      -8.270   7.168  75.356  1.00  0.00     0.274 HD
ATOM     20  H12 UNL     1      -9.164   8.361  74.990  1.00  0.00     0.274 HD
ATOM     21  H11 UNL     1      -8.057   7.842  73.809  1.00  0.00     0.274 HD
ENDBRANCH  17  18
ENDBRANCH  16  17
ENDBRANCH  15  16
ENDBRANCH  13  15
ENDBRANCH  10  12
ENDBRANCH   1  10
BRANCH   4  22
HETATM   22  N5  UNL     1      -3.176  13.005  77.922  1.00  0.00    -0.223 N 
ATOM     23  H5  UNL     1      -3.925  13.078  77.233  1.00  0.00     0.177 HD
BRANCH  22  24
HETATM   24  C7  UNL     1      -2.920  14.093  78.813  1.00  0.00     0.164 C 
BRANCH  24  25
HETATM   25  C8  UNL     1      -4.277  14.636  79.265  1.00  0.00     0.184 C 
BRANCH  25  26
HETATM   26  O1  UNL     1      -4.856  13.658  80.082  1.00  0.00    -0.399 OA
ATOM     27  H1  UNL     1      -5.173  12.971  79.506  1.00  0.00     0.209 HD
ENDBRANCH  25  26
ENDBRANCH  24  25
ENDBRANCH  22  24
ENDBRANCH   4  22
BRANCH   7  28
HETATM   28  N7  UNL     1       0.395  10.723  79.649  1.00  0.00    -0.225 N 
ATOM     29  H7  UNL     1       0.337  10.281  80.567  1.00  0.00     0.177 HD
BRANCH  28  30
HETATM   30  C10 UNL     1       1.638  11.295  79.177  1.00  0.00     0.139 C 
BRANCH  30  31
HETATM   31  C11 UNL     1       1.922  12.492  80.098  1.00  0.00     0.047 C 
BRANCH  31  32
HETATM   32  C12 UNL     1       2.286  13.641  79.160  1.00  0.00     0.231 C 
BRANCH  32  33
HETATM   33  N8  UNL     1       3.174  14.577  79.819  1.00  0.00    -0.079 N 
ATOM     34  H83 UNL     1       3.899  14.918  79.188  1.00  0.00     0.274 HD
ATOM     35  H82 UNL     1       2.710  15.464  80.014  1.00  0.00     0.274 HD
ATOM     36  H81 UNL     1       3.570  14.163  80.662  1.00  0.00     0.274 HD
ENDBRANCH  32  33
ENDBRANCH  31  32
ENDBRANCH  30  31
ENDBRANCH  28  30
ENDBRANCH   7  28
TORSDOF 15
ENDMDL
