MODEL 1
REMARK VINA RESULT: -6.355032901      0.000      0.000
REMARK  13 active torsions:
REMARK  status: ('A' for Active; 'I' for Inactive)
REMARK    1  A    between atoms: N1_1  and  C1_5 
REMARK    2  A    between atoms: C1_5  and  N2_6 
REMARK    3  A    between atoms: N2_6  and  C2_8 
REMARK    4  A    between atoms: C2_8  and  C3_9 
REMARK    5  A    between atoms: C2_8  and  N3_19 
REMARK    6  A    between atoms: C3_9  and  C4_10 
REMARK    7  A    between atoms: C7_13  and  C8_14 
REMARK    8  A    between atoms: C8_14  and  O1_15 
REMARK    9  A    between atoms: C11_21  and  C12_22 
REMARK   10  A    between atoms: C12_22  and  N4_23 
REMARK   11  A    between atoms: N4_23  and  N5_24 
REMARK   12  A    between atoms: N4_23  and  C13_27 
REMARK   13  A    between atoms: C16_30  and  N6_31 
ROOT
HETATM    1  C2  UNL     1      -3.347   9.247  76.294  1.00  0.00     0.202 C 
ENDROOT
BRANCH   1   2
HETATM    2  N2  UNL     1      -3.938   8.005  76.195  1.00  0.00    -0.377 N 
ATOM      3  H2  UNL     1      -4.127   7.518  77.070  1.00  0.00     0.157 HD
BRANCH   2   4
HETATM    4  C1  UNL     1      -4.300   7.354  75.037  1.00  0.00     0.349 C 
BRANCH   4   5
HETATM    5  N1  UNL     1      -5.774   6.975  75.158  1.00  0.00    -0.064 N 
ATOM      6  H13 UNL     1      -6.072   6.309  74.445  1.00  0.00     0.276 HD
ATOM      7  H12 UNL     1      -5.967   6.393  75.974  1.00  0.00     0.276 HD
ATOM      8  H11 UNL     1      -6.318   7.837  75.148  1.00  0.00     0.276 HD
ENDBRANCH   4   5
ENDBRANCH   2   4
ENDBRANCH   1   2
BRANCH   1   9
HETATM    9  C3  UNL     1      -4.046  10.449  75.924  1.00  0.00     0.030 C 
BRANCH   9  10
HETATM   10  C4  UNL     1      -5.021  11.220  76.646  1.00  0.00    -0.036 A 
HETATM   11  C5  UNL     1      -6.283  10.616  76.934  1.00  0.00     0.012 A 
HETATM   12  C6  UNL     1      -7.182  11.184  77.763  1.00  0.00     0.010 A 
HETATM   13  C7  UNL     1      -6.956  12.378  78.382  1.00  0.00    -0.035 A 
HETATM   14  C9  UNL     1      -5.749  12.982  78.124  1.00  0.00     0.010 A 
HETATM   15  C10 UNL     1      -4.824  12.432  77.296  1.00  0.00     0.012 A 
BRANCH  13  16
HETATM   16  C8  UNL     1      -7.890  12.991  79.378  1.00  0.00     0.202 C 
BRANCH  16  17
HETATM   17  O1  UNL     1      -7.426  12.615  80.678  1.00  0.00    -0.396 OA
ATOM     18  H1  UNL     1      -7.303  13.416  81.174  1.00  0.00     0.209 HD
ENDBRANCH  16  17
ENDBRANCH  13  16
ENDBRANCH   9  10
ENDBRANCH   1   9
BRANCH   1  19
HETATM   19  N3  UNL     1      -2.882   9.530  77.728  1.00  0.00    -0.374 N 
HETATM   20  C11 UNL     1      -1.691   9.866  77.876  1.00  0.00     0.104 C 
ATOM     21  H3  UNL     1      -3.517   9.448  78.522  1.00  0.00     0.161 HD
BRANCH  20  22
HETATM   22  C12 UNL     1      -0.923  10.205  79.111  1.00  0.00     0.127 C 
BRANCH  22  23
HETATM   23  N4  UNL     1      -0.713  11.563  79.407  1.00  0.00    -0.302 N 
BRANCH  23  24
HETATM   24  N5  UNL     1      -1.756  12.435  79.334  1.00  0.00    -0.343 N 
ATOM     25  H52 UNL     1      -2.268  12.404  78.452  1.00  0.00     0.177 HD
ATOM     26  H51 UNL     1      -2.259  12.690  80.183  1.00  0.00     0.177 HD
ENDBRANCH  23  24
BRANCH  23  27
HETATM   27  C13 UNL     1       0.534  12.130  79.117  1.00  0.00     0.137 C 
HETATM   28  C14 UNL     1       0.690  13.560  79.570  1.00  0.00     0.031 C 
HETATM   29  C15 UNL     1       2.193  13.249  79.695  1.00  0.00     0.037 C 
HETATM   30  C16 UNL     1       1.752  11.792  79.910  1.00  0.00     0.208 C 
BRANCH  30  31
HETATM   31  N6  UNL     1       2.672  10.874  79.219  1.00  0.00    -0.073 N 
ATOM     32  H63 UNL     1       2.812  11.165  78.252  1.00  0.00     0.274 HD
ATOM     33  H62 UNL     1       3.623  10.986  79.570  1.00  0.00     0.274 HD
ATOM     34  H61 UNL     1       2.385   9.896  79.263  1.00  0.00     0.274 HD
ENDBRANCH  30  31
ENDBRANCH  23  27
ENDBRANCH  22  23
ENDBRANCH  20  22
ENDBRANCH   1  19
TORSDOF 13
ENDMDL
MODEL 2
REMARK VINA RESULT: -6.203203056      0.800      1.137
REMARK  13 active torsions:
REMARK  status: ('A' for Active; 'I' for Inactive)
REMARK    1  A    between atoms: N1_1  and  C1_5 
REMARK    2  A    between atoms: C1_5  and  N2_6 
REMARK    3  A    between atoms: N2_6  and  C2_8 
REMARK    4  A    between atoms: C2_8  and  C3_9 
REMARK    5  A    between atoms: C2_8  and  N3_19 
REMARK    6  A    between atoms: C3_9  and  C4_10 
REMARK    7  A    between atoms: C7_13  and  C8_14 
REMARK    8  A    between atoms: C8_14  and  O1_15 
REMARK    9  A    between atoms: C11_21  and  C12_22 
REMARK   10  A    between atoms: C12_22  and  N4_23 
REMARK   11  A    between atoms: N4_23  and  N5_24 
REMARK   12  A    between atoms: N4_23  and  C13_27 
REMARK   13  A    between atoms: C16_30  and  N6_31 
ROOT
HETATM    1  C2  UNL     1      -3.341   9.307  76.306  1.00  0.00     0.202 C 
ENDROOT
BRANCH   1   2
HETATM    2  N2  UNL     1      -3.971   8.081  76.242  1.00  0.00    -0.377 N 
ATOM      3  H2  UNL     1      -4.245   7.663  77.131  1.00  0.00     0.157 HD
BRANCH   2   4
HETATM    4  C1  UNL     1      -4.269   7.365  75.105  1.00  0.00     0.349 C 
BRANCH   4   5
HETATM    5  N1  UNL     1      -5.664   6.771  75.282  1.00  0.00    -0.064 N 
ATOM      6  H13 UNL     1      -5.653   5.757  75.392  1.00  0.00     0.276 HD
ATOM      7  H12 UNL     1      -6.079   6.999  76.186  1.00  0.00     0.276 HD
ATOM      8  H11 UNL     1      -6.235   7.078  74.494  1.00  0.00     0.276 HD
ENDBRANCH   4   5
ENDBRANCH   2   4
ENDBRANCH   1   2
BRANCH   1   9
HETATM    9  C3  UNL     1      -4.023  10.527  75.963  1.00  0.00     0.030 C 
BRANCH   9  10
HETATM   10  C4  UNL     1      -5.024  11.266  76.680  1.00  0.00    -0.036 A 
HETATM   11  C5  UNL     1      -6.267  10.622  76.964  1.00  0.00     0.012 A 
HETATM   12  C6  UNL     1      -7.188  11.163  77.788  1.00  0.00     0.010 A 
HETATM   13  C7  UNL     1      -7.003  12.364  78.406  1.00  0.00    -0.035 A 
HETATM   14  C9  UNL     1      -5.815  13.006  78.152  1.00  0.00     0.010 A 
HETATM   15  C10 UNL     1      -4.870  12.485  77.328  1.00  0.00     0.012 A 
BRANCH  13  16
HETATM   16  C8  UNL     1      -7.960  12.948  79.398  1.00  0.00     0.202 C 
BRANCH  16  17
HETATM   17  O1  UNL     1      -7.472  12.617  80.701  1.00  0.00    -0.396 OA
ATOM     18  H1  UNL     1      -6.630  12.192  80.585  1.00  0.00     0.209 HD
ENDBRANCH  16  17
ENDBRANCH  13  16
ENDBRANCH   9  10
ENDBRANCH   1   9
BRANCH   1  19
HETATM   19  N3  UNL     1      -2.798   9.583  77.713  1.00  0.00    -0.374 N 
HETATM   20  C11 UNL     1      -1.624   9.992  77.792  1.00  0.00     0.104 C 
ATOM     21  H3  UNL     1      -3.370   9.438  78.545  1.00  0.00     0.161 HD
BRANCH  20  22
HETATM   22  C12 UNL     1      -0.796  10.349  78.982  1.00  0.00     0.127 C 
BRANCH  22  23
HETATM   23  N4  UNL     1      -0.783  11.691  79.400  1.00  0.00    -0.302 N 
BRANCH  23  24
HETATM   24  N5  UNL     1      -1.693  12.563  78.886  1.00  0.00    -0.343 N 
ATOM     25  H52 UNL     1      -2.419  12.126  78.318  1.00  0.00     0.177 HD
ATOM     26  H51 UNL     1      -1.920  13.415  79.399  1.00  0.00     0.177 HD
ENDBRANCH  23  24
BRANCH  23  27
HETATM   27  C13 UNL     1       0.441  12.275  79.750  1.00  0.00     0.137 C 
HETATM   28  C14 UNL     1       1.644  11.642  79.096  1.00  0.00     0.031 C 
HETATM   29  C15 UNL     1       2.307  13.026  79.212  1.00  0.00     0.037 C 
HETATM   30  C16 UNL     1       0.876  13.584  79.180  1.00  0.00     0.208 C 
BRANCH  30  31
HETATM   31  N6  UNL     1       0.746  14.710  80.120  1.00  0.00    -0.073 N 
ATOM     32  H63 UNL     1       0.863  15.600  79.634  1.00  0.00     0.274 HD
ATOM     33  H62 UNL     1      -0.221  14.811  80.429  1.00  0.00     0.274 HD
ATOM     34  H61 UNL     1       1.376  14.651  80.920  1.00  0.00     0.274 HD
ENDBRANCH  30  31
ENDBRANCH  23  27
ENDBRANCH  22  23
ENDBRANCH  20  22
ENDBRANCH   1  19
TORSDOF 13
ENDMDL
MODEL 3
REMARK VINA RESULT: -6.056078137      6.040      9.114
REMARK  13 active torsions:
REMARK  status: ('A' for Active; 'I' for Inactive)
REMARK    1  A    between atoms: N1_1  and  C1_5 
REMARK    2  A    between atoms: C1_5  and  N2_6 
REMARK    3  A    between atoms: N2_6  and  C2_8 
REMARK    4  A    between atoms: C2_8  and  C3_9 
REMARK    5  A    between atoms: C2_8  and  N3_19 
REMARK    6  A    between atoms: C3_9  and  C4_10 
REMARK    7  A    between atoms: C7_13  and  C8_14 
REMARK    8  A    between atoms: C8_14  and  O1_15 
REMARK    9  A    between atoms: C11_21  and  C12_22 
REMARK   10  A    between atoms: C12_22  and  N4_23 
REMARK   11  A    between atoms: N4_23  and  N5_24 
REMARK   12  A    between atoms: N4_23  and  C13_27 
REMARK   13  A    between atoms: C16_30  and  N6_31 
ROOT
HETATM    1  C2  UNL     1      -9.514   8.593  74.309  1.00  0.00     0.202 C 
ENDROOT
BRANCH   1   2
HETATM    2  N2  UNL     1     -10.087   7.339  74.261  1.00  0.00    -0.377 N 
ATOM      3  H2  UNL     1      -9.596   6.593  74.752  1.00  0.00     0.157 HD
BRANCH   2   4
HETATM    4  C1  UNL     1     -11.254   6.990  73.618  1.00  0.00     0.349 C 
BRANCH   4   5
HETATM    5  N1  UNL     1     -11.893   5.848  74.404  1.00  0.00    -0.064 N 
ATOM      6  H13 UNL     1     -12.229   6.138  75.322  1.00  0.00     0.276 HD
ATOM      7  H12 UNL     1     -12.791   5.556  74.018  1.00  0.00     0.276 HD
ATOM      8  H11 UNL     1     -11.216   5.087  74.452  1.00  0.00     0.276 HD
ENDBRANCH   4   5
ENDBRANCH   2   4
ENDBRANCH   1   2
BRANCH   1   9
HETATM    9  C3  UNL     1      -8.582   8.959  75.342  1.00  0.00     0.030 C 
BRANCH   9  10
HETATM   10  C4  UNL     1      -7.148   8.886  75.372  1.00  0.00    -0.036 A 
HETATM   11  C5  UNL     1      -6.410  10.106  75.466  1.00  0.00     0.012 A 
HETATM   12  C6  UNL     1      -5.080  10.129  75.690  1.00  0.00     0.010 A 
HETATM   13  C7  UNL     1      -4.341   8.992  75.837  1.00  0.00    -0.035 A 
HETATM   14  C9  UNL     1      -5.026   7.803  75.752  1.00  0.00     0.010 A 
HETATM   15  C10 UNL     1      -6.364   7.750  75.529  1.00  0.00     0.012 A 
BRANCH  13  16
HETATM   16  C8  UNL     1      -2.884   8.982  76.178  1.00  0.00     0.202 C 
BRANCH  16  17
HETATM   17  O1  UNL     1      -2.387   7.678  75.865  1.00  0.00    -0.396 OA
ATOM     18  H1  UNL     1      -2.972   7.050  76.272  1.00  0.00     0.209 HD
ENDBRANCH  16  17
ENDBRANCH  13  16
ENDBRANCH   9  10
ENDBRANCH   1   9
BRANCH   1  19
HETATM   19  N3  UNL     1      -8.755   8.909  73.014  1.00  0.00    -0.374 N 
HETATM   20  C11 UNL     1      -9.146   9.897  72.362  1.00  0.00     0.104 C 
ATOM     21  H3  UNL     1      -7.969   8.339  72.702  1.00  0.00     0.161 HD
BRANCH  20  22
HETATM   22  C12 UNL     1      -8.646  10.473  71.078  1.00  0.00     0.127 C 
BRANCH  22  23
HETATM   23  N4  UNL     1      -8.792  11.856  70.874  1.00  0.00    -0.302 N 
BRANCH  23  24
HETATM   24  N5  UNL     1     -10.030  12.419  70.950  1.00  0.00    -0.343 N 
ATOM     25  H52 UNL     1     -10.748  11.928  70.418  1.00  0.00     0.177 HD
ATOM     26  H51 UNL     1     -10.303  12.920  71.796  1.00  0.00     0.177 HD
ENDBRANCH  23  24
BRANCH  23  27
HETATM   27  C13 UNL     1      -7.919  12.502  69.989  1.00  0.00     0.137 C 
HETATM   28  C14 UNL     1      -6.496  12.601  70.477  1.00  0.00     0.031 C 
HETATM   29  C15 UNL     1      -6.094  12.593  68.991  1.00  0.00     0.037 C 
HETATM   30  C16 UNL     1      -7.405  11.825  68.762  1.00  0.00     0.208 C 
BRANCH  30  31
HETATM   31  N6  UNL     1      -8.052  12.279  67.521  1.00  0.00    -0.073 N 
ATOM     32  H63 UNL     1      -8.038  11.541  66.816  1.00  0.00     0.274 HD
ATOM     33  H62 UNL     1      -9.059  12.369  67.652  1.00  0.00     0.274 HD
ATOM     34  H61 UNL     1      -7.659  13.142  67.146  1.00  0.00     0.274 HD
ENDBRANCH  30  31
ENDBRANCH  23  27
ENDBRANCH  22  23
ENDBRANCH  20  22
ENDBRANCH   1  19
TORSDOF 13
ENDMDL
MODEL 4
REMARK VINA RESULT: -6.010891227      3.425      7.315
REMARK  13 active torsions:
REMARK  status: ('A' for Active; 'I' for Inactive)
REMARK    1  A    between atoms: N1_1  and  C1_5 
REMARK    2  A    between atoms: C1_5  and  N2_6 
REMARK    3  A    between atoms: N2_6  and  C2_8 
REMARK    4  A    between atoms: C2_8  and  C3_9 
REMARK    5  A    between atoms: C2_8  and  N3_19 
REMARK    6  A    between atoms: C3_9  and  C4_10 
REMARK    7  A    between atoms: C7_13  and  C8_14 
REMARK    8  A    between atoms: C8_14  and  O1_15 
REMARK    9  A    between atoms: C11_21  and  C12_22 
REMARK   10  A    between atoms: C12_22  and  N4_23 
REMARK   11  A    between atoms: N4_23  and  N5_24 
REMARK   12  A    between atoms: N4_23  and  C13_27 
REMARK   13  A    between atoms: C16_30  and  N6_31 
ROOT
HETATM    1  C2  UNL     1      -3.605  13.593  78.424  1.00  0.00     0.202 C 
ENDROOT
BRANCH   1   2
HETATM    2  N2  UNL     1      -4.278  13.752  79.618  1.00  0.00    -0.377 N 
ATOM      3  H2  UNL     1      -3.800  13.429  80.458  1.00  0.00     0.157 HD
BRANCH   2   4
HETATM    4  C1  UNL     1      -5.528  14.302  79.792  1.00  0.00     0.349 C 
BRANCH   4   5
HETATM    5  N1  UNL     1      -6.354  13.324  80.623  1.00  0.00    -0.064 N 
ATOM      6  H13 UNL     1      -5.843  12.473  80.858  1.00  0.00     0.276 HD
ATOM      7  H12 UNL     1      -6.515  13.651  81.575  1.00  0.00     0.276 HD
ATOM      8  H11 UNL     1      -7.219  13.139  80.115  1.00  0.00     0.276 HD
ENDBRANCH   4   5
ENDBRANCH   2   4
ENDBRANCH   1   2
BRANCH   1   9
HETATM    9  C3  UNL     1      -2.329  12.930  78.358  1.00  0.00     0.030 C 
BRANCH   9  10
HETATM   10  C4  UNL     1      -1.104  13.196  79.060  1.00  0.00    -0.036 A 
HETATM   11  C5  UNL     1      -0.222  12.104  79.319  1.00  0.00     0.012 A 
HETATM   12  C6  UNL     1       1.026  12.283  79.798  1.00  0.00     0.010 A 
HETATM   13  C7  UNL     1       1.536  13.516  80.074  1.00  0.00    -0.035 A 
HETATM   14  C9  UNL     1       0.709  14.588  79.833  1.00  0.00     0.010 A 
HETATM   15  C10 UNL     1      -0.551  14.438  79.350  1.00  0.00     0.012 A 
BRANCH  13  16
HETATM   16  C8  UNL     1       2.945  13.757  80.517  1.00  0.00     0.202 C 
BRANCH  16  17
HETATM   17  O1  UNL     1       3.423  14.900  79.801  1.00  0.00    -0.396 OA
ATOM     18  H1  UNL     1       4.364  14.937  79.928  1.00  0.00     0.209 HD
ENDBRANCH  16  17
ENDBRANCH  13  16
ENDBRANCH   9  10
ENDBRANCH   1   9
BRANCH   1  19
HETATM   19  N3  UNL     1      -4.457  12.831  77.401  1.00  0.00    -0.374 N 
HETATM   20  C11 UNL     1      -3.922  11.855  76.840  1.00  0.00     0.104 C 
ATOM     21  H3  UNL     1      -5.415  13.110  77.189  1.00  0.00     0.161 HD
BRANCH  20  22
HETATM   22  C12 UNL     1      -4.455  10.914  75.811  1.00  0.00     0.127 C 
BRANCH  22  23
HETATM   23  N4  UNL     1      -5.309   9.882  76.238  1.00  0.00    -0.302 N 
BRANCH  23  24
HETATM   24  N5  UNL     1      -6.250  10.139  77.187  1.00  0.00    -0.343 N 
ATOM     25  H52 UNL     1      -6.268  11.107  77.510  1.00  0.00     0.177 HD
ATOM     26  H51 UNL     1      -7.120   9.606  77.191  1.00  0.00     0.177 HD
ENDBRANCH  23  24
BRANCH  23  27
HETATM   27  C13 UNL     1      -4.824   8.568  76.248  1.00  0.00     0.137 C 
HETATM   28  C14 UNL     1      -5.729   7.563  75.579  1.00  0.00     0.031 C 
HETATM   29  C15 UNL     1      -4.448   6.770  75.267  1.00  0.00     0.037 C 
HETATM   30  C16 UNL     1      -3.732   8.129  75.330  1.00  0.00     0.208 C 
BRANCH  30  31
HETATM   31  N6  UNL     1      -2.425   7.987  75.991  1.00  0.00    -0.073 N 
ATOM     32  H63 UNL     1      -2.167   8.851  76.468  1.00  0.00     0.274 HD
ATOM     33  H62 UNL     1      -2.494   7.363  76.795  1.00  0.00     0.274 HD
ATOM     34  H61 UNL     1      -1.679   7.685  75.364  1.00  0.00     0.274 HD
ENDBRANCH  30  31
ENDBRANCH  23  27
ENDBRANCH  22  23
ENDBRANCH  20  22
ENDBRANCH   1  19
TORSDOF 13
ENDMDL
MODEL 5
REMARK VINA RESULT: -6.010238506      2.990      4.629
REMARK  13 active torsions:
REMARK  status: ('A' for Active; 'I' for Inactive)
REMARK    1  A    between atoms: N1_1  and  C1_5 
REMARK    2  A    between atoms: C1_5  and  N2_6 
REMARK    3  A    between atoms: N2_6  and  C2_8 
REMARK    4  A    between atoms: C2_8  and  C3_9 
REMARK    5  A    between atoms: C2_8  and  N3_19 
REMARK    6  A    between atoms: C3_9  and  C4_10 
REMARK    7  A    between atoms: C7_13  and  C8_14 
REMARK    8  A    between atoms: C8_14  and  O1_15 
REMARK    9  A    between atoms: C11_21  and  C12_22 
REMARK   10  A    between atoms: C12_22  and  N4_23 
REMARK   11  A    between atoms: N4_23  and  N5_24 
REMARK   12  A    between atoms: N4_23  and  C13_27 
REMARK   13  A    between atoms: C16_30  and  N6_31 
ROOT
HETATM    1  C2  UNL     1      -3.023  11.918  77.667  1.00  0.00     0.202 C 
ENDROOT
BRANCH   1   2
HETATM    2  N2  UNL     1      -2.710  13.247  77.865  1.00  0.00    -0.377 N 
ATOM      3  H2  UNL     1      -1.818  13.567  77.490  1.00  0.00     0.157 HD
BRANCH   2   4
HETATM    4  C1  UNL     1      -3.478  14.186  78.517  1.00  0.00     0.349 C 
BRANCH   4   5
HETATM    5  N1  UNL     1      -3.780  13.650  79.914  1.00  0.00    -0.064 N 
ATOM      6  H13 UNL     1      -2.977  13.700  80.540  1.00  0.00     0.276 HD
ATOM      7  H12 UNL     1      -4.403  14.259  80.446  1.00  0.00     0.276 HD
ATOM      8  H11 UNL     1      -4.144  12.703  79.811  1.00  0.00     0.276 HD
ENDBRANCH   4   5
ENDBRANCH   2   4
ENDBRANCH   1   2
BRANCH   1   9
HETATM    9  C3  UNL     1      -3.530  11.440  76.408  1.00  0.00     0.030 C 
BRANCH   9  10
HETATM   10  C4  UNL     1      -4.109  10.173  76.058  1.00  0.00    -0.036 A 
HETATM   11  C5  UNL     1      -3.271   9.189  75.451  1.00  0.00     0.012 A 
HETATM   12  C6  UNL     1      -3.672   7.916  75.263  1.00  0.00     0.010 A 
HETATM   13  C7  UNL     1      -4.908   7.474  75.633  1.00  0.00    -0.035 A 
HETATM   14  C9  UNL     1      -5.737   8.400  76.221  1.00  0.00     0.010 A 
HETATM   15  C10 UNL     1      -5.359   9.688  76.425  1.00  0.00     0.012 A 
BRANCH  13  16
HETATM   16  C8  UNL     1      -5.353   6.050  75.524  1.00  0.00     0.202 C 
BRANCH  16  17
HETATM   17  O1  UNL     1      -5.262   5.479  76.833  1.00  0.00    -0.396 OA
ATOM     18  H1  UNL     1      -5.852   4.734  76.855  1.00  0.00     0.209 HD
ENDBRANCH  16  17
ENDBRANCH  13  16
ENDBRANCH   9  10
ENDBRANCH   1   9
BRANCH   1  19
HETATM   19  N3  UNL     1      -1.812  11.015  77.932  1.00  0.00    -0.374 N 
HETATM   20  C11 UNL     1      -1.117  11.287  78.931  1.00  0.00     0.104 C 
ATOM     21  H3  UNL     1      -1.586  10.230  77.321  1.00  0.00     0.161 HD
BRANCH  20  22
HETATM   22  C12 UNL     1       0.111  10.628  79.469  1.00  0.00     0.127 C 
BRANCH  22  23
HETATM   23  N4  UNL     1       1.323  11.338  79.406  1.00  0.00    -0.302 N 
BRANCH  23  24
HETATM   24  N5  UNL     1       2.501  10.656  79.415  1.00  0.00    -0.343 N 
ATOM     25  H52 UNL     1       2.979  10.629  78.514  1.00  0.00     0.177 HD
ATOM     26  H51 UNL     1       3.061  10.631  80.267  1.00  0.00     0.177 HD
ENDBRANCH  23  24
BRANCH  23  27
HETATM   27  C13 UNL     1       1.389  12.610  79.987  1.00  0.00     0.137 C 
HETATM   28  C14 UNL     1       2.557  12.811  80.919  1.00  0.00     0.031 C 
HETATM   29  C15 UNL     1       2.481  14.298  80.529  1.00  0.00     0.037 C 
HETATM   30  C16 UNL     1       1.856  13.800  79.216  1.00  0.00     0.208 C 
BRANCH  30  31
HETATM   31  N6  UNL     1       0.767  14.698  78.797  1.00  0.00    -0.073 N 
ATOM     32  H63 UNL     1       1.007  15.172  77.926  1.00  0.00     0.274 HD
ATOM     33  H62 UNL     1      -0.041  14.161  78.482  1.00  0.00     0.274 HD
ATOM     34  H61 UNL     1       0.495  15.373  79.512  1.00  0.00     0.274 HD
ENDBRANCH  30  31
ENDBRANCH  23  27
ENDBRANCH  22  23
ENDBRANCH  20  22
ENDBRANCH   1  19
TORSDOF 13
ENDMDL
