MODEL 1
REMARK VINA RESULT: -8.512952603      0.000      0.000
REMARK  7 active torsions:
REMARK  status: ('A' for Active; 'I' for Inactive)
REMARK    1  A    between atoms: C2_2  and  C3_3 
REMARK    2  A    between atoms: C2_2  and  C12_18 
REMARK    3  A    between atoms: C3_3  and  N2_8 
REMARK    4  A    between atoms: N1_4  and  O1_6 
REMARK    5  A    between atoms: N2_8  and  C4_10 
REMARK    6  A    between atoms: C4_10  and  C5_11 
REMARK    7  A    between atoms: C5_11  and  C6_12 
ROOT
HETATM    1  C12 UNL     1      18.829  90.228  38.150  1.00  0.00     0.210 C 
HETATM    2  C13 UNL     1      17.650  89.454  37.781  1.00  0.00     0.079 C 
HETATM    3  N3  UNL     1      16.708  88.856  37.477  1.00  0.00    -0.196 NA
HETATM    4  C14 UNL     1      19.143  91.243  37.141  1.00  0.00     0.079 C 
HETATM    5  N4  UNL     1      19.406  92.049  36.346  1.00  0.00    -0.196 NA
ENDROOT
BRANCH   1   6
HETATM    6  C2  UNL     1      20.003  89.302  38.428  1.00  0.00     0.082 C 
HETATM    7  C1  UNL     1      21.259  89.822  37.761  1.00  0.00     0.020 C 
BRANCH   6   8
HETATM    8  C3  UNL     1      20.170  89.118  39.870  1.00  0.00     0.103 C 
HETATM    9  N1  UNL     1      21.374  88.812  40.306  1.00  0.00    -0.257 N 
ATOM     10  H1  UNL     1      22.150  88.711  39.650  1.00  0.00     0.195 HD
BRANCH   9  11
HETATM   11  O1  UNL     1      21.578  88.628  41.670  1.00  0.00    -0.288 OA
ATOM     12  H1  UNL     1      22.454  88.444  41.988  1.00  0.00     0.244 HD
ENDBRANCH   9  11
BRANCH   8  13
HETATM   13  N2  UNL     1      19.182  89.238  40.847  1.00  0.00    -0.378 N 
ATOM     14  H2  UNL     1      19.212  90.084  41.415  1.00  0.00     0.160 HD
BRANCH  13  15
HETATM   15  C4  UNL     1      18.115  88.298  41.151  1.00  0.00     0.121 C 
BRANCH  15  16
HETATM   16  C5  UNL     1      18.541  87.541  42.369  1.00  0.00     0.024 C 
BRANCH  16  17
HETATM   17  C6  UNL     1      17.940  87.908  43.667  1.00  0.00    -0.013 C 
HETATM   18  C7  UNL     1      17.017  86.872  44.218  1.00  0.00     0.005 C 
HETATM   19  C8  UNL     1      16.614  87.104  45.647  1.00  0.00     0.000 C 
HETATM   20  C9  UNL     1      17.596  87.883  46.452  1.00  0.00     0.000 C 
HETATM   21  C10 UNL     1      18.992  87.538  45.911  1.00  0.00     0.000 C 
HETATM   22  C11 UNL     1      19.091  88.254  44.599  1.00  0.00     0.005 C 
ENDBRANCH  16  17
ENDBRANCH  15  16
ENDBRANCH  13  15
ENDBRANCH   8  13
ENDBRANCH   6   8
ENDBRANCH   1   6
TORSDOF 7
ENDMDL
MODEL 2
REMARK VINA RESULT: -8.511638897      2.847      6.913
REMARK  7 active torsions:
REMARK  status: ('A' for Active; 'I' for Inactive)
REMARK    1  A    between atoms: C2_2  and  C3_3 
REMARK    2  A    between atoms: C2_2  and  C12_18 
REMARK    3  A    between atoms: C3_3  and  N2_8 
REMARK    4  A    between atoms: N1_4  and  O1_6 
REMARK    5  A    between atoms: N2_8  and  C4_10 
REMARK    6  A    between atoms: C4_10  and  C5_11 
REMARK    7  A    between atoms: C5_11  and  C6_12 
ROOT
HETATM    1  C12 UNL     1      18.849  86.475  45.126  1.00  0.00     0.210 C 
HETATM    2  C13 UNL     1      17.933  85.344  45.038  1.00  0.00     0.079 C 
HETATM    3  N3  UNL     1      17.199  84.452  44.987  1.00  0.00    -0.196 NA
HETATM    4  C14 UNL     1      18.319  87.530  45.994  1.00  0.00     0.079 C 
HETATM    5  N4  UNL     1      17.907  88.376  46.676  1.00  0.00    -0.196 NA
ENDROOT
BRANCH   1   6
HETATM    6  C2  UNL     1      19.192  86.986  43.735  1.00  0.00     0.082 C 
HETATM    7  C1  UNL     1      18.362  88.206  43.397  1.00  0.00     0.020 C 
BRANCH   6   8
HETATM    8  C3  UNL     1      20.630  87.241  43.632  1.00  0.00     0.103 C 
HETATM    9  N1  UNL     1      21.389  86.842  44.630  1.00  0.00    -0.257 N 
ATOM     10  H1  UNL     1      20.975  86.374  45.438  1.00  0.00     0.195 HD
BRANCH   9  11
HETATM   11  O1  UNL     1      22.761  87.064  44.573  1.00  0.00    -0.288 OA
ATOM     12  H1  UNL     1      23.124  87.838  44.988  1.00  0.00     0.244 HD
ENDBRANCH   9  11
BRANCH   8  13
HETATM   13  N2  UNL     1      21.293  87.863  42.575  1.00  0.00    -0.378 N 
ATOM     14  H2  UNL     1      22.129  87.392  42.228  1.00  0.00     0.160 HD
BRANCH  13  15
HETATM   15  C4  UNL     1      20.934  89.105  41.910  1.00  0.00     0.121 C 
BRANCH  15  16
HETATM   16  C5  UNL     1      20.782  88.787  40.456  1.00  0.00     0.024 C 
BRANCH  16  17
HETATM   17  C6  UNL     1      19.813  89.572  39.664  1.00  0.00    -0.013 C 
HETATM   18  C7  UNL     1      20.254  89.836  38.263  1.00  0.00     0.005 C 
HETATM   19  C8  UNL     1      19.179  90.391  37.372  1.00  0.00     0.000 C 
HETATM   20  C9  UNL     1      17.791  90.026  37.773  1.00  0.00     0.000 C 
HETATM   21  C10 UNL     1      17.860  88.629  38.409  1.00  0.00     0.000 C 
HETATM   22  C11 UNL     1      18.481  88.843  39.755  1.00  0.00     0.005 C 
ENDBRANCH  16  17
ENDBRANCH  15  16
ENDBRANCH  13  15
ENDBRANCH   8  13
ENDBRANCH   6   8
ENDBRANCH   1   6
TORSDOF 7
ENDMDL
MODEL 3
REMARK VINA RESULT: -8.488441358      2.970      7.211
REMARK  7 active torsions:
REMARK  status: ('A' for Active; 'I' for Inactive)
REMARK    1  A    between atoms: C2_2  and  C3_3 
REMARK    2  A    between atoms: C2_2  and  C12_18 
REMARK    3  A    between atoms: C3_3  and  N2_8 
REMARK    4  A    between atoms: N1_4  and  O1_6 
REMARK    5  A    between atoms: N2_8  and  C4_10 
REMARK    6  A    between atoms: C4_10  and  C5_11 
REMARK    7  A    between atoms: C5_11  and  C6_12 
ROOT
HETATM    1  C12 UNL     1      17.879  86.811  44.758  1.00  0.00     0.210 C 
HETATM    2  C13 UNL     1      16.667  87.290  45.411  1.00  0.00     0.079 C 
HETATM    3  N3  UNL     1      15.697  87.650  45.927  1.00  0.00    -0.196 NA
HETATM    4  C14 UNL     1      18.046  85.365  44.925  1.00  0.00     0.079 C 
HETATM    5  N4  UNL     1      18.191  84.220  45.054  1.00  0.00    -0.196 NA
ENDROOT
BRANCH   1   6
HETATM    6  C2  UNL     1      19.087  87.595  45.248  1.00  0.00     0.082 C 
HETATM    7  C1  UNL     1      19.294  87.379  46.733  1.00  0.00     0.020 C 
BRANCH   6   8
HETATM    8  C3  UNL     1      20.270  87.245  44.461  1.00  0.00     0.103 C 
HETATM    9  N1  UNL     1      21.320  86.794  45.114  1.00  0.00    -0.257 N 
ATOM     10  H1  UNL     1      21.294  86.699  46.130  1.00  0.00     0.195 HD
BRANCH   9  11
HETATM   11  O1  UNL     1      22.466  86.449  44.405  1.00  0.00    -0.288 OA
ATOM     12  H1  UNL     1      23.016  85.743  44.725  1.00  0.00     0.244 HD
ENDBRANCH   9  11
BRANCH   8  13
HETATM   13  N2  UNL     1      20.407  87.331  43.076  1.00  0.00    -0.378 N 
ATOM     14  H2  UNL     1      21.061  86.676  42.647  1.00  0.00     0.160 HD
BRANCH  13  15
HETATM   15  C4  UNL     1      19.728  88.245  42.172  1.00  0.00     0.121 C 
BRANCH  15  16
HETATM   16  C5  UNL     1      20.739  88.684  41.161  1.00  0.00     0.024 C 
BRANCH  16  17
HETATM   17  C6  UNL     1      20.287  89.535  40.042  1.00  0.00    -0.013 C 
HETATM   18  C7  UNL     1      21.144  89.434  38.824  1.00  0.00     0.005 C 
HETATM   19  C8  UNL     1      20.554  90.074  37.600  1.00  0.00     0.000 C 
HETATM   20  C9  UNL     1      19.065  90.140  37.590  1.00  0.00     0.000 C 
HETATM   21  C10 UNL     1      18.556  88.902  38.343  1.00  0.00     0.000 C 
HETATM   22  C11 UNL     1      18.828  89.186  39.789  1.00  0.00     0.005 C 
ENDBRANCH  16  17
ENDBRANCH  15  16
ENDBRANCH  13  15
ENDBRANCH   8  13
ENDBRANCH   6   8
ENDBRANCH   1   6
TORSDOF 7
ENDMDL
MODEL 4
REMARK VINA RESULT: -8.321643228      2.068      3.149
REMARK  7 active torsions:
REMARK  status: ('A' for Active; 'I' for Inactive)
REMARK    1  A    between atoms: C2_2  and  C3_3 
REMARK    2  A    between atoms: C2_2  and  C12_18 
REMARK    3  A    between atoms: C3_3  and  N2_8 
REMARK    4  A    between atoms: N1_4  and  O1_6 
REMARK    5  A    between atoms: N2_8  and  C4_10 
REMARK    6  A    between atoms: C4_10  and  C5_11 
REMARK    7  A    between atoms: C5_11  and  C6_12 
ROOT
HETATM    1  C12 UNL     1      20.259  89.376  38.870  1.00  0.00     0.210 C 
HETATM    2  C13 UNL     1      20.446  89.815  40.247  1.00  0.00     0.079 C 
HETATM    3  N3  UNL     1      20.615  90.160  41.338  1.00  0.00    -0.196 NA
HETATM    4  C14 UNL     1      21.480  89.551  38.079  1.00  0.00     0.079 C 
HETATM    5  N4  UNL     1      22.441  89.690  37.440  1.00  0.00    -0.196 NA
ENDROOT
BRANCH   1   6
HETATM    6  C2  UNL     1      19.060  90.076  38.250  1.00  0.00     0.082 C 
HETATM    7  C1  UNL     1      19.395  90.572  36.859  1.00  0.00     0.020 C 
BRANCH   6   8
HETATM    8  C3  UNL     1      17.895  89.190  38.264  1.00  0.00     0.103 C 
HETATM    9  N1  UNL     1      17.121  89.193  37.200  1.00  0.00    -0.257 N 
ATOM     10  H1  UNL     1      17.338  89.795  36.405  1.00  0.00     0.195 HD
BRANCH   9  11
HETATM   11  O1  UNL     1      16.002  88.365  37.170  1.00  0.00    -0.288 OA
ATOM     12  H1  UNL     1      15.525  88.258  36.356  1.00  0.00     0.244 HD
ENDBRANCH   9  11
BRANCH   8  13
HETATM   13  N2  UNL     1      17.514  88.328  39.291  1.00  0.00    -0.378 N 
ATOM     14  H2  UNL     1      17.490  87.335  39.059  1.00  0.00     0.160 HD
BRANCH  13  15
HETATM   15  C4  UNL     1      17.147  88.678  40.654  1.00  0.00     0.121 C 
BRANCH  15  16
HETATM   16  C5  UNL     1      17.735  87.628  41.542  1.00  0.00     0.024 C 
BRANCH  16  17
HETATM   17  C6  UNL     1      18.092  88.001  42.926  1.00  0.00    -0.013 C 
HETATM   18  C7  UNL     1      17.149  87.471  43.955  1.00  0.00     0.005 C 
HETATM   19  C8  UNL     1      17.639  87.607  45.369  1.00  0.00     0.000 C 
HETATM   20  C9  UNL     1      19.122  87.644  45.512  1.00  0.00     0.000 C 
HETATM   21  C10 UNL     1      19.702  86.763  44.395  1.00  0.00     0.000 C 
HETATM   22  C11 UNL     1      19.533  87.563  43.139  1.00  0.00     0.005 C 
ENDBRANCH  16  17
ENDBRANCH  15  16
ENDBRANCH  13  15
ENDBRANCH   8  13
ENDBRANCH   6   8
ENDBRANCH   1   6
TORSDOF 7
ENDMDL
MODEL 5
REMARK VINA RESULT: -8.302055049      2.750      7.076
REMARK  7 active torsions:
REMARK  status: ('A' for Active; 'I' for Inactive)
REMARK    1  A    between atoms: C2_2  and  C3_3 
REMARK    2  A    between atoms: C2_2  and  C12_18 
REMARK    3  A    between atoms: C3_3  and  N2_8 
REMARK    4  A    between atoms: N1_4  and  O1_6 
REMARK    5  A    between atoms: N2_8  and  C4_10 
REMARK    6  A    between atoms: C4_10  and  C5_11 
REMARK    7  A    between atoms: C5_11  and  C6_12 
ROOT
HETATM    1  C12 UNL     1      18.451  87.605  45.318  1.00  0.00     0.210 C 
HETATM    2  C13 UNL     1      19.183  86.964  46.404  1.00  0.00     0.079 C 
HETATM    3  N3  UNL     1      19.747  86.460  47.279  1.00  0.00    -0.196 NA
HETATM    4  C14 UNL     1      17.007  87.601  45.566  1.00  0.00     0.079 C 
HETATM    5  N4  UNL     1      15.860  87.599  45.748  1.00  0.00    -0.196 NA
ENDROOT
BRANCH   1   6
HETATM    6  C2  UNL     1      18.815  86.965  43.988  1.00  0.00     0.082 C 
HETATM    7  C1  UNL     1      17.868  87.427  42.899  1.00  0.00     0.020 C 
BRANCH   6   8
HETATM    8  C3  UNL     1      20.216  87.236  43.663  1.00  0.00     0.103 C 
HETATM    9  N1  UNL     1      21.112  86.996  44.597  1.00  0.00    -0.257 N 
ATOM     10  H1  UNL     1      20.824  86.635  45.507  1.00  0.00     0.195 HD
BRANCH   9  11
HETATM   11  O1  UNL     1      22.456  87.239  44.331  1.00  0.00    -0.288 OA
ATOM     12  H1  UNL     1      23.115  86.675  44.716  1.00  0.00     0.244 HD
ENDBRANCH   9  11
BRANCH   8  13
HETATM   13  N2  UNL     1      20.714  87.722  42.454  1.00  0.00    -0.378 N 
ATOM     14  H2  UNL     1      21.173  87.040  41.851  1.00  0.00     0.160 HD
BRANCH  13  15
HETATM   15  C4  UNL     1      20.654  89.086  41.954  1.00  0.00     0.121 C 
BRANCH  15  16
HETATM   16  C5  UNL     1      20.846  89.010  40.472  1.00  0.00     0.024 C 
BRANCH  16  17
HETATM   17  C6  UNL     1      19.885  89.721  39.605  1.00  0.00    -0.013 C 
HETATM   18  C7  UNL     1      20.336  89.855  38.189  1.00  0.00     0.005 C 
HETATM   19  C8  UNL     1      19.269  90.327  37.243  1.00  0.00     0.000 C 
HETATM   20  C9  UNL     1      17.877  90.002  37.665  1.00  0.00     0.000 C 
HETATM   21  C10 UNL     1      17.939  88.669  38.426  1.00  0.00     0.000 C 
HETATM   22  C11 UNL     1      18.551  89.004  39.751  1.00  0.00     0.005 C 
ENDBRANCH  16  17
ENDBRANCH  15  16
ENDBRANCH  13  15
ENDBRANCH   8  13
ENDBRANCH   6   8
ENDBRANCH   1   6
TORSDOF 7
ENDMDL
