MODEL 1
REMARK VINA RESULT: -0.510881263      0.000      0.000
REMARK  0 active torsions:
REMARK  status: ('A' for Active; 'I' for Inactive)
ROOT
HETATM    1  C1  UNL     1      16.274  35.477  11.644  1.00  0.00     0.047 C 
HETATM    2  C2  UNL     1      15.973  35.597  12.920  1.00  0.00     0.069 A 
HETATM    3  C3  UNL     1      16.659  36.480  13.890  1.00  0.00     0.126 A 
HETATM    4  N1  UNL     1      17.653  37.273  13.662  1.00  0.00    -0.384 N 
ATOM      5  H11 UNL     1      18.125  37.881  14.331  1.00  0.00     0.157 HD
ATOM      6  H12 UNL     1      18.144  37.439  12.785  1.00  0.00     0.157 HD
HETATM    7  N2  UNL     1      15.973  36.248  15.117  1.00  0.00    -0.337 N 
ATOM      8  H2  UNL     1      16.179  36.692  16.011  1.00  0.00     0.168 HD
HETATM    9  C4  UNL     1      14.954  35.295  14.878  1.00  0.00     0.184 A 
HETATM   10  N3  UNL     1      14.941  34.916  13.644  1.00  0.00    -0.345 N 
HETATM   11  C5  UNL     1      14.024  33.943  13.045  1.00  0.00     0.157 C 
ENDROOT
TORSDOF 0
ENDMDL
MODEL 2
REMARK VINA RESULT: -0.309733722      1.038      2.831
REMARK  0 active torsions:
REMARK  status: ('A' for Active; 'I' for Inactive)
ROOT
HETATM    1  C1  UNL     1      16.075  35.309  11.527  1.00  0.00     0.047 C 
HETATM    2  C2  UNL     1      16.053  35.573  12.817  1.00  0.00     0.069 A 
HETATM    3  C3  UNL     1      15.055  35.068  13.786  1.00  0.00     0.126 A 
HETATM    4  N1  UNL     1      14.050  34.294  13.544  1.00  0.00    -0.384 N 
ATOM      5  H11 UNL     1      13.362  33.946  14.212  1.00  0.00     0.157 HD
ATOM      6  H12 UNL     1      13.758  33.891  12.654  1.00  0.00     0.157 HD
HETATM    7  N2  UNL     1      15.462  35.632  15.029  1.00  0.00    -0.337 N 
ATOM      8  H2  UNL     1      14.999  35.496  15.927  1.00  0.00     0.168 HD
HETATM    9  C4  UNL     1      16.620  36.413  14.800  1.00  0.00     0.184 A 
HETATM   10  N3  UNL     1      16.967  36.392  13.558  1.00  0.00    -0.345 N 
HETATM   11  C5  UNL     1      18.113  37.085  12.965  1.00  0.00     0.157 C 
ENDROOT
TORSDOF 0
ENDMDL
MODEL 3
REMARK VINA RESULT: 0.261241515      1.137      2.164
REMARK  0 active torsions:
REMARK  status: ('A' for Active; 'I' for Inactive)
ROOT
HETATM    1  C1  UNL     1      15.638  35.860  15.170  1.00  0.00     0.047 C 
HETATM    2  C2  UNL     1      15.896  35.764  13.883  1.00  0.00     0.069 A 
HETATM    3  C3  UNL     1      16.995  36.452  13.168  1.00  0.00     0.126 A 
HETATM    4  N1  UNL     1      17.877  37.251  13.670  1.00  0.00    -0.384 N 
ATOM      5  H11 UNL     1      18.634  37.725  13.178  1.00  0.00     0.157 HD
ATOM      6  H12 UNL     1      17.982  37.555  14.638  1.00  0.00     0.157 HD
HETATM    7  N2  UNL     1      16.849  36.029  11.816  1.00  0.00    -0.337 N 
ATOM      8  H2  UNL     1      17.440  36.309  11.034  1.00  0.00     0.168 HD
HETATM    9  C4  UNL     1      15.739  35.153  11.747  1.00  0.00     0.184 A 
HETATM   10  N3  UNL     1      15.190  34.992  12.903  1.00  0.00    -0.345 N 
HETATM   11  C5  UNL     1      14.024  34.157  13.202  1.00  0.00     0.157 C 
ENDROOT
TORSDOF 0
ENDMDL
MODEL 4
REMARK VINA RESULT: 0.531295052      1.360      3.539
REMARK  0 active torsions:
REMARK  status: ('A' for Active; 'I' for Inactive)
ROOT
HETATM    1  C1  UNL     1      15.887  36.131  15.170  1.00  0.00     0.047 C 
HETATM    2  C2  UNL     1      15.974  35.815  13.895  1.00  0.00     0.069 A 
HETATM    3  C3  UNL     1      15.054  34.914  13.164  1.00  0.00     0.126 A 
HETATM    4  N1  UNL     1      14.024  34.294  13.636  1.00  0.00    -0.384 N 
ATOM      5  H11 UNL     1      13.390  33.674  13.132  1.00  0.00     0.157 HD
ATOM      6  H12 UNL     1      13.656  34.306  14.587  1.00  0.00     0.157 HD
HETATM    7  N2  UNL     1      15.568  34.896  11.836  1.00  0.00    -0.337 N 
ATOM      8  H2  UNL     1      15.180  34.373  11.051  1.00  0.00     0.168 HD
HETATM    9  C4  UNL     1      16.711  35.730  11.795  1.00  0.00     0.184 A 
HETATM   10  N3  UNL     1      16.955  36.256  12.948  1.00  0.00    -0.345 N 
HETATM   11  C5  UNL     1      18.055  37.167  13.272  1.00  0.00     0.157 C 
ENDROOT
TORSDOF 0
ENDMDL
MODEL 5
REMARK VINA RESULT: 0.832235673      8.358      8.854
REMARK  0 active torsions:
REMARK  status: ('A' for Active; 'I' for Inactive)
ROOT
HETATM    1  C1  UNL     1      20.901  31.001   7.638  1.00  0.00     0.047 C 
HETATM    2  C2  UNL     1      21.304  32.226   7.899  1.00  0.00     0.069 A 
HETATM    3  C3  UNL     1      20.750  33.463   7.303  1.00  0.00     0.126 A 
HETATM    4  N1  UNL     1      19.793  33.557   6.441  1.00  0.00    -0.384 N 
ATOM      5  H11 UNL     1      19.411  34.409   6.031  1.00  0.00     0.157 HD
ATOM      6  H12 UNL     1      19.246  32.809   6.015  1.00  0.00     0.157 HD
HETATM    7  N2  UNL     1      21.513  34.508   7.898  1.00  0.00    -0.337 N 
ATOM      8  H2  UNL     1      21.404  35.505   7.718  1.00  0.00     0.168 HD
HETATM    9  C4  UNL     1      22.450  33.920   8.782  1.00  0.00     0.184 A 
HETATM   10  N3  UNL     1      22.346  32.634   8.794  1.00  0.00    -0.345 N 
HETATM   11  C5  UNL     1      23.153  31.705   9.590  1.00  0.00     0.157 C 
ENDROOT
TORSDOF 0
ENDMDL
