MODEL 1
REMARK VINA RESULT: -7.638353438      0.000      0.000
REMARK  9 active torsions:
REMARK  status: ('A' for Active; 'I' for Inactive)
REMARK    1  A    between atoms: C2_2  and  N2_6 
REMARK    2  A    between atoms: N2_6  and  C4_8 
REMARK    3  A    between atoms: C5_9  and  O1_10 
REMARK    4  A    between atoms: C8_14  and  C9_15 
REMARK    5  A    between atoms: C9_15  and  C10_16 
REMARK    6  A    between atoms: N3_17  and  C11_19 
REMARK    7  A    between atoms: N4_25  and  C17_26 
REMARK    8  A    between atoms: C17_26  and  C18_27 
REMARK    9  A    between atoms: C18_27  and  C19_28 
ROOT
HETATM    1  C19 UNL     1      -2.417   4.513  20.493  1.00  0.00    -0.024 A 
HETATM    2  C20 UNL     1      -3.680   3.977  20.518  1.00  0.00     0.010 A 
HETATM    3  C21 UNL     1      -4.819   4.735  20.374  1.00  0.00     0.003 A 
HETATM    4  C22 UNL     1      -4.677   6.093  20.197  1.00  0.00     0.032 A 
HETATM    5  C23 UNL     1      -3.413   6.639  20.171  1.00  0.00     0.063 A 
HETATM    6  C24 UNL     1      -2.254   5.864  20.317  1.00  0.00     0.068 A 
HETATM    7  N5  UNL     1      -1.187   6.693  20.248  1.00  0.00    -0.331 N 
ATOM      8  H5  UNL     1      -0.207   6.420  20.321  1.00  0.00     0.168 HD
HETATM    9  C25 UNL     1      -1.649   7.941  20.064  1.00  0.00     0.191 A 
HETATM   10  C26 UNL     1      -0.795   9.084  19.946  1.00  0.00     0.137 C 
HETATM   11  N6  UNL     1      -0.120  10.017  19.850  1.00  0.00    -0.188 NA
HETATM   12  N7  UNL     1      -2.988   7.913  20.017  1.00  0.00    -0.327 N 
HETATM   13  C27 UNL     1      -3.883   9.049  19.837  1.00  0.00     0.159 C 
ENDROOT
BRANCH   1  14
HETATM   14  C18 UNL     1      -1.227   3.617  20.656  1.00  0.00     0.086 C 
BRANCH  14  15
HETATM   15  C17 UNL     1      -0.406   3.965  21.822  1.00  0.00     0.075 C 
BRANCH  15  16
HETATM   16  N4  UNL     1      -0.722   3.549  23.126  1.00  0.00    -0.320 N 
HETATM   17  C4  UNL     1      -0.358   2.353  23.635  1.00  0.00     0.148 C 
HETATM   18  C5  UNL     1       0.248   2.250  24.922  1.00  0.00     0.117 C 
HETATM   19  C6  UNL     1      -0.237   2.829  26.084  1.00  0.00    -0.018 C 
HETATM   20  C7  UNL     1       0.238   2.213  27.372  1.00  0.00     0.052 C 
HETATM   21  C8  UNL     1      -1.085   3.902  26.220  1.00  0.00    -0.043 C 
HETATM   22  C15 UNL     1      -1.537   4.728  25.187  1.00  0.00     0.025 C 
HETATM   23  C16 UNL     1      -1.441   4.484  23.839  1.00  0.00     0.098 C 
BRANCH  17  24
HETATM   24  N2  UNL     1      -0.463   1.299  23.012  1.00  0.00    -0.325 N 
HETATM   25  C3  UNL     1       0.402   0.699  22.043  1.00  0.00     0.159 C 
BRANCH  24  26
HETATM   26  C2  UNL     1      -1.685   0.495  23.163  1.00  0.00     0.074 C 
HETATM   27  C1  UNL     1      -3.010   1.008  22.768  1.00  0.00     0.088 C 
HETATM   28  N1  UNL     1      -1.593  -0.667  23.700  1.00  0.00    -0.389 N 
ATOM     29  H12 UNL     1      -2.441  -1.225  23.804  1.00  0.00     0.157 HD
ATOM     30  H11 UNL     1      -0.676  -1.022  23.973  1.00  0.00     0.157 HD
ENDBRANCH  24  26
ENDBRANCH  17  24
BRANCH  18  31
HETATM   31  O1  UNL     1       1.404   1.521  25.017  1.00  0.00    -0.357 OA
ATOM     32  H1  UNL     1       2.225   1.988  24.907  1.00  0.00     0.218 HD
ENDBRANCH  18  31
BRANCH  21  33
HETATM   33  C9  UNL     1      -1.573   4.218  27.566  1.00  0.00     0.083 C 
BRANCH  33  34
HETATM   34  C10 UNL     1      -1.278   5.624  27.972  1.00  0.00     0.065 C 
HETATM   35  N3  UNL     1      -0.815   5.848  29.159  1.00  0.00    -0.378 N 
ATOM     36  H3  UNL     1      -0.656   5.074  29.803  1.00  0.00     0.164 HD
BRANCH  35  37
HETATM   37  C11 UNL     1      -0.530   7.176  29.557  1.00  0.00     0.089 C 
HETATM   38  C12 UNL     1      -1.047   7.647  30.663  1.00  0.00    -0.072 C 
HETATM   39  C13 UNL     1      -1.929   6.801  31.503  1.00  0.00     0.044 C 
HETATM   40  C14 UNL     1      -0.759   9.030  31.090  1.00  0.00     0.044 C 
ENDBRANCH  35  37
ENDBRANCH  33  34
ENDBRANCH  21  33
ENDBRANCH  15  16
ENDBRANCH  14  15
ENDBRANCH   1  14
TORSDOF 9
ENDMDL
MODEL 2
REMARK VINA RESULT: -7.450074035      5.138      7.167
REMARK  9 active torsions:
REMARK  status: ('A' for Active; 'I' for Inactive)
REMARK    1  A    between atoms: C2_2  and  N2_6 
REMARK    2  A    between atoms: N2_6  and  C4_8 
REMARK    3  A    between atoms: C5_9  and  O1_10 
REMARK    4  A    between atoms: C8_14  and  C9_15 
REMARK    5  A    between atoms: C9_15  and  C10_16 
REMARK    6  A    between atoms: N3_17  and  C11_19 
REMARK    7  A    between atoms: N4_25  and  C17_26 
REMARK    8  A    between atoms: C17_26  and  C18_27 
REMARK    9  A    between atoms: C18_27  and  C19_28 
ROOT
HETATM    1  C19 UNL     1      -1.496   2.353  20.878  1.00  0.00    -0.024 A 
HETATM    2  C20 UNL     1      -2.559   1.489  20.840  1.00  0.00     0.010 A 
HETATM    3  C21 UNL     1      -3.844   1.890  20.554  1.00  0.00     0.003 A 
HETATM    4  C22 UNL     1      -4.063   3.224  20.294  1.00  0.00     0.032 A 
HETATM    5  C23 UNL     1      -3.000   4.100  20.329  1.00  0.00     0.063 A 
HETATM    6  C24 UNL     1      -1.694   3.687  20.621  1.00  0.00     0.068 A 
HETATM    7  N5  UNL     1      -0.893   4.777  20.578  1.00  0.00    -0.331 N 
ATOM      8  H5  UNL     1       0.113   4.792  20.747  1.00  0.00     0.168 HD
HETATM    9  C25 UNL     1      -1.660   5.836  20.271  1.00  0.00     0.191 A 
HETATM   10  C26 UNL     1      -1.144   7.165  20.141  1.00  0.00     0.137 C 
HETATM   11  N6  UNL     1      -0.745   8.245  20.033  1.00  0.00    -0.188 NA
HETATM   12  N7  UNL     1      -2.929   5.433  20.121  1.00  0.00    -0.327 N 
HETATM   13  C27 UNL     1      -4.080   6.265  19.791  1.00  0.00     0.159 C 
ENDROOT
BRANCH   1  14
HETATM   14  C18 UNL     1      -0.127   1.834  21.196  1.00  0.00     0.086 C 
BRANCH  14  15
HETATM   15  C17 UNL     1       0.440   1.016  20.116  1.00  0.00     0.075 C 
BRANCH  15  16
HETATM   16  N4  UNL     1       0.934  -0.282  20.326  1.00  0.00    -0.320 N 
HETATM   17  C4  UNL     1       1.253  -1.128  19.323  1.00  0.00     0.148 C 
HETATM   18  C5  UNL     1       2.491  -1.835  19.318  1.00  0.00     0.117 C 
HETATM   19  C6  UNL     1       2.997  -2.571  20.377  1.00  0.00    -0.018 C 
HETATM   20  C7  UNL     1       4.022  -3.613  20.021  1.00  0.00     0.052 C 
HETATM   21  C8  UNL     1       2.698  -2.469  21.715  1.00  0.00    -0.043 C 
HETATM   22  C15 UNL     1       1.899  -1.486  22.305  1.00  0.00     0.025 C 
HETATM   23  C16 UNL     1       1.064  -0.609  21.658  1.00  0.00     0.098 C 
BRANCH  17  24
HETATM   24  N2  UNL     1       0.541  -1.295  18.335  1.00  0.00    -0.325 N 
HETATM   25  C3  UNL     1       0.239  -0.419  17.245  1.00  0.00     0.159 C 
BRANCH  24  26
HETATM   26  C2  UNL     1      -0.229  -2.541  18.208  1.00  0.00     0.074 C 
HETATM   27  C1  UNL     1      -0.774  -3.244  19.385  1.00  0.00     0.088 C 
HETATM   28  N1  UNL     1      -0.386  -3.051  17.041  1.00  0.00    -0.389 N 
ATOM     29  H12 UNL     1      -0.921  -3.915  16.954  1.00  0.00     0.157 HD
ATOM     30  H11 UNL     1      -0.009  -2.565  16.228  1.00  0.00     0.157 HD
ENDBRANCH  24  26
ENDBRANCH  17  24
BRANCH  18  31
HETATM   31  O1  UNL     1       3.243  -1.781  18.173  1.00  0.00    -0.357 OA
ATOM     32  H1  UNL     1       4.167  -1.581  18.267  1.00  0.00     0.218 HD
ENDBRANCH  18  31
BRANCH  21  33
HETATM   33  C9  UNL     1       3.259  -3.480  22.617  1.00  0.00     0.083 C 
BRANCH  33  34
HETATM   34  C10 UNL     1       3.476  -2.963  24.000  1.00  0.00     0.065 C 
HETATM   35  N3  UNL     1       4.676  -2.658  24.373  1.00  0.00    -0.378 N 
ATOM     36  H3  UNL     1       5.459  -2.771  23.729  1.00  0.00     0.164 HD
BRANCH  35  37
HETATM   37  C11 UNL     1       4.897  -2.166  25.681  1.00  0.00     0.089 C 
HETATM   38  C12 UNL     1       6.113  -1.872  26.068  1.00  0.00    -0.072 C 
HETATM   39  C13 UNL     1       7.261  -2.051  25.146  1.00  0.00     0.044 C 
HETATM   40  C14 UNL     1       6.358  -1.359  27.429  1.00  0.00     0.044 C 
ENDBRANCH  35  37
ENDBRANCH  33  34
ENDBRANCH  21  33
ENDBRANCH  15  16
ENDBRANCH  14  15
ENDBRANCH   1  14
TORSDOF 9
ENDMDL
MODEL 3
REMARK VINA RESULT: -7.326030402      1.454      2.052
REMARK  9 active torsions:
REMARK  status: ('A' for Active; 'I' for Inactive)
REMARK    1  A    between atoms: C2_2  and  N2_6 
REMARK    2  A    between atoms: N2_6  and  C4_8 
REMARK    3  A    between atoms: C5_9  and  O1_10 
REMARK    4  A    between atoms: C8_14  and  C9_15 
REMARK    5  A    between atoms: C9_15  and  C10_16 
REMARK    6  A    between atoms: N3_17  and  C11_19 
REMARK    7  A    between atoms: N4_25  and  C17_26 
REMARK    8  A    between atoms: C17_26  and  C18_27 
REMARK    9  A    between atoms: C18_27  and  C19_28 
ROOT
HETATM    1  C19 UNL     1      -1.770   4.036  20.625  1.00  0.00    -0.024 A 
HETATM    2  C20 UNL     1      -2.919   3.299  20.497  1.00  0.00     0.010 A 
HETATM    3  C21 UNL     1      -4.123   3.847  20.116  1.00  0.00     0.003 A 
HETATM    4  C22 UNL     1      -4.167   5.197  19.854  1.00  0.00     0.032 A 
HETATM    5  C23 UNL     1      -3.016   5.945  19.979  1.00  0.00     0.063 A 
HETATM    6  C24 UNL     1      -1.792   5.384  20.366  1.00  0.00     0.068 A 
HETATM    7  N5  UNL     1      -0.871   6.374  20.396  1.00  0.00    -0.331 N 
ATOM      8  H5  UNL     1       0.114   6.273  20.643  1.00  0.00     0.168 HD
HETATM    9  C25 UNL     1      -1.485   7.515  20.042  1.00  0.00     0.191 A 
HETATM   10  C26 UNL     1      -0.812   8.776  19.965  1.00  0.00     0.137 C 
HETATM   11  N6  UNL     1      -0.284   9.802  19.899  1.00  0.00    -0.188 NA
HETATM   12  N7  UNL     1      -2.776   7.261  19.790  1.00  0.00    -0.327 N 
HETATM   13  C27 UNL     1      -3.795   8.220  19.381  1.00  0.00     0.159 C 
ENDROOT
BRANCH   1  14
HETATM   14  C18 UNL     1      -0.498   3.362  21.043  1.00  0.00     0.086 C 
BRANCH  14  15
HETATM   15  C17 UNL     1      -0.717   2.014  21.583  1.00  0.00     0.075 C 
BRANCH  15  16
HETATM   16  N4  UNL     1      -0.501   1.692  22.933  1.00  0.00    -0.320 N 
HETATM   17  C4  UNL     1       0.080   0.544  23.341  1.00  0.00     0.148 C 
HETATM   18  C5  UNL     1       1.129   0.548  24.307  1.00  0.00     0.117 C 
HETATM   19  C6  UNL     1       1.092   1.206  25.526  1.00  0.00    -0.018 C 
HETATM   20  C7  UNL     1       2.044   0.697  26.575  1.00  0.00     0.052 C 
HETATM   21  C8  UNL     1       0.311   2.271  25.905  1.00  0.00    -0.043 C 
HETATM   22  C15 UNL     1      -0.532   3.009  25.069  1.00  0.00     0.025 C 
HETATM   23  C16 UNL     1      -0.939   2.666  23.804  1.00  0.00     0.098 C 
BRANCH  17  24
HETATM   24  N2  UNL     1      -0.205  -0.556  22.872  1.00  0.00    -0.325 N 
HETATM   25  C3  UNL     1      -0.895  -1.666  23.455  1.00  0.00     0.159 C 
BRANCH  24  26
HETATM   26  C2  UNL     1       0.269  -0.908  21.526  1.00  0.00     0.074 C 
HETATM   27  C1  UNL     1      -0.635  -1.458  20.500  1.00  0.00     0.088 C 
HETATM   28  N1  UNL     1       1.518  -0.775  21.261  1.00  0.00    -0.389 N 
ATOM     29  H12 UNL     1       1.847  -1.018  20.326  1.00  0.00     0.157 HD
ATOM     30  H11 UNL     1       2.143  -0.394  21.971  1.00  0.00     0.157 HD
ENDBRANCH  24  26
ENDBRANCH  17  24
BRANCH  18  31
HETATM   31  O1  UNL     1       2.268  -0.151  24.003  1.00  0.00    -0.357 OA
ATOM     32  H1  UNL     1       2.174  -0.921  23.453  1.00  0.00     0.218 HD
ENDBRANCH  18  31
BRANCH  21  33
HETATM   33  C9  UNL     1       0.353   2.680  27.312  1.00  0.00     0.083 C 
BRANCH  33  34
HETATM   34  C10 UNL     1      -0.892   3.379  27.748  1.00  0.00     0.065 C 
HETATM   35  N3  UNL     1      -0.809   4.596  28.178  1.00  0.00    -0.378 N 
ATOM     36  H3  UNL     1       0.095   5.066  28.217  1.00  0.00     0.164 HD
BRANCH  35  37
HETATM   37  C11 UNL     1      -1.981   5.271  28.593  1.00  0.00     0.089 C 
HETATM   38  C12 UNL     1      -1.886   6.450  29.156  1.00  0.00    -0.072 C 
HETATM   39  C13 UNL     1      -0.560   7.083  29.361  1.00  0.00     0.044 C 
HETATM   40  C14 UNL     1      -3.100   7.165  29.594  1.00  0.00     0.044 C 
ENDBRANCH  35  37
ENDBRANCH  33  34
ENDBRANCH  21  33
ENDBRANCH  15  16
ENDBRANCH  14  15
ENDBRANCH   1  14
TORSDOF 9
ENDMDL
MODEL 4
REMARK VINA RESULT: -7.283717071      2.009      7.671
REMARK  9 active torsions:
REMARK  status: ('A' for Active; 'I' for Inactive)
REMARK    1  A    between atoms: C2_2  and  N2_6 
REMARK    2  A    between atoms: N2_6  and  C4_8 
REMARK    3  A    between atoms: C5_9  and  O1_10 
REMARK    4  A    between atoms: C8_14  and  C9_15 
REMARK    5  A    between atoms: C9_15  and  C10_16 
REMARK    6  A    between atoms: N3_17  and  C11_19 
REMARK    7  A    between atoms: N4_25  and  C17_26 
REMARK    8  A    between atoms: C17_26  and  C18_27 
REMARK    9  A    between atoms: C18_27  and  C19_28 
ROOT
HETATM    1  C19 UNL     1      -0.142   3.515  26.260  1.00  0.00    -0.024 A 
HETATM    2  C20 UNL     1       0.477   2.311  26.474  1.00  0.00     0.010 A 
HETATM    3  C21 UNL     1       0.417   1.638  27.673  1.00  0.00     0.003 A 
HETATM    4  C22 UNL     1      -0.300   2.208  28.701  1.00  0.00     0.032 A 
HETATM    5  C23 UNL     1      -0.926   3.418  28.494  1.00  0.00     0.063 A 
HETATM    6  C24 UNL     1      -0.863   4.099  27.272  1.00  0.00     0.068 A 
HETATM    7  N5  UNL     1      -1.573   5.245  27.395  1.00  0.00    -0.331 N 
ATOM      8  H5  UNL     1      -1.710   5.949  26.671  1.00  0.00     0.168 HD
HETATM    9  C25 UNL     1      -2.066   5.287  28.644  1.00  0.00     0.191 A 
HETATM   10  C26 UNL     1      -2.872   6.364  29.132  1.00  0.00     0.137 C 
HETATM   11  N6  UNL     1      -3.523   7.227  29.543  1.00  0.00    -0.188 NA
HETATM   12  N7  UNL     1      -1.679   4.190  29.308  1.00  0.00    -0.327 N 
HETATM   13  C27 UNL     1      -1.992   3.845  30.690  1.00  0.00     0.159 C 
ENDROOT
BRANCH   1  14
HETATM   14  C18 UNL     1      -0.029   4.181  24.923  1.00  0.00     0.086 C 
BRANCH  14  15
HETATM   15  C17 UNL     1       0.252   3.236  23.835  1.00  0.00     0.075 C 
BRANCH  15  16
HETATM   16  N4  UNL     1      -0.591   3.086  22.721  1.00  0.00    -0.320 N 
HETATM   17  C4  UNL     1      -0.927   1.889  22.197  1.00  0.00     0.148 C 
HETATM   18  C5  UNL     1      -2.283   1.568  21.894  1.00  0.00     0.117 C 
HETATM   19  C6  UNL     1      -3.149   2.364  21.161  1.00  0.00    -0.018 C 
HETATM   20  C7  UNL     1      -4.325   1.657  20.544  1.00  0.00     0.052 C 
HETATM   21  C8  UNL     1      -3.087   3.718  20.933  1.00  0.00    -0.043 C 
HETATM   22  C15 UNL     1      -2.184   4.609  21.520  1.00  0.00     0.025 C 
HETATM   23  C16 UNL     1      -1.046   4.285  22.216  1.00  0.00     0.098 C 
BRANCH  17  24
HETATM   24  N2  UNL     1      -0.113   0.987  22.008  1.00  0.00    -0.325 N 
HETATM   25  C3  UNL     1       0.635   0.197  22.937  1.00  0.00     0.159 C 
BRANCH  24  26
HETATM   26  C2  UNL     1       0.279   0.653  20.631  1.00  0.00     0.074 C 
HETATM   27  C1  UNL     1       0.328  -0.741  20.151  1.00  0.00     0.088 C 
HETATM   28  N1  UNL     1       0.636   1.602  19.845  1.00  0.00    -0.389 N 
ATOM     29  H12 UNL     1       0.907   1.370  18.890  1.00  0.00     0.157 HD
ATOM     30  H11 UNL     1       0.602   2.566  20.178  1.00  0.00     0.157 HD
ENDBRANCH  24  26
ENDBRANCH  17  24
BRANCH  18  31
HETATM   31  O1  UNL     1      -2.769   0.378  22.367  1.00  0.00    -0.357 OA
ATOM     32  H1  UNL     1      -3.136  -0.228  21.733  1.00  0.00     0.218 HD
ENDBRANCH  18  31
BRANCH  21  33
HETATM   33  C9  UNL     1      -4.047   4.294  19.986  1.00  0.00     0.083 C 
BRANCH  33  34
HETATM   34  C10 UNL     1      -4.241   5.761  20.180  1.00  0.00     0.065 C 
HETATM   35  N3  UNL     1      -3.689   6.580  19.345  1.00  0.00    -0.378 N 
ATOM     36  H3  UNL     1      -3.131   6.225  18.569  1.00  0.00     0.164 HD
BRANCH  35  37
HETATM   37  C11 UNL     1      -3.864   7.974  19.516  1.00  0.00     0.089 C 
HETATM   38  C12 UNL     1      -2.817   8.753  19.610  1.00  0.00    -0.072 C 
HETATM   39  C13 UNL     1      -1.447   8.188  19.539  1.00  0.00     0.044 C 
HETATM   40  C14 UNL     1      -2.985  10.208  19.789  1.00  0.00     0.044 C 
ENDBRANCH  35  37
ENDBRANCH  33  34
ENDBRANCH  21  33
ENDBRANCH  15  16
ENDBRANCH  14  15
ENDBRANCH   1  14
TORSDOF 9
ENDMDL
MODEL 5
REMARK VINA RESULT: -7.265235941      1.553      2.084
REMARK  9 active torsions:
REMARK  status: ('A' for Active; 'I' for Inactive)
REMARK    1  A    between atoms: C2_2  and  N2_6 
REMARK    2  A    between atoms: N2_6  and  C4_8 
REMARK    3  A    between atoms: C5_9  and  O1_10 
REMARK    4  A    between atoms: C8_14  and  C9_15 
REMARK    5  A    between atoms: C9_15  and  C10_16 
REMARK    6  A    between atoms: N3_17  and  C11_19 
REMARK    7  A    between atoms: N4_25  and  C17_26 
REMARK    8  A    between atoms: C17_26  and  C18_27 
REMARK    9  A    between atoms: C18_27  and  C19_28 
ROOT
HETATM    1  C19 UNL     1      -2.084   4.792  20.085  1.00  0.00    -0.024 A 
HETATM    2  C20 UNL     1      -3.283   4.128  20.090  1.00  0.00     0.010 A 
HETATM    3  C21 UNL     1      -4.498   4.770  20.012  1.00  0.00     0.003 A 
HETATM    4  C22 UNL     1      -4.501   6.143  19.925  1.00  0.00     0.032 A 
HETATM    5  C23 UNL     1      -3.300   6.820  19.918  1.00  0.00     0.063 A 
HETATM    6  C24 UNL     1      -2.065   6.162  19.998  1.00  0.00     0.068 A 
HETATM    7  N5  UNL     1      -1.091   7.101  19.970  1.00  0.00    -0.331 N 
ATOM      8  H5  UNL     1      -0.087   6.927  20.013  1.00  0.00     0.168 HD
HETATM    9  C25 UNL     1      -1.683   8.303  19.876  1.00  0.00     0.191 A 
HETATM   10  C26 UNL     1      -0.955   9.534  19.824  1.00  0.00     0.137 C 
HETATM   11  N6  UNL     1      -0.381  10.537  19.781  1.00  0.00    -0.188 NA
HETATM   12  N7  UNL     1      -3.013   8.138  19.845  1.00  0.00    -0.327 N 
HETATM   13  C27 UNL     1      -4.024   9.184  19.752  1.00  0.00     0.159 C 
ENDROOT
BRANCH   1  14
HETATM   14  C18 UNL     1      -0.805   4.017  20.172  1.00  0.00     0.086 C 
BRANCH  14  15
HETATM   15  C17 UNL     1      -0.963   2.728  20.857  1.00  0.00     0.075 C 
BRANCH  15  16
HETATM   16  N4  UNL     1      -1.146   2.623  22.246  1.00  0.00    -0.320 N 
HETATM   17  C4  UNL     1      -1.920   1.682  22.826  1.00  0.00     0.148 C 
HETATM   18  C5  UNL     1      -1.449   0.913  23.931  1.00  0.00     0.117 C 
HETATM   19  C6  UNL     1      -0.863   1.432  25.075  1.00  0.00    -0.018 C 
HETATM   20  C7  UNL     1      -0.895   0.543  26.289  1.00  0.00     0.052 C 
HETATM   21  C8  UNL     1      -0.243   2.646  25.248  1.00  0.00    -0.043 C 
HETATM   22  C15 UNL     1       0.044   3.573  24.242  1.00  0.00     0.025 C 
HETATM   23  C16 UNL     1      -0.454   3.576  22.962  1.00  0.00     0.098 C 
BRANCH  17  24
HETATM   24  N2  UNL     1      -3.039   1.384  22.411  1.00  0.00    -0.325 N 
HETATM   25  C3  UNL     1      -3.435   0.573  21.301  1.00  0.00     0.159 C 
BRANCH  24  26
HETATM   26  C2  UNL     1      -4.222   1.977  23.050  1.00  0.00     0.074 C 
HETATM   27  C1  UNL     1      -4.185   3.313  23.672  1.00  0.00     0.088 C 
HETATM   28  N1  UNL     1      -5.301   1.285  23.108  1.00  0.00    -0.389 N 
ATOM     29  H12 UNL     1      -6.123   1.696  23.551  1.00  0.00     0.157 HD
ATOM     30  H11 UNL     1      -5.327   0.360  22.678  1.00  0.00     0.157 HD
ENDBRANCH  24  26
ENDBRANCH  17  24
BRANCH  18  31
HETATM   31  O1  UNL     1      -1.583  -0.448  23.855  1.00  0.00    -0.357 OA
ATOM     32  H1  UNL     1      -1.832  -0.908  24.648  1.00  0.00     0.218 HD
ENDBRANCH  18  31
BRANCH  21  33
HETATM   33  C9  UNL     1       0.155   3.020  26.609  1.00  0.00     0.083 C 
BRANCH  33  34
HETATM   34  C10 UNL     1      -0.947   3.674  27.374  1.00  0.00     0.065 C 
HETATM   35  N3  UNL     1      -1.129   4.948  27.244  1.00  0.00    -0.378 N 
ATOM     36  H3  UNL     1      -0.526   5.493  26.627  1.00  0.00     0.164 HD
BRANCH  35  37
HETATM   37  C11 UNL     1      -2.170   5.581  27.962  1.00  0.00     0.089 C 
HETATM   38  C12 UNL     1      -1.880   6.488  28.862  1.00  0.00    -0.072 C 
HETATM   39  C13 UNL     1      -0.469   6.856  29.133  1.00  0.00     0.044 C 
HETATM   40  C14 UNL     1      -2.956   7.156  29.619  1.00  0.00     0.044 C 
ENDBRANCH  35  37
ENDBRANCH  33  34
ENDBRANCH  21  33
ENDBRANCH  15  16
ENDBRANCH  14  15
ENDBRANCH   1  14
TORSDOF 9
ENDMDL
