MODEL 1
REMARK VINA RESULT: -6.291729759      0.000      0.000
REMARK  8 active torsions:
REMARK  status: ('A' for Active; 'I' for Inactive)
REMARK    1  A    between atoms: N2_12  and  N3_14 
REMARK       I    between atoms: N3_14  and  C11_16 
REMARK    2  A    between atoms: N4_21  and  C15_22 
REMARK    3  A    between atoms: C15_22  and  C16_23 
REMARK    4  A    between atoms: C16_23  and  C17_24 
REMARK    5  A    between atoms: C18_25  and  C19_26 
REMARK    6  A    between atoms: C19_26  and  O2_27 
REMARK    7  A    between atoms: C20_29  and  N5_30 
REMARK       I    between atoms: N5_30  and  C23_33 
REMARK    8  A    between atoms: C23_33  and  C24_35 
ROOT
HETATM    1  C1  UNL     1       1.195   1.423  24.999  1.00  0.00     0.044 C 
HETATM    2  C2  UNL     1       0.324   2.219  24.384  1.00  0.00     0.033 A 
HETATM    3  N1  UNL     1       0.199   3.527  24.605  1.00  0.00    -0.365 N 
ATOM      4  H1  UNL     1       0.747   4.079  25.265  1.00  0.00     0.165 HD
HETATM    5  C3  UNL     1      -0.786   3.997  23.797  1.00  0.00     0.099 A 
HETATM    6  C4  UNL     1      -1.303   2.958  23.039  1.00  0.00     0.014 A 
HETATM    7  C5  UNL     1      -0.601   1.866  23.423  1.00  0.00    -0.001 A 
HETATM    8  C6  UNL     1      -0.860   0.723  22.886  1.00  0.00     0.028 C 
HETATM    9  C7  UNL     1      -1.907   0.602  21.877  1.00  0.00     0.165 C 
HETATM   10  C8  UNL     1      -1.266   0.359  20.569  1.00  0.00     0.053 C 
HETATM   11  C9  UNL     1      -2.594  -0.734  22.267  1.00  0.00     0.053 C 
HETATM   12  N2  UNL     1      -2.931   1.667  21.920  1.00  0.00     0.041 N 
HETATM   13  C10 UNL     1      -3.661   1.393  20.649  1.00  0.00     0.305 C 
HETATM   14  C13 UNL     1      -2.372   2.952  21.943  1.00  0.00     0.243 C 
HETATM   15  C14 UNL     1      -1.507   3.260  20.718  1.00  0.00     0.170 C 
HETATM   16  N4  UNL     1      -1.909   4.615  20.849  1.00  0.00    -0.379 N 
HETATM   17  C20 UNL     1      -2.922   4.251  21.761  1.00  0.00     0.341 C 
ENDROOT
BRANCH  12  18
HETATM   18  N3  UNL     1      -3.802   1.216  22.877  1.00  0.00    -0.183 N 
HETATM   19  C11 UNL     1      -4.165   1.491  24.188  1.00  0.00     0.237 C 
HETATM   20  C12 UNL     1      -5.229   0.722  24.951  1.00  0.00     0.119 C 
HETATM   21  O1  UNL     1      -3.710   2.367  24.932  1.00  0.00    -0.272 OA
ATOM     22  H3  UNL     1      -4.354   0.439  22.514  1.00  0.00     0.197 HD
ENDBRANCH  12  18
BRANCH  17  23
HETATM   23  N5  UNL     1      -4.140   4.779  21.251  1.00  0.00     0.011 N 
HETATM   24  C21 UNL     1      -4.253   4.874  19.810  1.00  0.00     0.285 C 
HETATM   25  C22 UNL     1      -4.122   6.242  21.631  1.00  0.00     0.285 C 
HETATM   26  C23 UNL     1      -5.358   4.391  21.855  1.00  0.00     0.319 C 
HETATM   27  O3  UNL     1      -5.372   4.309  23.064  1.00  0.00    -0.265 OA
BRANCH  26  28
HETATM   28  C24 UNL     1      -6.608   4.080  21.147  1.00  0.00     0.107 C 
HETATM   29  C25 UNL     1      -7.157   2.687  21.462  1.00  0.00     0.014 C 
ENDBRANCH  26  28
ENDBRANCH  17  23
BRANCH  16  30
HETATM   30  C15 UNL     1      -1.045   5.641  20.747  1.00  0.00     0.131 C 
BRANCH  30  31
HETATM   31  C16 UNL     1      -1.198   6.217  19.305  1.00  0.00     0.113 C 
BRANCH  31  32
HETATM   32  C17 UNL     1      -1.777   7.551  19.367  1.00  0.00    -0.103 C 
HETATM   33  C18 UNL     1      -2.251   8.653  19.439  1.00  0.00    -0.081 C 
BRANCH  33  34
HETATM   34  C19 UNL     1      -2.822  10.017  19.551  1.00  0.00     0.257 C 
BRANCH  34  35
HETATM   35  O2  UNL     1      -4.213   9.963  19.590  1.00  0.00    -0.389 OA
ATOM     36  H2  UNL     1      -4.522   9.965  20.489  1.00  0.00     0.210 HD
ENDBRANCH  34  35
ENDBRANCH  33  34
ENDBRANCH  31  32
ENDBRANCH  30  31
ENDBRANCH  16  30
TORSDOF 8
ENDMDL
MODEL 2
REMARK VINA RESULT: -6.239789128      1.052      1.073
REMARK  8 active torsions:
REMARK  status: ('A' for Active; 'I' for Inactive)
REMARK    1  A    between atoms: N2_12  and  N3_14 
REMARK       I    between atoms: N3_14  and  C11_16 
REMARK    2  A    between atoms: N4_21  and  C15_22 
REMARK    3  A    between atoms: C15_22  and  C16_23 
REMARK    4  A    between atoms: C16_23  and  C17_24 
REMARK    5  A    between atoms: C18_25  and  C19_26 
REMARK    6  A    between atoms: C19_26  and  O2_27 
REMARK    7  A    between atoms: C20_29  and  N5_30 
REMARK       I    between atoms: N5_30  and  C23_33 
REMARK    8  A    between atoms: C23_33  and  C24_35 
ROOT
HETATM    1  C1  UNL     1       1.401   2.092  25.789  1.00  0.00     0.044 C 
HETATM    2  C2  UNL     1       0.451   2.657  25.048  1.00  0.00     0.033 A 
HETATM    3  N1  UNL     1      -0.114   3.837  25.302  1.00  0.00    -0.365 N 
ATOM      4  H1  UNL     1       0.106   4.450  26.088  1.00  0.00     0.165 HD
HETATM    5  C3  UNL     1      -1.034   4.080  24.334  1.00  0.00     0.099 A 
HETATM    6  C4  UNL     1      -1.056   3.025  23.436  1.00  0.00     0.014 A 
HETATM    7  C5  UNL     1      -0.129   2.154  23.901  1.00  0.00    -0.001 A 
HETATM    8  C6  UNL     1       0.083   1.052  23.267  1.00  0.00     0.028 C 
HETATM    9  C7  UNL     1      -0.674   0.738  22.060  1.00  0.00     0.165 C 
HETATM   10  C8  UNL     1       0.235   0.842  20.901  1.00  0.00     0.053 C 
HETATM   11  C9  UNL     1      -0.968  -0.776  22.234  1.00  0.00     0.053 C 
HETATM   12  N2  UNL     1      -1.970   1.441  21.944  1.00  0.00     0.041 N 
HETATM   13  C10 UNL     1      -2.337   1.105  20.539  1.00  0.00     0.305 C 
HETATM   14  C13 UNL     1      -1.854   2.823  22.145  1.00  0.00     0.243 C 
HETATM   15  C14 UNL     1      -0.922   3.506  21.140  1.00  0.00     0.170 C 
HETATM   16  N4  UNL     1      -1.744   4.659  21.253  1.00  0.00    -0.379 N 
HETATM   17  C20 UNL     1      -2.740   3.913  21.918  1.00  0.00     0.341 C 
ENDROOT
BRANCH  12  18
HETATM   18  N3  UNL     1      -2.814   0.650  22.678  1.00  0.00    -0.183 N 
HETATM   19  C11 UNL     1      -3.456   0.648  23.909  1.00  0.00     0.237 C 
HETATM   20  C12 UNL     1      -4.354  -0.476  24.394  1.00  0.00     0.119 C 
HETATM   21  O1  UNL     1      -3.414   1.518  24.786  1.00  0.00    -0.272 OA
ATOM     22  H3  UNL     1      -3.040  -0.200  22.162  1.00  0.00     0.197 HD
ENDBRANCH  12  18
BRANCH  17  23
HETATM   23  N5  UNL     1      -3.949   4.109  21.196  1.00  0.00     0.011 N 
HETATM   24  C21 UNL     1      -3.819   4.423  19.789  1.00  0.00     0.285 C 
HETATM   25  C22 UNL     1      -4.514   5.407  21.726  1.00  0.00     0.285 C 
HETATM   26  C23 UNL     1      -5.042   3.251  21.451  1.00  0.00     0.319 C 
HETATM   27  O3  UNL     1      -5.250   2.950  22.606  1.00  0.00    -0.265 OA
BRANCH  26  28
HETATM   28  C24 UNL     1      -5.951   2.692  20.439  1.00  0.00     0.107 C 
HETATM   29  C25 UNL     1      -5.949   1.163  20.396  1.00  0.00     0.014 C 
ENDBRANCH  26  28
ENDBRANCH  17  23
BRANCH  16  30
HETATM   30  C15 UNL     1      -1.240   5.899  21.381  1.00  0.00     0.131 C 
BRANCH  30  31
HETATM   31  C16 UNL     1      -1.171   6.509  19.946  1.00  0.00     0.113 C 
BRANCH  31  32
HETATM   32  C17 UNL     1      -2.039   7.674  19.865  1.00  0.00    -0.103 C 
HETATM   33  C18 UNL     1      -2.756   8.637  19.819  1.00  0.00    -0.081 C 
BRANCH  33  34
HETATM   34  C19 UNL     1      -3.635   9.832  19.788  1.00  0.00     0.257 C 
BRANCH  34  35
HETATM   35  O2  UNL     1      -4.929   9.477  19.413  1.00  0.00    -0.389 OA
ATOM     36  H2  UNL     1      -5.512  10.225  19.477  1.00  0.00     0.210 HD
ENDBRANCH  34  35
ENDBRANCH  33  34
ENDBRANCH  31  32
ENDBRANCH  30  31
ENDBRANCH  16  30
TORSDOF 8
ENDMDL
MODEL 3
REMARK VINA RESULT: -6.225117646      2.567      5.188
REMARK  8 active torsions:
REMARK  status: ('A' for Active; 'I' for Inactive)
REMARK    1  A    between atoms: N2_12  and  N3_14 
REMARK       I    between atoms: N3_14  and  C11_16 
REMARK    2  A    between atoms: N4_21  and  C15_22 
REMARK    3  A    between atoms: C15_22  and  C16_23 
REMARK    4  A    between atoms: C16_23  and  C17_24 
REMARK    5  A    between atoms: C18_25  and  C19_26 
REMARK    6  A    between atoms: C19_26  and  O2_27 
REMARK    7  A    between atoms: C20_29  and  N5_30 
REMARK       I    between atoms: N5_30  and  C23_33 
REMARK    8  A    between atoms: C23_33  and  C24_35 
ROOT
HETATM    1  C1  UNL     1      -1.220   7.567  20.163  1.00  0.00     0.044 C 
HETATM    2  C2  UNL     1      -2.228   6.795  20.559  1.00  0.00     0.033 A 
HETATM    3  N1  UNL     1      -3.512   7.154  20.556  1.00  0.00    -0.365 N 
ATOM      4  H1  UNL     1      -3.881   8.056  20.254  1.00  0.00     0.165 HD
HETATM    5  C3  UNL     1      -4.242   6.110  21.026  1.00  0.00     0.099 A 
HETATM    6  C4  UNL     1      -3.399   5.055  21.337  1.00  0.00     0.014 A 
HETATM    7  C5  UNL     1      -2.157   5.504  21.041  1.00  0.00    -0.001 A 
HETATM    8  C6  UNL     1      -1.141   4.733  21.230  1.00  0.00     0.028 C 
HETATM    9  C7  UNL     1      -1.324   3.388  21.765  1.00  0.00     0.165 C 
HETATM   10  C8  UNL     1      -1.059   2.418  20.684  1.00  0.00     0.053 C 
HETATM   11  C9  UNL     1      -0.135   3.256  22.754  1.00  0.00     0.053 C 
HETATM   12  N2  UNL     1      -2.574   3.194  22.531  1.00  0.00     0.041 N 
HETATM   13  C10 UNL     1      -2.563   1.712  22.697  1.00  0.00     0.305 C 
HETATM   14  C13 UNL     1      -3.706   3.640  21.837  1.00  0.00     0.243 C 
HETATM   15  C14 UNL     1      -3.924   2.922  20.502  1.00  0.00     0.170 C 
HETATM   16  N4  UNL     1      -5.319   3.099  20.702  1.00  0.00    -0.379 N 
HETATM   17  C20 UNL     1      -5.103   3.467  22.047  1.00  0.00     0.341 C 
ENDROOT
BRANCH  12  18
HETATM   18  N3  UNL     1      -2.240   3.645  23.781  1.00  0.00    -0.183 N 
HETATM   19  C11 UNL     1      -2.460   4.742  24.601  1.00  0.00     0.237 C 
HETATM   20  C12 UNL     1      -1.880   4.886  25.997  1.00  0.00     0.119 C 
HETATM   21  O1  UNL     1      -3.134   5.749  24.354  1.00  0.00    -0.272 OA
ATOM     22  H3  UNL     1      -1.647   2.964  24.255  1.00  0.00     0.197 HD
ENDBRANCH  12  18
BRANCH  17  23
HETATM   23  N5  UNL     1      -5.914   2.610  22.841  1.00  0.00     0.011 N 
HETATM   24  C21 UNL     1      -6.065   1.247  22.376  1.00  0.00     0.285 C 
HETATM   25  C22 UNL     1      -7.323   3.129  22.660  1.00  0.00     0.285 C 
HETATM   26  C23 UNL     1      -5.811   2.684  24.248  1.00  0.00     0.319 C 
HETATM   27  O3  UNL     1      -5.708   3.788  24.736  1.00  0.00    -0.265 OA
BRANCH  26  28
HETATM   28  C24 UNL     1      -5.820   1.540  25.172  1.00  0.00     0.107 C 
HETATM   29  C25 UNL     1      -4.505   1.363  25.934  1.00  0.00     0.014 C 
ENDBRANCH  26  28
ENDBRANCH  17  23
BRANCH  16  30
HETATM   30  C15 UNL     1      -6.145   3.512  19.724  1.00  0.00     0.131 C 
BRANCH  30  31
HETATM   31  C16 UNL     1      -6.712   2.227  19.042  1.00  0.00     0.113 C 
BRANCH  31  32
HETATM   32  C17 UNL     1      -7.879   2.570  18.243  1.00  0.00    -0.103 C 
HETATM   33  C18 UNL     1      -8.853   2.839  17.594  1.00  0.00    -0.081 C 
BRANCH  33  34
HETATM   34  C19 UNL     1     -10.073   3.157  16.810  1.00  0.00     0.257 C 
BRANCH  34  35
HETATM   35  O2  UNL     1      -9.866   4.287  16.022  1.00  0.00    -0.389 OA
ATOM     36  H2  UNL     1     -10.117   5.073  16.494  1.00  0.00     0.210 HD
ENDBRANCH  34  35
ENDBRANCH  33  34
ENDBRANCH  31  32
ENDBRANCH  30  31
ENDBRANCH  16  30
TORSDOF 8
ENDMDL
MODEL 4
REMARK VINA RESULT: -6.062595656      2.216      3.546
REMARK  8 active torsions:
REMARK  status: ('A' for Active; 'I' for Inactive)
REMARK    1  A    between atoms: N2_12  and  N3_14 
REMARK       I    between atoms: N3_14  and  C11_16 
REMARK    2  A    between atoms: N4_21  and  C15_22 
REMARK    3  A    between atoms: C15_22  and  C16_23 
REMARK    4  A    between atoms: C16_23  and  C17_24 
REMARK    5  A    between atoms: C18_25  and  C19_26 
REMARK    6  A    between atoms: C19_26  and  O2_27 
REMARK    7  A    between atoms: C20_29  and  N5_30 
REMARK       I    between atoms: N5_30  and  C23_33 
REMARK    8  A    between atoms: C23_33  and  C24_35 
ROOT
HETATM    1  C1  UNL     1      -1.626   6.047  28.365  1.00  0.00     0.044 C 
HETATM    2  C2  UNL     1      -2.074   5.601  27.195  1.00  0.00     0.033 A 
HETATM    3  N1  UNL     1      -3.120   6.102  26.538  1.00  0.00    -0.365 N 
ATOM      4  H1  UNL     1      -3.702   6.882  26.843  1.00  0.00     0.165 HD
HETATM    5  C3  UNL     1      -3.274   5.394  25.390  1.00  0.00     0.099 A 
HETATM    6  C4  UNL     1      -2.298   4.412  25.313  1.00  0.00     0.014 A 
HETATM    7  C5  UNL     1      -1.569   4.559  26.445  1.00  0.00    -0.001 A 
HETATM    8  C6  UNL     1      -0.571   3.773  26.664  1.00  0.00     0.028 C 
HETATM    9  C7  UNL     1      -0.232   2.726  25.706  1.00  0.00     0.165 C 
HETATM   10  C8  UNL     1       1.028   3.102  25.033  1.00  0.00     0.053 C 
HETATM   11  C9  UNL     1       0.121   1.529  26.629  1.00  0.00     0.053 C 
HETATM   12  N2  UNL     1      -1.346   2.308  24.829  1.00  0.00     0.041 N 
HETATM   13  C10 UNL     1      -0.614   1.456  23.848  1.00  0.00     0.305 C 
HETATM   14  C13 UNL     1      -1.985   3.393  24.214  1.00  0.00     0.243 C 
HETATM   15  C14 UNL     1      -1.053   4.225  23.329  1.00  0.00     0.170 C 
HETATM   16  N4  UNL     1      -2.176   4.497  22.504  1.00  0.00    -0.379 N 
HETATM   17  C20 UNL     1      -2.923   3.488  23.149  1.00  0.00     0.341 C 
ENDROOT
BRANCH  12  18
HETATM   18  N3  UNL     1      -2.012   1.388  25.596  1.00  0.00    -0.183 N 
HETATM   19  C11 UNL     1      -3.198   1.267  26.306  1.00  0.00     0.237 C 
HETATM   20  C12 UNL     1      -3.598   0.022  27.079  1.00  0.00     0.119 C 
HETATM   21  O1  UNL     1      -4.095   2.107  26.431  1.00  0.00    -0.272 OA
ATOM     22  H3  UNL     1      -1.468   0.529  25.668  1.00  0.00     0.197 HD
ENDBRANCH  12  18
BRANCH  17  23
HETATM   23  N5  UNL     1      -3.399   2.618  22.130  1.00  0.00     0.011 N 
HETATM   24  C21 UNL     1      -2.511   2.384  21.011  1.00  0.00     0.285 C 
HETATM   25  C22 UNL     1      -4.513   3.383  21.452  1.00  0.00     0.285 C 
HETATM   26  C23 UNL     1      -4.103   1.451  22.504  1.00  0.00     0.319 C 
HETATM   27  O3  UNL     1      -4.893   1.553  23.417  1.00  0.00    -0.265 OA
BRANCH  26  28
HETATM   28  C24 UNL     1      -3.964   0.127  21.883  1.00  0.00     0.107 C 
HETATM   29  C25 UNL     1      -3.359  -0.924  22.816  1.00  0.00     0.014 C 
ENDBRANCH  26  28
ENDBRANCH  17  23
BRANCH  16  30
HETATM   30  C15 UNL     1      -2.448   5.727  22.032  1.00  0.00     0.131 C 
BRANCH  30  31
HETATM   31  C16 UNL     1      -1.771   5.830  20.629  1.00  0.00     0.113 C 
BRANCH  31  32
HETATM   32  C17 UNL     1      -1.782   7.214  20.179  1.00  0.00    -0.103 C 
HETATM   33  C18 UNL     1      -1.800   8.362  19.825  1.00  0.00    -0.081 C 
BRANCH  33  34
HETATM   34  C19 UNL     1      -1.827   9.787  19.414  1.00  0.00     0.257 C 
BRANCH  34  35
HETATM   35  O2  UNL     1      -3.115  10.163  19.039  1.00  0.00    -0.389 OA
ATOM     36  H2  UNL     1      -3.180  10.231  18.093  1.00  0.00     0.210 HD
ENDBRANCH  34  35
ENDBRANCH  33  34
ENDBRANCH  31  32
ENDBRANCH  30  31
ENDBRANCH  16  30
TORSDOF 8
ENDMDL
MODEL 5
REMARK VINA RESULT: -6.000776449      3.049      6.386
REMARK  8 active torsions:
REMARK  status: ('A' for Active; 'I' for Inactive)
REMARK    1  A    between atoms: N2_12  and  N3_14 
REMARK       I    between atoms: N3_14  and  C11_16 
REMARK    2  A    between atoms: N4_21  and  C15_22 
REMARK    3  A    between atoms: C15_22  and  C16_23 
REMARK    4  A    between atoms: C16_23  and  C17_24 
REMARK    5  A    between atoms: C18_25  and  C19_26 
REMARK    6  A    between atoms: C19_26  and  O2_27 
REMARK    7  A    between atoms: C20_29  and  N5_30 
REMARK       I    between atoms: N5_30  and  C23_33 
REMARK    8  A    between atoms: C23_33  and  C24_35 
ROOT
HETATM    1  C1  UNL     1      -2.760   5.769  19.751  1.00  0.00     0.044 C 
HETATM    2  C2  UNL     1      -2.146   5.199  20.785  1.00  0.00     0.033 A 
HETATM    3  N1  UNL     1      -1.086   5.704  21.416  1.00  0.00    -0.365 N 
ATOM      4  H1  UNL     1      -0.616   6.581  21.191  1.00  0.00     0.165 HD
HETATM    5  C3  UNL     1      -0.742   4.847  22.411  1.00  0.00     0.099 A 
HETATM    6  C4  UNL     1      -1.607   3.765  22.415  1.00  0.00     0.014 A 
HETATM    7  C5  UNL     1      -2.467   4.004  21.396  1.00  0.00    -0.001 A 
HETATM    8  C6  UNL     1      -3.404   3.157  21.144  1.00  0.00     0.028 C 
HETATM    9  C7  UNL     1      -3.537   1.943  21.942  1.00  0.00     0.165 C 
HETATM   10  C8  UNL     1      -4.745   2.069  22.783  1.00  0.00     0.053 C 
HETATM   11  C9  UNL     1      -3.876   0.872  20.871  1.00  0.00     0.053 C 
HETATM   12  N2  UNL     1      -2.299   1.519  22.631  1.00  0.00     0.041 N 
HETATM   13  C10 UNL     1      -2.836   0.450  23.521  1.00  0.00     0.305 C 
HETATM   14  C13 UNL     1      -1.701   2.559  23.354  1.00  0.00     0.243 C 
HETATM   15  C14 UNL     1      -2.604   3.136  24.448  1.00  0.00     0.170 C 
HETATM   16  N4  UNL     1      -1.428   3.399  25.198  1.00  0.00    -0.379 N 
HETATM   17  C20 UNL     1      -0.665   2.591  24.329  1.00  0.00     0.341 C 
ENDROOT
BRANCH  12  18
HETATM   18  N3  UNL     1      -1.638   0.808  21.663  1.00  0.00    -0.183 N 
HETATM   19  C11 UNL     1      -0.562   0.950  20.799  1.00  0.00     0.237 C 
HETATM   20  C12 UNL     1      -0.120  -0.118  19.814  1.00  0.00     0.119 C 
HETATM   21  O1  UNL     1       0.192   1.923  20.682  1.00  0.00    -0.272 OA
ATOM     22  H3  UNL     1      -2.072  -0.106  21.540  1.00  0.00     0.197 HD
ENDBRANCH  12  18
BRANCH  17  23
HETATM   23  N5  UNL     1      -0.001   1.631  25.141  1.00  0.00     0.011 N 
HETATM   24  C21 UNL     1      -0.601   1.342  26.426  1.00  0.00     0.285 C 
HETATM   25  C22 UNL     1       1.282   2.305  25.572  1.00  0.00     0.285 C 
HETATM   26  C23 UNL     1       0.532   0.473  24.530  1.00  0.00     0.319 C 
HETATM   27  O3  UNL     1       1.081   0.617  23.459  1.00  0.00    -0.265 OA
BRANCH  26  28
HETATM   28  C24 UNL     1       0.480  -0.890  25.079  1.00  0.00     0.107 C 
HETATM   29  C25 UNL     1       1.822  -1.376  25.628  1.00  0.00     0.014 C 
ENDBRANCH  26  28
ENDBRANCH  17  23
BRANCH  16  30
HETATM   30  C15 UNL     1      -1.222   4.563  25.840  1.00  0.00     0.131 C 
BRANCH  30  31
HETATM   31  C16 UNL     1      -1.784   4.385  27.286  1.00  0.00     0.113 C 
BRANCH  31  32
HETATM   32  C17 UNL     1      -1.385   5.516  28.110  1.00  0.00    -0.103 C 
HETATM   33  C18 UNL     1      -1.057   6.438  28.808  1.00  0.00    -0.081 C 
BRANCH  33  34
HETATM   34  C19 UNL     1      -0.647   7.559  29.690  1.00  0.00     0.257 C 
BRANCH  34  35
HETATM   35  O2  UNL     1      -1.762   8.146  30.284  1.00  0.00    -0.389 OA
ATOM     36  H2  UNL     1      -1.934   7.752  31.132  1.00  0.00     0.210 HD
ENDBRANCH  34  35
ENDBRANCH  33  34
ENDBRANCH  31  32
ENDBRANCH  30  31
ENDBRANCH  16  30
TORSDOF 8
ENDMDL
