MODEL 1
REMARK VINA RESULT: -7.358920985      0.000      0.000
REMARK  10 active torsions:
REMARK  status: ('A' for Active; 'I' for Inactive)
REMARK    1  A    between atoms: C2_2  and  O1_3 
REMARK    2  A    between atoms: O1_3  and  C3_4 
REMARK    3  A    between atoms: C3_4  and  C4_5 
REMARK    4  A    between atoms: C5_6  and  C6_7 
REMARK    5  A    between atoms: C6_7  and  C7_8 
REMARK    6  A    between atoms: C7_8  and  N1_9 
REMARK    7  A    between atoms: C10_14  and  N3_15 
REMARK       I    between atoms: N3_15  and  C11_17 
REMARK       I    between atoms: C11_17  and  N5_21 
REMARK    8  A    between atoms: N5_21  and  C12_23 
REMARK    9  A    between atoms: C16_29  and  N7_30 
REMARK       I    between atoms: N7_30  and  C17_32 
REMARK   10  A    between atoms: C17_32  and  C18_34 
ROOT
HETATM    1  N1  UNL     1      -1.101   2.672  22.941  1.00  0.00    -0.170 N 
HETATM    2  C8  UNL     1      -0.182   1.702  23.001  1.00  0.00     0.112 A 
HETATM    3  C9  UNL     1       0.339   1.132  24.272  1.00  0.00     0.090 C 
HETATM    4  N2  UNL     1       0.323   1.265  21.805  1.00  0.00    -0.179 N 
ATOM      5  H2  UNL     1       1.025   0.525  21.798  1.00  0.00     0.185 HD
HETATM    6  C10 UNL     1      -0.091   1.793  20.644  1.00  0.00     0.712 A 
HETATM    7  N6  UNL     1      -1.013   2.770  20.589  1.00  0.00    -0.021 N 
ATOM      8  H6  UNL     1      -1.320   3.166  19.700  1.00  0.00     0.203 HD
HETATM    9  C16 UNL     1      -1.507   3.196  21.752  1.00  0.00     0.703 A 
ENDROOT
BRANCH   6  10
HETATM   10  N3  UNL     1       0.379   1.389  19.500  1.00  0.00    -0.022 N 
HETATM   11  C11 UNL     1       0.284   0.004  19.204  1.00  0.00     0.686 C 
HETATM   12  N4  UNL     1      -0.801  -0.613  19.456  1.00  0.00    -0.234 N 
HETATM   13  N5  UNL     1       1.428  -0.619  18.635  1.00  0.00    -0.218 N 
ATOM     14  H42 UNL     1      -1.623  -0.166  19.864  1.00  0.00     0.174 HD
ATOM     15  H41 UNL     1      -0.870  -1.608  19.243  1.00  0.00     0.174 HD
ATOM     16  H5  UNL     1       1.658  -0.484  17.651  1.00  0.00     0.178 HD
ATOM     17  H3  UNL     1       0.801   2.042  18.840  1.00  0.00     0.203 HD
BRANCH  13  18
HETATM   18  C12 UNL     1       2.254  -1.439  19.472  1.00  0.00     0.036 C 
HETATM   19  C13 UNL     1       3.301  -0.650  20.221  1.00  0.00     0.038 C 
HETATM   20  C14 UNL     1       2.999  -2.408  18.558  1.00  0.00     0.038 C 
HETATM   21  C15 UNL     1       1.452  -2.223  20.482  1.00  0.00     0.038 C 
ENDBRANCH  13  18
ENDBRANCH   6  10
BRANCH   9  22
HETATM   22  N7  UNL     1      -2.391   4.129  21.724  1.00  0.00    -0.154 N 
HETATM   23  C17 UNL     1      -2.784   4.815  20.565  1.00  0.00     0.271 C 
HETATM   24  O2  UNL     1      -3.532   4.273  19.732  1.00  0.00    -0.267 OA
ATOM     25  H7  UNL     1      -2.838   4.387  22.604  1.00  0.00     0.187 HD
BRANCH  23  26
HETATM   26  C18 UNL     1      -2.332   6.195  20.285  1.00  0.00     0.048 A 
HETATM   27  C19 UNL     1      -1.000   6.475  20.106  1.00  0.00     0.020 A 
HETATM   28  C20 UNL     1      -0.614   7.763  19.847  1.00  0.00     0.018 A 
HETATM   29  C21 UNL     1      -1.572   8.747  19.773  1.00  0.00     0.090 A 
HETATM   30  N8  UNL     1      -2.860   8.483  19.945  1.00  0.00    -0.370 N 
HETATM   31  C22 UNL     1      -3.818   9.588  19.850  1.00  0.00     0.154 C 
HETATM   32  C23 UNL     1      -3.238   7.229  20.197  1.00  0.00     0.107 A 
ENDBRANCH  23  26
ENDBRANCH   9  22
BRANCH   1  33
HETATM   33  C7  UNL     1      -1.753   3.177  24.108  1.00  0.00     0.161 C 
BRANCH  33  34
HETATM   34  C6  UNL     1      -0.969   4.256  24.794  1.00  0.00     0.115 C 
BRANCH  34  35
HETATM   35  C5  UNL     1      -0.913   4.213  26.233  1.00  0.00    -0.103 C 
HETATM   36  C4  UNL     1      -0.900   4.191  27.439  1.00  0.00    -0.081 C 
BRANCH  36  37
HETATM   37  C3  UNL     1      -0.897   4.145  28.904  1.00  0.00     0.261 C 
BRANCH  37  38
HETATM   38  O1  UNL     1      -0.458   5.312  29.479  1.00  0.00    -0.380 OA
BRANCH  38  39
HETATM   39  C2  UNL     1      -1.143   6.433  29.062  1.00  0.00     0.164 C 
HETATM   40  C1  UNL     1      -0.733   7.659  29.865  1.00  0.00     0.033 C 
ENDBRANCH  38  39
ENDBRANCH  37  38
ENDBRANCH  36  37
ENDBRANCH  34  35
ENDBRANCH  33  34
ENDBRANCH   1  33
TORSDOF 10
ENDMDL
MODEL 2
REMARK VINA RESULT: -7.120142932      1.974      6.860
REMARK  10 active torsions:
REMARK  status: ('A' for Active; 'I' for Inactive)
REMARK    1  A    between atoms: C2_2  and  O1_3 
REMARK    2  A    between atoms: O1_3  and  C3_4 
REMARK    3  A    between atoms: C3_4  and  C4_5 
REMARK    4  A    between atoms: C5_6  and  C6_7 
REMARK    5  A    between atoms: C6_7  and  C7_8 
REMARK    6  A    between atoms: C7_8  and  N1_9 
REMARK    7  A    between atoms: C10_14  and  N3_15 
REMARK       I    between atoms: N3_15  and  C11_17 
REMARK       I    between atoms: C11_17  and  N5_21 
REMARK    8  A    between atoms: N5_21  and  C12_23 
REMARK    9  A    between atoms: C16_29  and  N7_30 
REMARK       I    between atoms: N7_30  and  C17_32 
REMARK   10  A    between atoms: C17_32  and  C18_34 
ROOT
HETATM    1  N1  UNL     1      -1.223   2.213  22.387  1.00  0.00    -0.170 N 
HETATM    2  C8  UNL     1      -2.046   3.261  22.495  1.00  0.00     0.112 A 
HETATM    3  C9  UNL     1      -2.894   3.529  23.687  1.00  0.00     0.090 C 
HETATM    4  N2  UNL     1      -2.125   4.089  21.406  1.00  0.00    -0.179 N 
ATOM      5  H2  UNL     1      -2.738   4.903  21.439  1.00  0.00     0.185 HD
HETATM    6  C10 UNL     1      -1.410   3.846  20.298  1.00  0.00     0.712 A 
HETATM    7  N6  UNL     1      -0.585   2.790  20.194  1.00  0.00    -0.021 N 
ATOM      8  H6  UNL     1      -0.046   2.613  19.346  1.00  0.00     0.203 HD
HETATM    9  C16 UNL     1      -0.505   1.984  21.253  1.00  0.00     0.703 A 
ENDROOT
BRANCH   6  10
HETATM   10  N3  UNL     1      -1.474   4.623  19.256  1.00  0.00    -0.022 N 
HETATM   11  C11 UNL     1      -1.061   5.972  19.416  1.00  0.00     0.686 C 
HETATM   12  N4  UNL     1       0.006   6.222  20.064  1.00  0.00    -0.234 N 
HETATM   13  N5  UNL     1      -1.882   6.975  18.833  1.00  0.00    -0.218 N 
ATOM     14  H42 UNL     1       0.595   5.502  20.483  1.00  0.00     0.174 HD
ATOM     15  H41 UNL     1       0.303   7.191  20.179  1.00  0.00     0.174 HD
ATOM     16  H5  UNL     1      -1.856   7.148  17.828  1.00  0.00     0.178 HD
ATOM     17  H3  UNL     1      -1.810   4.276  18.357  1.00  0.00     0.203 HD
BRANCH  13  18
HETATM   18  C12 UNL     1      -2.746   7.740  19.684  1.00  0.00     0.036 C 
HETATM   19  C13 UNL     1      -4.127   7.925  19.105  1.00  0.00     0.038 C 
HETATM   20  C14 UNL     1      -2.131   9.130  19.818  1.00  0.00     0.038 C 
HETATM   21  C15 UNL     1      -2.895   7.126  21.054  1.00  0.00     0.038 C 
ENDBRANCH  13  18
ENDBRANCH   6  10
BRANCH   9  22
HETATM   22  N7  UNL     1       0.278   0.967  21.178  1.00  0.00    -0.154 N 
HETATM   23  C17 UNL     1       0.988   0.597  20.025  1.00  0.00     0.271 C 
HETATM   24  O2  UNL     1       2.002   1.228  19.678  1.00  0.00    -0.267 OA
ATOM     25  H7  UNL     1       0.391   0.390  22.012  1.00  0.00     0.187 HD
BRANCH  23  26
HETATM   26  C18 UNL     1       0.570  -0.544  19.183  1.00  0.00     0.048 A 
HETATM   27  C19 UNL     1       0.338  -1.778  19.739  1.00  0.00     0.020 A 
HETATM   28  C20 UNL     1      -0.048  -2.815  18.932  1.00  0.00     0.018 A 
HETATM   29  C21 UNL     1      -0.195  -2.595  17.582  1.00  0.00     0.090 A 
HETATM   30  N8  UNL     1       0.027  -1.405  17.040  1.00  0.00    -0.370 N 
HETATM   31  C22 UNL     1      -0.152  -1.253  15.593  1.00  0.00     0.154 C 
HETATM   32  C23 UNL     1       0.404  -0.394  17.824  1.00  0.00     0.107 A 
ENDBRANCH  23  26
ENDBRANCH   9  22
BRANCH   1  33
HETATM   33  C7  UNL     1      -1.000   1.305  23.468  1.00  0.00     0.161 C 
BRANCH  33  34
HETATM   34  C6  UNL     1       0.164   1.696  24.329  1.00  0.00     0.115 C 
BRANCH  34  35
HETATM   35  C5  UNL     1      -0.119   2.499  25.491  1.00  0.00    -0.103 C 
HETATM   36  C4  UNL     1      -0.384   3.185  26.447  1.00  0.00    -0.081 C 
BRANCH  36  37
HETATM   37  C3  UNL     1      -0.724   4.003  27.616  1.00  0.00     0.261 C 
BRANCH  37  38
HETATM   38  O1  UNL     1      -1.024   5.303  27.294  1.00  0.00    -0.380 OA
BRANCH  38  39
HETATM   39  C2  UNL     1      -1.697   5.984  28.285  1.00  0.00     0.164 C 
HETATM   40  C1  UNL     1      -0.743   6.829  29.118  1.00  0.00     0.033 C 
ENDBRANCH  38  39
ENDBRANCH  37  38
ENDBRANCH  36  37
ENDBRANCH  34  35
ENDBRANCH  33  34
ENDBRANCH   1  33
TORSDOF 10
ENDMDL
MODEL 3
REMARK VINA RESULT: -6.980963653      0.794      1.620
REMARK  10 active torsions:
REMARK  status: ('A' for Active; 'I' for Inactive)
REMARK    1  A    between atoms: C2_2  and  O1_3 
REMARK    2  A    between atoms: O1_3  and  C3_4 
REMARK    3  A    between atoms: C3_4  and  C4_5 
REMARK    4  A    between atoms: C5_6  and  C6_7 
REMARK    5  A    between atoms: C6_7  and  C7_8 
REMARK    6  A    between atoms: C7_8  and  N1_9 
REMARK    7  A    between atoms: C10_14  and  N3_15 
REMARK       I    between atoms: N3_15  and  C11_17 
REMARK       I    between atoms: C11_17  and  N5_21 
REMARK    8  A    between atoms: N5_21  and  C12_23 
REMARK    9  A    between atoms: C16_29  and  N7_30 
REMARK       I    between atoms: N7_30  and  C17_32 
REMARK   10  A    between atoms: C17_32  and  C18_34 
ROOT
HETATM    1  N1  UNL     1      -1.184   2.712  22.872  1.00  0.00    -0.170 N 
HETATM    2  C8  UNL     1      -0.263   1.746  22.954  1.00  0.00     0.112 A 
HETATM    3  C9  UNL     1       0.233   1.181  24.237  1.00  0.00     0.090 C 
HETATM    4  N2  UNL     1       0.269   1.310  21.770  1.00  0.00    -0.179 N 
ATOM      5  H2  UNL     1       0.975   0.573  21.779  1.00  0.00     0.185 HD
HETATM    6  C10 UNL     1      -0.121   1.835  20.599  1.00  0.00     0.712 A 
HETATM    7  N6  UNL     1      -1.046   2.807  20.522  1.00  0.00    -0.021 N 
ATOM      8  H6  UNL     1      -1.335   3.201  19.627  1.00  0.00     0.203 HD
HETATM    9  C16 UNL     1      -1.566   3.233  21.674  1.00  0.00     0.703 A 
ENDROOT
BRANCH   6  10
HETATM   10  N3  UNL     1       0.375   1.430  19.466  1.00  0.00    -0.022 N 
HETATM   11  C11 UNL     1       0.266   0.049  19.157  1.00  0.00     0.686 C 
HETATM   12  N4  UNL     1      -0.835  -0.552  19.374  1.00  0.00    -0.234 N 
HETATM   13  N5  UNL     1       1.417  -0.588  18.617  1.00  0.00    -0.218 N 
ATOM     14  H42 UNL     1      -1.661  -0.095  19.762  1.00  0.00     0.174 HD
ATOM     15  H41 UNL     1      -0.914  -1.544  19.153  1.00  0.00     0.174 HD
ATOM     16  H5  UNL     1       1.677  -0.450  17.641  1.00  0.00     0.178 HD
ATOM     17  H3  UNL     1       0.826   2.082  18.823  1.00  0.00     0.203 HD
BRANCH  13  18
HETATM   18  C12 UNL     1       2.205  -1.427  19.471  1.00  0.00     0.036 C 
HETATM   19  C13 UNL     1       1.378  -2.163  20.498  1.00  0.00     0.038 C 
HETATM   20  C14 UNL     1       3.159  -0.518  20.240  1.00  0.00     0.038 C 
HETATM   21  C15 UNL     1       3.003  -2.448  18.698  1.00  0.00     0.038 C 
ENDBRANCH  13  18
ENDBRANCH   6  10
BRANCH   9  22
HETATM   22  N7  UNL     1      -2.454   4.163  21.626  1.00  0.00    -0.154 N 
HETATM   23  C17 UNL     1      -2.808   4.861  20.462  1.00  0.00     0.271 C 
HETATM   24  O2  UNL     1      -3.524   4.325  19.597  1.00  0.00    -0.267 OA
ATOM     25  H7  UNL     1      -2.932   4.409  22.493  1.00  0.00     0.187 HD
BRANCH  23  26
HETATM   26  C18 UNL     1      -2.354   6.246  20.213  1.00  0.00     0.048 A 
HETATM   27  C19 UNL     1      -1.021   6.525  20.033  1.00  0.00     0.020 A 
HETATM   28  C20 UNL     1      -0.632   7.818  19.804  1.00  0.00     0.018 A 
HETATM   29  C21 UNL     1      -1.587   8.808  19.761  1.00  0.00     0.090 A 
HETATM   30  N8  UNL     1      -2.875   8.543  19.935  1.00  0.00    -0.370 N 
HETATM   31  C22 UNL     1      -3.830   9.654  19.874  1.00  0.00     0.154 C 
HETATM   32  C23 UNL     1      -3.256   7.285  20.158  1.00  0.00     0.107 A 
ENDBRANCH  23  26
ENDBRANCH   9  22
BRANCH   1  33
HETATM   33  C7  UNL     1      -1.863   3.217  24.024  1.00  0.00     0.161 C 
BRANCH  33  34
HETATM   34  C6  UNL     1      -1.137   4.354  24.679  1.00  0.00     0.115 C 
BRANCH  34  35
HETATM   35  C5  UNL     1      -1.040   4.331  26.116  1.00  0.00    -0.103 C 
HETATM   36  C4  UNL     1      -0.962   4.348  27.320  1.00  0.00    -0.081 C 
BRANCH  36  37
HETATM   37  C3  UNL     1      -0.893   4.370  28.784  1.00  0.00     0.261 C 
BRANCH  37  38
HETATM   38  O1  UNL     1      -0.116   3.363  29.301  1.00  0.00    -0.380 OA
BRANCH  38  39
HETATM   39  C2  UNL     1      -0.680   2.110  29.193  1.00  0.00     0.164 C 
HETATM   40  C1  UNL     1       0.232   1.159  28.432  1.00  0.00     0.033 C 
ENDBRANCH  38  39
ENDBRANCH  37  38
ENDBRANCH  36  37
ENDBRANCH  34  35
ENDBRANCH  33  34
ENDBRANCH   1  33
TORSDOF 10
ENDMDL
MODEL 4
REMARK VINA RESULT: -6.968545964      4.229      7.701
REMARK  10 active torsions:
REMARK  status: ('A' for Active; 'I' for Inactive)
REMARK    1  A    between atoms: C2_2  and  O1_3 
REMARK    2  A    between atoms: O1_3  and  C3_4 
REMARK    3  A    between atoms: C3_4  and  C4_5 
REMARK    4  A    between atoms: C5_6  and  C6_7 
REMARK    5  A    between atoms: C6_7  and  C7_8 
REMARK    6  A    between atoms: C7_8  and  N1_9 
REMARK    7  A    between atoms: C10_14  and  N3_15 
REMARK       I    between atoms: N3_15  and  C11_17 
REMARK       I    between atoms: C11_17  and  N5_21 
REMARK    8  A    between atoms: N5_21  and  C12_23 
REMARK    9  A    between atoms: C16_29  and  N7_30 
REMARK       I    between atoms: N7_30  and  C17_32 
REMARK   10  A    between atoms: C17_32  and  C18_34 
ROOT
HETATM    1  N1  UNL     1      -3.958   3.158  21.365  1.00  0.00    -0.170 N 
HETATM    2  C8  UNL     1      -4.081   2.506  22.525  1.00  0.00     0.112 A 
HETATM    3  C9  UNL     1      -4.940   1.306  22.714  1.00  0.00     0.090 C 
HETATM    4  N2  UNL     1      -3.403   3.028  23.594  1.00  0.00    -0.179 N 
ATOM      5  H2  UNL     1      -3.463   2.566  24.501  1.00  0.00     0.185 HD
HETATM    6  C10 UNL     1      -2.659   4.138  23.467  1.00  0.00     0.712 A 
HETATM    7  N6  UNL     1      -2.540   4.791  22.299  1.00  0.00    -0.021 N 
ATOM      8  H6  UNL     1      -1.973   5.635  22.213  1.00  0.00     0.203 HD
HETATM    9  C16 UNL     1      -3.199   4.283  21.257  1.00  0.00     0.703 A 
ENDROOT
BRANCH   6  10
HETATM   10  N3  UNL     1      -2.008   4.646  24.473  1.00  0.00    -0.022 N 
HETATM   11  C11 UNL     1      -0.643   4.286  24.622  1.00  0.00     0.686 C 
HETATM   12  N4  UNL     1       0.111   4.270  23.596  1.00  0.00    -0.234 N 
HETATM   13  N5  UNL     1      -0.198   3.958  25.931  1.00  0.00    -0.218 N 
ATOM     14  H42 UNL     1      -0.209   4.505  22.656  1.00  0.00     0.174 HD
ATOM     15  H41 UNL     1       1.091   4.011  23.702  1.00  0.00     0.174 HD
ATOM     16  H5  UNL     1      -0.018   4.690  26.618  1.00  0.00     0.178 HD
ATOM     17  H3  UNL     1      -2.462   5.280  25.131  1.00  0.00     0.203 HD
BRANCH  13  18
HETATM   18  C12 UNL     1      -0.005   2.578  26.268  1.00  0.00     0.036 C 
HETATM   19  C13 UNL     1      -1.062   1.676  25.679  1.00  0.00     0.038 C 
HETATM   20  C14 UNL     1      -0.122   2.465  27.786  1.00  0.00     0.038 C 
HETATM   21  C15 UNL     1       1.343   2.061  25.832  1.00  0.00     0.038 C 
ENDBRANCH  13  18
ENDBRANCH   6  10
BRANCH   9  22
HETATM   22  N7  UNL     1      -3.099   4.891  20.128  1.00  0.00    -0.154 N 
HETATM   23  C17 UNL     1      -2.114   5.843  19.824  1.00  0.00     0.271 C 
HETATM   24  O2  UNL     1      -0.948   5.488  19.578  1.00  0.00    -0.267 OA
ATOM     25  H7  UNL     1      -3.782   4.665  19.404  1.00  0.00     0.187 HD
BRANCH  23  26
HETATM   26  C18 UNL     1      -2.414   7.290  19.783  1.00  0.00     0.048 A 
HETATM   27  C19 UNL     1      -3.710   7.736  19.696  1.00  0.00     0.020 A 
HETATM   28  C20 UNL     1      -3.954   9.083  19.659  1.00  0.00     0.018 A 
HETATM   29  C21 UNL     1      -2.894   9.959  19.711  1.00  0.00     0.090 A 
HETATM   30  N8  UNL     1      -1.641   9.533  19.794  1.00  0.00    -0.370 N 
HETATM   31  C22 UNL     1      -0.567  10.530  19.845  1.00  0.00     0.154 C 
HETATM   32  C23 UNL     1      -1.400   8.222  19.830  1.00  0.00     0.107 A 
ENDBRANCH  23  26
ENDBRANCH   9  22
BRANCH   1  33
HETATM   33  C7  UNL     1      -4.563   2.688  20.158  1.00  0.00     0.161 C 
BRANCH  33  34
HETATM   34  C6  UNL     1      -5.889   3.331  19.882  1.00  0.00     0.115 C 
BRANCH  34  35
HETATM   35  C5  UNL     1      -6.763   2.660  18.953  1.00  0.00    -0.103 C 
HETATM   36  C4  UNL     1      -7.517   2.126  18.178  1.00  0.00    -0.081 C 
BRANCH  36  37
HETATM   37  C3  UNL     1      -8.427   1.492  17.218  1.00  0.00     0.261 C 
BRANCH  37  38
HETATM   38  O1  UNL     1      -9.039   2.392  16.382  1.00  0.00    -0.380 OA
BRANCH  38  39
HETATM   39  C2  UNL     1     -10.024   3.140  16.990  1.00  0.00     0.164 C 
HETATM   40  C1  UNL     1     -11.348   2.391  17.018  1.00  0.00     0.033 C 
ENDBRANCH  38  39
ENDBRANCH  37  38
ENDBRANCH  36  37
ENDBRANCH  34  35
ENDBRANCH  33  34
ENDBRANCH   1  33
TORSDOF 10
ENDMDL
MODEL 5
REMARK VINA RESULT: -6.927064628      1.284      1.366
REMARK  10 active torsions:
REMARK  status: ('A' for Active; 'I' for Inactive)
REMARK    1  A    between atoms: C2_2  and  O1_3 
REMARK    2  A    between atoms: O1_3  and  C3_4 
REMARK    3  A    between atoms: C3_4  and  C4_5 
REMARK    4  A    between atoms: C5_6  and  C6_7 
REMARK    5  A    between atoms: C6_7  and  C7_8 
REMARK    6  A    between atoms: C7_8  and  N1_9 
REMARK    7  A    between atoms: C10_14  and  N3_15 
REMARK       I    between atoms: N3_15  and  C11_17 
REMARK       I    between atoms: C11_17  and  N5_21 
REMARK    8  A    between atoms: N5_21  and  C12_23 
REMARK    9  A    between atoms: C16_29  and  N7_30 
REMARK       I    between atoms: N7_30  and  C17_32 
REMARK   10  A    between atoms: C17_32  and  C18_34 
ROOT
HETATM    1  N1  UNL     1      -0.127   2.823  23.547  1.00  0.00    -0.170 N 
HETATM    2  C8  UNL     1       0.261   1.555  23.377  1.00  0.00     0.112 A 
HETATM    3  C9  UNL     1       0.727   0.676  24.482  1.00  0.00     0.090 C 
HETATM    4  N2  UNL     1       0.263   1.086  22.090  1.00  0.00    -0.179 N 
ATOM      5  H2  UNL     1       0.550   0.124  21.907  1.00  0.00     0.185 HD
HETATM    6  C10 UNL     1      -0.105   1.871  21.066  1.00  0.00     0.712 A 
HETATM    7  N6  UNL     1      -0.492   3.146  21.242  1.00  0.00    -0.021 N 
ATOM      8  H6  UNL     1      -0.768   3.734  20.456  1.00  0.00     0.203 HD
HETATM    9  C16 UNL     1      -0.496   3.604  22.495  1.00  0.00     0.703 A 
ENDROOT
BRANCH   6  10
HETATM   10  N3  UNL     1      -0.108   1.439  19.838  1.00  0.00    -0.022 N 
HETATM   11  C11 UNL     1      -0.426   0.073  19.623  1.00  0.00     0.686 C 
HETATM   12  N4  UNL     1      -1.403  -0.445  20.255  1.00  0.00    -0.234 N 
HETATM   13  N5  UNL     1       0.383  -0.644  18.700  1.00  0.00    -0.218 N 
ATOM     14  H42 UNL     1      -1.983   0.069  20.917  1.00  0.00     0.174 HD
ATOM     15  H41 UNL     1      -1.631  -1.427  20.100  1.00  0.00     0.174 HD
ATOM     16  H5  UNL     1       0.261  -0.518  17.695  1.00  0.00     0.178 HD
ATOM     17  H3  UNL     1       0.111   2.060  19.058  1.00  0.00     0.203 HD
BRANCH  13  18
HETATM   18  C12 UNL     1       1.373  -1.547  19.207  1.00  0.00     0.036 C 
HETATM   19  C13 UNL     1       2.530  -0.839  19.871  1.00  0.00     0.038 C 
HETATM   20  C14 UNL     1       1.945  -2.307  18.013  1.00  0.00     0.038 C 
HETATM   21  C15 UNL     1       0.802  -2.532  20.197  1.00  0.00     0.038 C 
ENDBRANCH  13  18
ENDBRANCH   6  10
BRANCH   9  22
HETATM   22  N7  UNL     1      -0.864   4.821  22.689  1.00  0.00    -0.154 N 
HETATM   23  C17 UNL     1      -2.049   5.380  22.188  1.00  0.00     0.271 C 
HETATM   24  O2  UNL     1      -3.145   5.112  22.712  1.00  0.00    -0.267 OA
ATOM     25  H7  UNL     1      -0.253   5.419  23.245  1.00  0.00     0.187 HD
BRANCH  23  26
HETATM   26  C18 UNL     1      -2.049   6.301  21.031  1.00  0.00     0.048 A 
HETATM   27  C19 UNL     1      -1.037   6.263  20.104  1.00  0.00     0.020 A 
HETATM   28  C20 UNL     1      -1.066   7.129  19.043  1.00  0.00     0.018 A 
HETATM   29  C21 UNL     1      -2.111   8.018  18.932  1.00  0.00     0.090 A 
HETATM   30  N8  UNL     1      -3.090   8.059  19.825  1.00  0.00    -0.370 N 
HETATM   31  C22 UNL     1      -4.167   9.036  19.635  1.00  0.00     0.154 C 
HETATM   32  C23 UNL     1      -3.064   7.217  20.859  1.00  0.00     0.107 A 
ENDBRANCH  23  26
ENDBRANCH   9  22
BRANCH   1  33
HETATM   33  C7  UNL     1      -0.234   3.420  24.842  1.00  0.00     0.161 C 
BRANCH  33  34
HETATM   34  C6  UNL     1      -1.568   3.186  25.484  1.00  0.00     0.115 C 
BRANCH  34  35
HETATM   35  C5  UNL     1      -2.145   4.283  26.219  1.00  0.00    -0.103 C 
HETATM   36  C4  UNL     1      -2.608   5.192  26.863  1.00  0.00    -0.081 C 
BRANCH  36  37
HETATM   37  C3  UNL     1      -3.150   6.310  27.642  1.00  0.00     0.261 C 
BRANCH  37  38
HETATM   38  O1  UNL     1      -2.576   6.429  28.883  1.00  0.00    -0.380 OA
BRANCH  38  39
HETATM   39  C2  UNL     1      -1.207   6.581  28.854  1.00  0.00     0.164 C 
HETATM   40  C1  UNL     1      -0.744   7.608  29.877  1.00  0.00     0.033 C 
ENDBRANCH  38  39
ENDBRANCH  37  38
ENDBRANCH  36  37
ENDBRANCH  34  35
ENDBRANCH  33  34
ENDBRANCH   1  33
TORSDOF 10
ENDMDL
