MODEL 1
REMARK VINA RESULT: -5.368597537      0.000      0.000
REMARK  2 active torsions:
REMARK  status: ('A' for Active; 'I' for Inactive)
REMARK    1  A    between atoms: C4_5  and  C5_6 
REMARK    2  A    between atoms: C8_10  and  C9_12 
ROOT
HETATM    1  C1  UNL     1    -156.019   4.285  -7.935  1.00  0.00     0.030 C 
HETATM    2  C2  UNL     1    -155.766   5.310  -6.878  1.00  0.00     0.046 C 
HETATM    3  C3  UNL     1    -156.792   5.146  -5.763  1.00  0.00     0.030 C 
HETATM    4  S1  UNL     1    -154.211   4.782  -6.041  1.00  0.00    -0.150 SA
HETATM    5  C4  UNL     1    -152.946   5.262  -7.199  1.00  0.00     0.062 C 
HETATM    6  C6  UNL     1    -153.120   6.604  -7.817  1.00  0.00     0.020 C 
HETATM    7  C7  UNL     1    -154.438   7.150  -8.039  1.00  0.00     0.056 C 
HETATM    8  C8  UNL     1    -155.648   6.713  -7.347  1.00  0.00     0.216 C 
HETATM    9  F1  UNL     1    -155.799   7.470  -6.163  1.00  0.00    -0.232 F 
ENDROOT
BRANCH   8  10
HETATM   10  C9  UNL     1    -156.862   7.115  -8.165  1.00  0.00     0.424 C 
HETATM   11  F2  UNL     1    -156.504   7.917  -9.205  1.00  0.00    -0.167 F 
HETATM   12  F3  UNL     1    -157.620   7.926  -7.301  1.00  0.00    -0.167 F 
HETATM   13  F4  UNL     1    -157.670   6.078  -8.506  1.00  0.00    -0.167 F 
ENDBRANCH   8  10
BRANCH   5  14
HETATM   14  C5  UNL     1    -151.606   5.168  -6.449  1.00  0.00     0.130 C 
HETATM   15 CL1  UNL     1    -150.379   4.394  -7.474  1.00  0.00    -0.129 Cl
ENDBRANCH   5  14
TORSDOF 2
ENDMDL
MODEL 2
REMARK VINA RESULT: -5.331811227      2.085      2.792
REMARK  2 active torsions:
REMARK  status: ('A' for Active; 'I' for Inactive)
REMARK    1  A    between atoms: C4_5  and  C5_6 
REMARK    2  A    between atoms: C8_10  and  C9_12 
ROOT
HETATM    1  C1  UNL     1    -155.239   5.041  -8.174  1.00  0.00     0.030 C 
HETATM    2  C2  UNL     1    -154.643   5.913  -7.118  1.00  0.00     0.046 C 
HETATM    3  C3  UNL     1    -155.712   6.859  -6.584  1.00  0.00     0.030 C 
HETATM    4  S1  UNL     1    -154.360   4.808  -5.668  1.00  0.00    -0.150 SA
HETATM    5  C4  UNL     1    -152.900   3.900  -6.132  1.00  0.00     0.062 C 
HETATM    6  C6  UNL     1    -151.819   4.705  -6.764  1.00  0.00     0.020 C 
HETATM    7  C7  UNL     1    -152.132   5.870  -7.556  1.00  0.00     0.056 C 
HETATM    8  C8  UNL     1    -153.388   6.614  -7.484  1.00  0.00     0.216 C 
HETATM    9  F1  UNL     1    -153.270   7.617  -6.495  1.00  0.00    -0.232 F 
ENDROOT
BRANCH   8  10
HETATM   10  C9  UNL     1    -153.566   7.415  -8.761  1.00  0.00     0.424 C 
HETATM   11  F2  UNL     1    -153.191   6.687  -9.848  1.00  0.00    -0.167 F 
HETATM   12  F3  UNL     1    -152.631   8.460  -8.659  1.00  0.00    -0.167 F 
HETATM   13  F4  UNL     1    -154.781   8.013  -8.876  1.00  0.00    -0.167 F 
ENDBRANCH   8  10
BRANCH   5  14
HETATM   14  C5  UNL     1    -152.396   3.199  -4.859  1.00  0.00     0.130 C 
HETATM   15 CL1  UNL     1    -150.999   2.169  -5.235  1.00  0.00    -0.129 Cl
ENDBRANCH   5  14
TORSDOF 2
ENDMDL
MODEL 3
REMARK VINA RESULT: -5.269435751      1.807      2.335
REMARK  2 active torsions:
REMARK  status: ('A' for Active; 'I' for Inactive)
REMARK    1  A    between atoms: C4_5  and  C5_6 
REMARK    2  A    between atoms: C8_10  and  C9_12 
ROOT
HETATM    1  C1  UNL     1    -154.991   4.832  -8.033  1.00  0.00     0.030 C 
HETATM    2  C2  UNL     1    -154.148   5.833  -7.311  1.00  0.00     0.046 C 
HETATM    3  C3  UNL     1    -153.877   5.335  -5.896  1.00  0.00     0.030 C 
HETATM    4  S1  UNL     1    -152.476   5.714  -8.079  1.00  0.00    -0.150 SA
HETATM    5  C4  UNL     1    -152.677   6.583  -9.620  1.00  0.00     0.062 C 
HETATM    6  C6  UNL     1    -153.447   7.854  -9.543  1.00  0.00     0.020 C 
HETATM    7  C7  UNL     1    -154.495   8.025  -8.565  1.00  0.00     0.056 C 
HETATM    8  C8  UNL     1    -154.631   7.235  -7.343  1.00  0.00     0.216 C 
HETATM    9  F1  UNL     1    -153.898   7.860  -6.309  1.00  0.00    -0.232 F 
ENDROOT
BRANCH   8  10
HETATM   10  C9  UNL     1    -156.063   7.327  -6.848  1.00  0.00     0.424 C 
HETATM   11  F2  UNL     1    -156.926   7.509  -7.885  1.00  0.00    -0.167 F 
HETATM   12  F3  UNL     1    -156.106   8.517  -6.101  1.00  0.00    -0.167 F 
HETATM   13  F4  UNL     1    -156.418   6.336  -5.988  1.00  0.00    -0.167 F 
ENDBRANCH   8  10
BRANCH   5  14
HETATM   14  C5  UNL     1    -151.263   6.826 -10.175  1.00  0.00     0.130 C 
HETATM   15 CL1  UNL     1    -150.389   5.288 -10.331  1.00  0.00    -0.129 Cl
ENDBRANCH   5  14
TORSDOF 2
ENDMDL
MODEL 4
REMARK VINA RESULT: -5.134425552      3.338      4.330
REMARK  2 active torsions:
REMARK  status: ('A' for Active; 'I' for Inactive)
REMARK    1  A    between atoms: C4_5  and  C5_6 
REMARK    2  A    between atoms: C8_10  and  C9_12 
ROOT
HETATM    1  C1  UNL     1    -154.116   2.721  -6.211  1.00  0.00     0.030 C 
HETATM    2  C2  UNL     1    -153.173   3.437  -5.299  1.00  0.00     0.046 C 
HETATM    3  C3  UNL     1    -153.926   3.895  -4.056  1.00  0.00     0.030 C 
HETATM    4  S1  UNL     1    -152.067   2.133  -4.611  1.00  0.00    -0.150 SA
HETATM    5  C4  UNL     1    -150.949   1.800  -5.957  1.00  0.00     0.062 C 
HETATM    6  C6  UNL     1    -150.441   2.998  -6.678  1.00  0.00     0.020 C 
HETATM    7  C7  UNL     1    -151.247   4.191  -6.789  1.00  0.00     0.056 C 
HETATM    8  C8  UNL     1    -152.370   4.522  -5.915  1.00  0.00     0.216 C 
HETATM    9  F1  UNL     1    -151.886   5.246  -4.802  1.00  0.00    -0.232 F 
ENDROOT
BRANCH   8  10
HETATM   10  C9  UNL     1    -153.264   5.530  -6.613  1.00  0.00     0.424 C 
HETATM   11  F2  UNL     1    -153.507   5.157  -7.900  1.00  0.00    -0.167 F 
HETATM   12  F3  UNL     1    -152.487   6.699  -6.693  1.00  0.00    -0.167 F 
HETATM   13  F4  UNL     1    -154.374   5.870  -5.908  1.00  0.00    -0.167 F 
ENDBRANCH   8  10
BRANCH   5  14
HETATM   14  C5  UNL     1    -149.790   0.974  -5.371  1.00  0.00     0.130 C 
HETATM   15 CL1  UNL     1    -150.190   0.429  -3.729  1.00  0.00    -0.129 Cl
ENDBRANCH   5  14
TORSDOF 2
ENDMDL
MODEL 5
REMARK VINA RESULT: -5.045896659      2.390      2.992
REMARK  2 active torsions:
REMARK  status: ('A' for Active; 'I' for Inactive)
REMARK    1  A    between atoms: C4_5  and  C5_6 
REMARK    2  A    between atoms: C8_10  and  C9_12 
ROOT
HETATM    1  C1  UNL     1    -155.658   4.997  -8.249  1.00  0.00     0.030 C 
HETATM    2  C2  UNL     1    -155.174   5.823  -7.102  1.00  0.00     0.046 C 
HETATM    3  C3  UNL     1    -156.217   6.883  -6.768  1.00  0.00     0.030 C 
HETATM    4  S1  UNL     1    -155.269   4.722  -5.626  1.00  0.00    -0.150 SA
HETATM    5  C4  UNL     1    -153.851   3.662  -5.822  1.00  0.00     0.062 C 
HETATM    6  C6  UNL     1    -152.598   4.341  -6.249  1.00  0.00     0.020 C 
HETATM    7  C7  UNL     1    -152.643   5.518  -7.083  1.00  0.00     0.056 C 
HETATM    8  C8  UNL     1    -153.808   6.387  -7.237  1.00  0.00     0.216 C 
HETATM    9  F1  UNL     1    -153.765   7.390  -6.243  1.00  0.00    -0.232 F 
ENDROOT
BRANCH   8  10
HETATM   10  C9  UNL     1    -153.672   7.178  -8.525  1.00  0.00     0.424 C 
HETATM   11  F2  UNL     1    -153.273   6.376  -9.550  1.00  0.00    -0.167 F 
HETATM   12  F3  UNL     1    -152.602   8.060  -8.290  1.00  0.00    -0.167 F 
HETATM   13  F4  UNL     1    -154.744   7.962  -8.810  1.00  0.00    -0.167 F 
ENDBRANCH   8  10
BRANCH   5  14
HETATM   14  C5  UNL     1    -153.657   2.936  -4.479  1.00  0.00     0.130 C 
HETATM   15 CL1  UNL     1    -153.028   4.060  -3.256  1.00  0.00    -0.129 Cl
ENDBRANCH   5  14
TORSDOF 2
ENDMDL
