MODEL 1
REMARK VINA RESULT: -6.742711110      0.000      0.000
REMARK  7 active torsions:
REMARK  status: ('A' for Active; 'I' for Inactive)
REMARK    1  A    between atoms: N1_2  and  C2_5 
REMARK    2  A    between atoms: C2_5  and  C3_6 
REMARK    3  A    between atoms: C3_6  and  N2_7 
REMARK    4  A    between atoms: N2_7  and  C4_9 
REMARK    5  A    between atoms: C4_9  and  N3_11 
REMARK    6  A    between atoms: N3_11  and  N4_13 
REMARK    7  A    between atoms: C5_15  and  C7_17 
ROOT
HETATM    1  N3  UNL     1      51.704   3.356  31.693  1.00  0.00    -0.276 N 
ATOM      2  H3  UNL     1      51.056   3.111  30.945  1.00  0.00     0.189 HD
ENDROOT
BRANCH   1   3
HETATM    3  C4  UNL     1      51.202   3.679  32.975  1.00  0.00     0.186 C 
HETATM    4  S1  UNL     1      50.452   2.525  33.846  1.00  0.00    -0.040 SA
BRANCH   3   5
HETATM    5  N2  UNL     1      51.334   4.979  33.527  1.00  0.00    -0.364 N 
ATOM      6  H2  UNL     1      52.249   5.428  33.504  1.00  0.00     0.162 HD
BRANCH   5   7
HETATM    7  C3  UNL     1      50.228   5.698  34.121  1.00  0.00     0.149 C 
BRANCH   7   8
HETATM    8  C2  UNL     1      50.464   5.901  35.613  1.00  0.00     0.251 C 
BRANCH   8   9
HETATM    9  N1  UNL     1      51.878   5.679  35.865  1.00  0.00    -0.077 N 
HETATM   10  C1  UNL     1      52.202   6.362  37.094  1.00  0.00     0.267 C 
ATOM     11  H12 UNL     1      52.473   5.957  35.085  1.00  0.00     0.276 HD
ATOM     12  H11 UNL     1      52.132   4.691  35.877  1.00  0.00     0.276 HD
ENDBRANCH   8   9
ENDBRANCH   7   8
ENDBRANCH   5   7
ENDBRANCH   3   5
ENDBRANCH   1   3
BRANCH   1  13
HETATM   13  N4  UNL     1      53.076   3.370  31.441  1.00  0.00    -0.302 N 
HETATM   14  C5  UNL     1      53.788   2.316  31.322  1.00  0.00     0.032 C 
HETATM   15  C6  UNL     1      53.262   0.933  31.435  1.00  0.00     0.070 C 
ATOM     16  H4  UNL     1      53.538   4.274  31.346  1.00  0.00     0.186 HD
BRANCH  14  17
HETATM   17  C7  UNL     1      55.223   2.477  31.051  1.00  0.00    -0.013 A 
HETATM   18  C8  UNL     1      55.757   2.278  29.794  1.00  0.00     0.013 A 
HETATM   19  C9  UNL     1      57.099   2.422  29.527  1.00  0.00     0.001 A 
HETATM   20  C10 UNL     1      57.935   2.776  30.539  1.00  0.00     0.000 A 
HETATM   21  C11 UNL     1      57.458   2.986  31.804  1.00  0.00     0.001 A 
HETATM   22  C12 UNL     1      56.111   2.835  32.050  1.00  0.00     0.013 A 
ENDBRANCH  14  17
ENDBRANCH   1  13
TORSDOF 7
ENDMDL
MODEL 2
REMARK VINA RESULT: -6.729717432      0.065      1.148
REMARK  7 active torsions:
REMARK  status: ('A' for Active; 'I' for Inactive)
REMARK    1  A    between atoms: N1_2  and  C2_5 
REMARK    2  A    between atoms: C2_5  and  C3_6 
REMARK    3  A    between atoms: C3_6  and  N2_7 
REMARK    4  A    between atoms: N2_7  and  C4_9 
REMARK    5  A    between atoms: C4_9  and  N3_11 
REMARK    6  A    between atoms: N3_11  and  N4_13 
REMARK    7  A    between atoms: C5_15  and  C7_17 
ROOT
HETATM    1  N3  UNL     1      51.682   3.409  31.740  1.00  0.00    -0.276 N 
ATOM      2  H3  UNL     1      51.027   3.166  30.997  1.00  0.00     0.189 HD
ENDROOT
BRANCH   1   3
HETATM    3  C4  UNL     1      51.191   3.746  33.022  1.00  0.00     0.186 C 
HETATM    4  S1  UNL     1      50.456   2.598  33.916  1.00  0.00    -0.040 SA
BRANCH   3   5
HETATM    5  N2  UNL     1      51.319   5.054  33.555  1.00  0.00    -0.364 N 
ATOM      6  H2  UNL     1      52.226   5.517  33.497  1.00  0.00     0.162 HD
BRANCH   5   7
HETATM    7  C3  UNL     1      50.222   5.761  34.178  1.00  0.00     0.149 C 
BRANCH   7   8
HETATM    8  C2  UNL     1      50.490   5.956  35.666  1.00  0.00     0.251 C 
BRANCH   8   9
HETATM    9  N1  UNL     1      51.904   5.709  35.891  1.00  0.00    -0.077 N 
HETATM   10  C1  UNL     1      52.252   6.348  37.137  1.00  0.00     0.267 C 
ATOM     11  H12 UNL     1      52.491   6.005  35.112  1.00  0.00     0.276 HD
ATOM     12  H11 UNL     1      52.146   4.718  35.868  1.00  0.00     0.276 HD
ENDBRANCH   8   9
ENDBRANCH   7   8
ENDBRANCH   5   7
ENDBRANCH   3   5
ENDBRANCH   1   3
BRANCH   1  13
HETATM   13  N4  UNL     1      53.053   3.406  31.481  1.00  0.00    -0.302 N 
HETATM   14  C5  UNL     1      53.748   2.344  31.343  1.00  0.00     0.032 C 
HETATM   15  C6  UNL     1      53.203   0.966  31.441  1.00  0.00     0.070 C 
ATOM     16  H4  UNL     1      53.528   4.304  31.395  1.00  0.00     0.186 HD
BRANCH  14  17
HETATM   17  C7  UNL     1      55.184   2.486  31.067  1.00  0.00    -0.013 A 
HETATM   18  C8  UNL     1      56.089   2.824  32.054  1.00  0.00     0.013 A 
HETATM   19  C9  UNL     1      57.436   2.963  31.809  1.00  0.00     0.001 A 
HETATM   20  C10 UNL     1      57.897   2.760  30.547  1.00  0.00     0.000 A 
HETATM   21  C11 UNL     1      57.044   2.424  29.531  1.00  0.00     0.001 A 
HETATM   22  C12 UNL     1      55.699   2.290  29.798  1.00  0.00     0.013 A 
ENDBRANCH  14  17
ENDBRANCH   1  13
TORSDOF 7
ENDMDL
MODEL 3
REMARK VINA RESULT: -6.705171649      3.752      5.800
REMARK  7 active torsions:
REMARK  status: ('A' for Active; 'I' for Inactive)
REMARK    1  A    between atoms: N1_2  and  C2_5 
REMARK    2  A    between atoms: C2_5  and  C3_6 
REMARK    3  A    between atoms: C3_6  and  N2_7 
REMARK    4  A    between atoms: N2_7  and  C4_9 
REMARK    5  A    between atoms: C4_9  and  N3_11 
REMARK    6  A    between atoms: N3_11  and  N4_13 
REMARK    7  A    between atoms: C5_15  and  C7_17 
ROOT
HETATM    1  N3  UNL     1      57.250   2.830  31.986  1.00  0.00    -0.276 N 
ATOM      2  H3  UNL     1      57.213   2.585  32.976  1.00  0.00     0.189 HD
ENDROOT
BRANCH   1   3
HETATM    3  C4  UNL     1      56.129   2.582  31.162  1.00  0.00     0.186 C 
HETATM    4  S1  UNL     1      56.356   2.340  29.566  1.00  0.00    -0.040 SA
BRANCH   3   5
HETATM    5  N2  UNL     1      54.810   2.536  31.682  1.00  0.00    -0.364 N 
ATOM      6  H2  UNL     1      54.536   3.230  32.377  1.00  0.00     0.162 HD
BRANCH   5   7
HETATM    7  C3  UNL     1      53.836   1.550  31.270  1.00  0.00     0.149 C 
BRANCH   7   8
HETATM    8  C2  UNL     1      52.496   1.807  31.949  1.00  0.00     0.251 C 
BRANCH   8   9
HETATM    9  N1  UNL     1      52.254   3.240  31.909  1.00  0.00    -0.077 N 
HETATM   10  C1  UNL     1      50.989   3.474  32.562  1.00  0.00     0.267 C 
ATOM     11  H12 UNL     1      52.295   3.626  30.967  1.00  0.00     0.276 HD
ATOM     12  H11 UNL     1      53.018   3.786  32.308  1.00  0.00     0.276 HD
ENDBRANCH   8   9
ENDBRANCH   7   8
ENDBRANCH   5   7
ENDBRANCH   3   5
ENDBRANCH   1   3
BRANCH   1  13
HETATM   13  N4  UNL     1      58.408   3.405  31.461  1.00  0.00    -0.302 N 
HETATM   14  C5  UNL     1      59.566   3.278  31.984  1.00  0.00     0.032 C 
HETATM   15  C6  UNL     1      59.847   2.505  33.219  1.00  0.00     0.070 C 
ATOM     16  H4  UNL     1      58.324   3.961  30.609  1.00  0.00     0.186 HD
BRANCH  14  17
HETATM   17  C7  UNL     1      60.701   3.935  31.321  1.00  0.00    -0.013 A 
HETATM   18  C8  UNL     1      61.998   3.492  31.483  1.00  0.00     0.013 A 
HETATM   19  C9  UNL     1      63.071   4.099  30.872  1.00  0.00     0.001 A 
HETATM   20  C10 UNL     1      62.847   5.177  30.074  1.00  0.00     0.000 A 
HETATM   21  C11 UNL     1      61.581   5.658  29.879  1.00  0.00     0.001 A 
HETATM   22  C12 UNL     1      60.521   5.035  30.502  1.00  0.00     0.013 A 
ENDBRANCH  14  17
ENDBRANCH   1  13
TORSDOF 7
ENDMDL
MODEL 4
REMARK VINA RESULT: -6.699608457      6.480      8.697
REMARK  7 active torsions:
REMARK  status: ('A' for Active; 'I' for Inactive)
REMARK    1  A    between atoms: N1_2  and  C2_5 
REMARK    2  A    between atoms: C2_5  and  C3_6 
REMARK    3  A    between atoms: C3_6  and  N2_7 
REMARK    4  A    between atoms: N2_7  and  C4_9 
REMARK    5  A    between atoms: C4_9  and  N3_11 
REMARK    6  A    between atoms: N3_11  and  N4_13 
REMARK    7  A    between atoms: C5_15  and  C7_17 
ROOT
HETATM    1  N3  UNL     1      61.489   2.176  30.444  1.00  0.00    -0.276 N 
ATOM      2  H3  UNL     1      61.862   1.713  31.273  1.00  0.00     0.189 HD
ENDROOT
BRANCH   1   3
HETATM    3  C4  UNL     1      62.377   2.707  29.481  1.00  0.00     0.186 C 
HETATM    4  S1  UNL     1      63.951   2.286  29.537  1.00  0.00    -0.040 SA
BRANCH   3   5
HETATM    5  N2  UNL     1      61.940   3.594  28.464  1.00  0.00    -0.364 N 
ATOM      6  H2  UNL     1      61.872   3.245  27.509  1.00  0.00     0.162 HD
BRANCH   5   7
HETATM    7  C3  UNL     1      61.585   4.972  28.722  1.00  0.00     0.149 C 
BRANCH   7   8
HETATM    8  C2  UNL     1      62.401   5.524  29.885  1.00  0.00     0.251 C 
BRANCH   8   9
HETATM    9  N1  UNL     1      61.516   5.618  31.034  1.00  0.00    -0.077 N 
HETATM   10  C1  UNL     1      60.189   5.869  30.527  1.00  0.00     0.267 C 
ATOM     11  H12 UNL     1      61.820   6.309  31.719  1.00  0.00     0.276 HD
ATOM     12  H11 UNL     1      61.564   4.801  31.644  1.00  0.00     0.276 HD
ENDBRANCH   8   9
ENDBRANCH   7   8
ENDBRANCH   5   7
ENDBRANCH   3   5
ENDBRANCH   1   3
BRANCH   1  13
HETATM   13  N4  UNL     1      60.108   2.277  30.272  1.00  0.00    -0.302 N 
HETATM   14  C5  UNL     1      59.286   2.476  31.228  1.00  0.00     0.032 C 
HETATM   15  C6  UNL     1      59.676   2.625  32.653  1.00  0.00     0.070 C 
ATOM     16  H4  UNL     1      59.733   2.188  29.328  1.00  0.00     0.186 HD
BRANCH  14  17
HETATM   17  C7  UNL     1      57.855   2.567  30.904  1.00  0.00    -0.013 A 
HETATM   18  C8  UNL     1      57.377   2.327  29.631  1.00  0.00     0.013 A 
HETATM   19  C9  UNL     1      56.041   2.412  29.313  1.00  0.00     0.001 A 
HETATM   20  C10 UNL     1      55.154   2.742  30.289  1.00  0.00     0.000 A 
HETATM   21  C11 UNL     1      55.574   2.991  31.567  1.00  0.00     0.001 A 
HETATM   22  C12 UNL     1      56.917   2.902  31.864  1.00  0.00     0.013 A 
ENDBRANCH  14  17
ENDBRANCH   1  13
TORSDOF 7
ENDMDL
MODEL 5
REMARK VINA RESULT: -6.699581126      5.930      8.946
REMARK  7 active torsions:
REMARK  status: ('A' for Active; 'I' for Inactive)
REMARK    1  A    between atoms: N1_2  and  C2_5 
REMARK    2  A    between atoms: C2_5  and  C3_6 
REMARK    3  A    between atoms: C3_6  and  N2_7 
REMARK    4  A    between atoms: N2_7  and  C4_9 
REMARK    5  A    between atoms: C4_9  and  N3_11 
REMARK    6  A    between atoms: N3_11  and  N4_13 
REMARK    7  A    between atoms: C5_15  and  C7_17 
ROOT
HETATM    1  N3  UNL     1      60.993   2.584  31.596  1.00  0.00    -0.276 N 
ATOM      2  H3  UNL     1      61.446   1.680  31.729  1.00  0.00     0.189 HD
ENDROOT
BRANCH   1   3
HETATM    3  C4  UNL     1      61.697   3.771  31.901  1.00  0.00     0.186 C 
HETATM    4  S1  UNL     1      62.695   3.792  33.189  1.00  0.00    -0.040 SA
BRANCH   3   5
HETATM    5  N2  UNL     1      61.562   4.946  31.117  1.00  0.00    -0.364 N 
ATOM      6  H2  UNL     1      60.784   5.575  31.312  1.00  0.00     0.162 HD
BRANCH   5   7
HETATM    7  C3  UNL     1      62.479   5.291  30.053  1.00  0.00     0.149 C 
BRANCH   7   8
HETATM    8  C2  UNL     1      62.610   4.137  29.066  1.00  0.00     0.251 C 
BRANCH   8   9
HETATM    9  N1  UNL     1      63.996   3.701  29.085  1.00  0.00    -0.077 N 
HETATM   10  C1  UNL     1      63.997   2.307  29.457  1.00  0.00     0.267 C 
ATOM     11  H12 UNL     1      64.588   4.276  29.683  1.00  0.00     0.276 HD
ATOM     12  H11 UNL     1      64.483   3.881  28.207  1.00  0.00     0.276 HD
ENDBRANCH   8   9
ENDBRANCH   7   8
ENDBRANCH   5   7
ENDBRANCH   3   5
ENDBRANCH   1   3
BRANCH   1  13
HETATM   13  N4  UNL     1      59.684   2.635  31.115  1.00  0.00    -0.302 N 
HETATM   14  C5  UNL     1      58.652   2.681  31.866  1.00  0.00     0.032 C 
HETATM   15  C6  UNL     1      58.693   2.687  33.350  1.00  0.00     0.070 C 
ATOM     16  H4  UNL     1      59.543   2.635  30.105  1.00  0.00     0.186 HD
BRANCH  14  17
HETATM   17  C7  UNL     1      57.331   2.737  31.224  1.00  0.00    -0.013 A 
HETATM   18  C8  UNL     1      57.143   2.377  29.905  1.00  0.00     0.013 A 
HETATM   19  C9  UNL     1      55.912   2.427  29.291  1.00  0.00     0.001 A 
HETATM   20  C10 UNL     1      54.837   2.844  30.010  1.00  0.00     0.000 A 
HETATM   21  C11 UNL     1      54.967   3.212  31.321  1.00  0.00     0.001 A 
HETATM   22  C12 UNL     1      56.209   3.156  31.916  1.00  0.00     0.013 A 
ENDBRANCH  14  17
ENDBRANCH   1  13
TORSDOF 7
ENDMDL
