MODEL 1
REMARK VINA RESULT: -7.276276379      0.000      0.000
REMARK  6 active torsions:
REMARK  status: ('A' for Active; 'I' for Inactive)
REMARK    1  A    between atoms: N1_1  and  C1_5 
REMARK    2  A    between atoms: C1_5  and  N2_6 
REMARK    3  A    between atoms: C1_5  and  C9_16 
REMARK    4  A    between atoms: N2_6  and  C2_8 
REMARK    5  A    between atoms: C2_8  and  C3_9 
REMARK    6  A    between atoms: C3_9  and  N3_10 
ROOT
HETATM    1  C1  UNL     1      58.359   2.300  31.818  1.00  0.00     0.306 C 
ENDROOT
BRANCH   1   2
HETATM    2  N1  UNL     1      59.309   2.326  30.732  1.00  0.00    -0.056 N 
ATOM      3  H13 UNL     1      59.438   3.268  30.365  1.00  0.00     0.276 HD
ATOM      4  H12 UNL     1      60.260   2.158  31.058  1.00  0.00     0.276 HD
ATOM      5  H11 UNL     1      59.036   1.668  30.002  1.00  0.00     0.276 HD
ENDBRANCH   1   2
BRANCH   1   6
HETATM    6  N2  UNL     1      58.840   3.057  32.922  1.00  0.00    -0.392 N 
ATOM      7  H2  UNL     1      58.229   3.687  33.442  1.00  0.00     0.155 HD
BRANCH   6   8
HETATM    8  C2  UNL     1      60.211   2.900  33.268  1.00  0.00     0.136 C 
BRANCH   8   9
HETATM    9  C3  UNL     1      60.933   4.206  33.412  1.00  0.00     0.147 C 
BRANCH   9  10
HETATM   10  N3  UNL     1      61.551   4.568  32.135  1.00  0.00    -0.365 N 
HETATM   11  C4  UNL     1      60.985   5.440  31.292  1.00  0.00     0.090 A 
HETATM   12  C5  UNL     1      61.573   5.770  30.082  1.00  0.00     0.017 A 
HETATM   13  C6  UNL     1      62.773   5.182  29.743  1.00  0.00     0.003 A 
HETATM   14  C7  UNL     1      63.327   4.288  30.638  1.00  0.00     0.017 A 
HETATM   15  C8  UNL     1      62.705   3.992  31.826  1.00  0.00     0.090 A 
ENDBRANCH   9  10
ENDBRANCH   8   9
ENDBRANCH   6   8
ENDBRANCH   1   6
BRANCH   1  16
HETATM   16  C9  UNL     1      57.066   2.922  31.262  1.00  0.00     0.170 C 
HETATM   17  C10 UNL     1      56.921   2.474  29.864  1.00  0.00     0.036 C 
HETATM   18  C11 UNL     1      55.536   2.623  29.287  1.00  0.00     0.005 C 
HETATM   19  C12 UNL     1      54.476   2.837  30.328  1.00  0.00     0.026 C 
HETATM   20  C13 UNL     1      54.904   2.153  31.589  1.00  0.00     0.168 C 
HETATM   21  O1  UNL     1      56.068   2.642  32.132  1.00  0.00    -0.382 OA
ENDBRANCH   1  16
TORSDOF 6
ENDMDL
MODEL 2
REMARK VINA RESULT: -7.071122136      1.437      2.073
REMARK  6 active torsions:
REMARK  status: ('A' for Active; 'I' for Inactive)
REMARK    1  A    between atoms: N1_1  and  C1_5 
REMARK    2  A    between atoms: C1_5  and  N2_6 
REMARK    3  A    between atoms: C1_5  and  C9_16 
REMARK    4  A    between atoms: N2_6  and  C2_8 
REMARK    5  A    between atoms: C2_8  and  C3_9 
REMARK    6  A    between atoms: C3_9  and  N3_10 
ROOT
HETATM    1  C1  UNL     1      58.424   3.275  33.204  1.00  0.00     0.306 C 
ENDROOT
BRANCH   1   2
HETATM    2  N1  UNL     1      57.387   3.065  34.185  1.00  0.00    -0.056 N 
ATOM      3  H13 UNL     1      57.569   2.242  34.759  1.00  0.00     0.276 HD
ATOM      4  H12 UNL     1      57.413   3.772  34.920  1.00  0.00     0.276 HD
ATOM      5  H11 UNL     1      56.473   3.019  33.736  1.00  0.00     0.276 HD
ENDBRANCH   1   2
BRANCH   1   6
HETATM    6  N2  UNL     1      59.687   2.869  33.718  1.00  0.00    -0.392 N 
ATOM      7  H2  UNL     1      59.887   1.891  33.927  1.00  0.00     0.155 HD
BRANCH   6   8
HETATM    8  C2  UNL     1      60.659   3.886  33.927  1.00  0.00     0.136 C 
BRANCH   8   9
HETATM    9  C3  UNL     1      61.954   3.613  33.224  1.00  0.00     0.147 C 
BRANCH   9  10
HETATM   10  N3  UNL     1      61.991   4.354  31.961  1.00  0.00    -0.365 N 
HETATM   11  C4  UNL     1      61.023   5.206  31.606  1.00  0.00     0.090 A 
HETATM   12  C5  UNL     1      61.062   5.896  30.406  1.00  0.00     0.017 A 
HETATM   13  C6  UNL     1      62.131   5.696  29.558  1.00  0.00     0.003 A 
HETATM   14  C7  UNL     1      63.111   4.809  29.958  1.00  0.00     0.017 A 
HETATM   15  C8  UNL     1      63.027   4.148  31.159  1.00  0.00     0.090 A 
ENDBRANCH   9  10
ENDBRANCH   8   9
ENDBRANCH   6   8
ENDBRANCH   1   6
BRANCH   1  16
HETATM   16  C9  UNL     1      58.035   2.413  31.990  1.00  0.00     0.170 C 
HETATM   17  C10 UNL     1      56.760   2.935  31.462  1.00  0.00     0.036 C 
HETATM   18  C11 UNL     1      56.432   2.511  30.053  1.00  0.00     0.005 C 
HETATM   19  C12 UNL     1      57.612   1.958  29.306  1.00  0.00     0.026 C 
HETATM   20  C13 UNL     1      58.853   2.611  29.830  1.00  0.00     0.168 C 
HETATM   21  O1  UNL     1      59.103   2.369  31.159  1.00  0.00    -0.382 OA
ENDBRANCH   1  16
TORSDOF 6
ENDMDL
MODEL 3
REMARK VINA RESULT: -7.049633163      1.985      5.696
REMARK  6 active torsions:
REMARK  status: ('A' for Active; 'I' for Inactive)
REMARK    1  A    between atoms: N1_1  and  C1_5 
REMARK    2  A    between atoms: C1_5  and  N2_6 
REMARK    3  A    between atoms: C1_5  and  C9_16 
REMARK    4  A    between atoms: N2_6  and  C2_8 
REMARK    5  A    between atoms: C2_8  and  C3_9 
REMARK    6  A    between atoms: C3_9  and  N3_10 
ROOT
HETATM    1  C1  UNL     1      61.297   3.184  33.007  1.00  0.00     0.306 C 
ENDROOT
BRANCH   1   2
HETATM    2  N1  UNL     1      62.308   3.904  33.743  1.00  0.00    -0.056 N 
ATOM      3  H13 UNL     1      63.066   3.292  34.044  1.00  0.00     0.276 HD
ATOM      4  H12 UNL     1      62.844   4.526  33.140  1.00  0.00     0.276 HD
ATOM      5  H11 UNL     1      61.891   4.404  34.529  1.00  0.00     0.276 HD
ENDBRANCH   1   2
BRANCH   1   6
HETATM    6  N2  UNL     1      60.008   3.427  33.560  1.00  0.00    -0.392 N 
ATOM      7  H2  UNL     1      59.816   4.261  34.115  1.00  0.00     0.155 HD
BRANCH   6   8
HETATM    8  C2  UNL     1      59.000   2.456  33.305  1.00  0.00     0.136 C 
BRANCH   8   9
HETATM    9  C3  UNL     1      57.621   3.042  33.259  1.00  0.00     0.147 C 
BRANCH   9  10
HETATM   10  N3  UNL     1      57.051   2.850  31.923  1.00  0.00    -0.365 N 
HETATM   11  C4  UNL     1      55.748   3.025  31.673  1.00  0.00     0.090 A 
HETATM   12  C5  UNL     1      55.217   2.833  30.408  1.00  0.00     0.017 A 
HETATM   13  C6  UNL     1      56.058   2.453  29.384  1.00  0.00     0.003 A 
HETATM   14  C7  UNL     1      57.396   2.283  29.680  1.00  0.00     0.017 A 
HETATM   15  C8  UNL     1      57.876   2.485  30.951  1.00  0.00     0.090 A 
ENDBRANCH   9  10
ENDBRANCH   8   9
ENDBRANCH   6   8
ENDBRANCH   1   6
BRANCH   1  16
HETATM   16  C9  UNL     1      61.371   3.710  31.564  1.00  0.00     0.170 C 
HETATM   17  C10 UNL     1      60.864   5.096  31.568  1.00  0.00     0.036 C 
HETATM   18  C11 UNL     1      61.241   5.916  30.360  1.00  0.00     0.005 C 
HETATM   19  C12 UNL     1      62.362   5.319  29.559  1.00  0.00     0.026 C 
HETATM   20  C13 UNL     1      63.246   4.544  30.485  1.00  0.00     0.168 C 
HETATM   21  O1  UNL     1      62.626   3.488  31.109  1.00  0.00    -0.382 OA
ENDBRANCH   1  16
TORSDOF 6
ENDMDL
MODEL 4
REMARK VINA RESULT: -6.979316955      0.784      1.231
REMARK  6 active torsions:
REMARK  status: ('A' for Active; 'I' for Inactive)
REMARK    1  A    between atoms: N1_1  and  C1_5 
REMARK    2  A    between atoms: C1_5  and  N2_6 
REMARK    3  A    between atoms: C1_5  and  C9_16 
REMARK    4  A    between atoms: N2_6  and  C2_8 
REMARK    5  A    between atoms: C2_8  and  C3_9 
REMARK    6  A    between atoms: C3_9  and  N3_10 
ROOT
HETATM    1  C1  UNL     1      58.127   3.303  32.763  1.00  0.00     0.306 C 
ENDROOT
BRANCH   1   2
HETATM    2  N1  UNL     1      57.153   2.983  33.778  1.00  0.00    -0.056 N 
ATOM      3  H13 UNL     1      57.226   2.012  34.080  1.00  0.00     0.276 HD
ATOM      4  H12 UNL     1      57.369   3.435  34.666  1.00  0.00     0.276 HD
ATOM      5  H11 UNL     1      56.212   3.209  33.455  1.00  0.00     0.276 HD
ENDBRANCH   1   2
BRANCH   1   6
HETATM    6  N2  UNL     1      59.136   2.301  32.704  1.00  0.00    -0.392 N 
ATOM      7  H2  UNL     1      58.963   1.398  32.262  1.00  0.00     0.155 HD
BRANCH   6   8
HETATM    8  C2  UNL     1      60.394   2.613  33.289  1.00  0.00     0.136 C 
BRANCH   8   9
HETATM    9  C3  UNL     1      60.675   4.085  33.325  1.00  0.00     0.147 C 
BRANCH   9  10
HETATM   10  N3  UNL     1      61.408   4.474  32.118  1.00  0.00    -0.365 N 
HETATM   11  C4  UNL     1      60.915   5.352  31.237  1.00  0.00     0.090 A 
HETATM   12  C5  UNL     1      61.612   5.708  30.094  1.00  0.00     0.017 A 
HETATM   13  C6  UNL     1      62.846   5.139  29.864  1.00  0.00     0.003 A 
HETATM   14  C7  UNL     1      63.323   4.237  30.794  1.00  0.00     0.017 A 
HETATM   15  C8  UNL     1      62.593   3.915  31.913  1.00  0.00     0.090 A 
ENDBRANCH   9  10
ENDBRANCH   8   9
ENDBRANCH   6   8
ENDBRANCH   1   6
BRANCH   1  16
HETATM   16  C9  UNL     1      57.350   3.362  31.436  1.00  0.00     0.170 C 
HETATM   17  C10 UNL     1      58.000   2.428  30.497  1.00  0.00     0.036 C 
HETATM   18  C11 UNL     1      57.159   2.028  29.311  1.00  0.00     0.005 C 
HETATM   19  C12 UNL     1      55.700   2.338  29.482  1.00  0.00     0.026 C 
HETATM   20  C13 UNL     1      55.368   2.267  30.940  1.00  0.00     0.168 C 
HETATM   21  O1  UNL     1      56.039   3.178  31.719  1.00  0.00    -0.382 OA
ENDBRANCH   1  16
TORSDOF 6
ENDMDL
MODEL 5
REMARK VINA RESULT: -6.880043071      2.220      5.721
REMARK  6 active torsions:
REMARK  status: ('A' for Active; 'I' for Inactive)
REMARK    1  A    between atoms: N1_1  and  C1_5 
REMARK    2  A    between atoms: C1_5  and  N2_6 
REMARK    3  A    between atoms: C1_5  and  C9_16 
REMARK    4  A    between atoms: N2_6  and  C2_8 
REMARK    5  A    between atoms: C2_8  and  C3_9 
REMARK    6  A    between atoms: C3_9  and  N3_10 
ROOT
HETATM    1  C1  UNL     1      61.282   4.729  31.833  1.00  0.00     0.306 C 
ENDROOT
BRANCH   1   2
HETATM    2  N1  UNL     1      60.624   5.747  31.050  1.00  0.00    -0.056 N 
ATOM      3  H13 UNL     1      60.489   5.453  30.083  1.00  0.00     0.276 HD
ATOM      4  H12 UNL     1      59.646   5.855  31.315  1.00  0.00     0.276 HD
ATOM      5  H11 UNL     1      61.134   6.629  31.109  1.00  0.00     0.276 HD
ENDBRANCH   1   2
BRANCH   1   6
HETATM    6  N2  UNL     1      60.394   4.200  32.811  1.00  0.00    -0.392 N 
ATOM      7  H2  UNL     1      60.181   4.711  33.668  1.00  0.00     0.155 HD
BRANCH   6   8
HETATM    8  C2  UNL     1      59.818   2.928  32.543  1.00  0.00     0.136 C 
BRANCH   8   9
HETATM    9  C3  UNL     1      58.378   2.839  32.952  1.00  0.00     0.147 C 
BRANCH   9  10
HETATM   10  N3  UNL     1      57.536   2.733  31.758  1.00  0.00    -0.365 N 
HETATM   11  C4  UNL     1      56.216   2.949  31.797  1.00  0.00     0.090 A 
HETATM   12  C5  UNL     1      55.426   2.838  30.664  1.00  0.00     0.017 A 
HETATM   13  C6  UNL     1      56.021   2.495  29.469  1.00  0.00     0.003 A 
HETATM   14  C7  UNL     1      57.385   2.280  29.468  1.00  0.00     0.017 A 
HETATM   15  C8  UNL     1      58.126   2.402  30.618  1.00  0.00     0.090 A 
ENDBRANCH   9  10
ENDBRANCH   8   9
ENDBRANCH   6   8
ENDBRANCH   1   6
BRANCH   1  16
HETATM   16  C9  UNL     1      61.698   3.633  30.836  1.00  0.00     0.170 C 
HETATM   17  C10 UNL     1      61.390   4.124  29.479  1.00  0.00     0.036 C 
HETATM   18  C11 UNL     1      62.095   3.397  28.363  1.00  0.00     0.005 C 
HETATM   19  C12 UNL     1      63.257   2.568  28.830  1.00  0.00     0.026 C 
HETATM   20  C13 UNL     1      63.838   3.212  30.051  1.00  0.00     0.168 C 
HETATM   21  O1  UNL     1      62.975   3.285  31.118  1.00  0.00    -0.382 OA
ENDBRANCH   1  16
TORSDOF 6
ENDMDL
