MODEL 1
REMARK VINA RESULT: -7.285985199      0.000      0.000
REMARK  5 active torsions:
REMARK  status: ('A' for Active; 'I' for Inactive)
REMARK    1  A    between atoms: C1_2  and  C2_4 
REMARK    2  A    between atoms: C2_4  and  C3_5 
REMARK    3  A    between atoms: C2_4  and  C5_13 
REMARK    4  A    between atoms: N2_6  and  N3_8 
REMARK    5  A    between atoms: N3_8  and  C4_10 
ROOT
HETATM    1  C2  UNL     1      58.860   2.278  31.291  1.00  0.00     0.147 C 
ENDROOT
BRANCH   1   2
HETATM    2  C1  UNL     1      59.339   2.808  32.585  1.00  0.00     0.244 C 
HETATM    3  N1  UNL     1      60.185   3.941  32.544  1.00  0.00    -0.061 NA
HETATM    4  O1  UNL     1      59.055   2.333  33.712  1.00  0.00    -0.276 OA
ENDBRANCH   1   2
BRANCH   1   5
HETATM    5  C3  UNL     1      59.824   2.754  30.258  1.00  0.00     0.098 C 
HETATM    6  N2  UNL     1      60.975   2.234  30.062  1.00  0.00    -0.313 N 
ATOM      7  H2  UNL     1      61.294   1.446  30.624  1.00  0.00     0.185 HD
BRANCH   6   8
HETATM    8  N3  UNL     1      61.786   2.770  29.064  1.00  0.00    -0.279 N 
ATOM      9  H3  UNL     1      61.432   2.764  28.107  1.00  0.00     0.189 HD
BRANCH   8  10
HETATM   10  C4  UNL     1      63.061   3.319  29.293  1.00  0.00     0.199 C 
HETATM   11  N4  UNL     1      64.214   2.615  28.886  1.00  0.00    -0.068 NA
HETATM   12  S1  UNL     1      63.174   4.761  30.027  1.00  0.00    -0.043 SA
ENDBRANCH   8  10
ENDBRANCH   6   8
ENDBRANCH   1   5
BRANCH   1  13
HETATM   13  C5  UNL     1      57.480   2.609  30.981  1.00  0.00    -0.041 A 
HETATM   14  C6  UNL     1      56.987   2.311  29.732  1.00  0.00     0.008 A 
HETATM   15  C7  UNL     1      55.683   2.594  29.356  1.00  0.00     0.001 A 
HETATM   16  C8  UNL     1      54.848   3.199  30.273  1.00  0.00     0.000 A 
HETATM   17  C9  UNL     1      55.348   3.498  31.531  1.00  0.00     0.001 A 
HETATM   18  C10 UNL     1      56.645   3.217  31.907  1.00  0.00     0.008 A 
ENDBRANCH   1  13
TORSDOF 5
ENDMDL
MODEL 2
REMARK VINA RESULT: -7.247605427      0.118      1.195
REMARK  5 active torsions:
REMARK  status: ('A' for Active; 'I' for Inactive)
REMARK    1  A    between atoms: C1_2  and  C2_4 
REMARK    2  A    between atoms: C2_4  and  C3_5 
REMARK    3  A    between atoms: C2_4  and  C5_13 
REMARK    4  A    between atoms: N2_6  and  N3_8 
REMARK    5  A    between atoms: N3_8  and  C4_10 
ROOT
HETATM    1  C2  UNL     1      58.805   2.263  31.175  1.00  0.00     0.147 C 
ENDROOT
BRANCH   1   2
HETATM    2  C1  UNL     1      59.263   2.806  32.471  1.00  0.00     0.244 C 
HETATM    3  N1  UNL     1      60.110   3.938  32.433  1.00  0.00    -0.061 NA
HETATM    4  O1  UNL     1      58.960   2.343  33.598  1.00  0.00    -0.276 OA
ENDBRANCH   1   2
BRANCH   1   5
HETATM    5  C3  UNL     1      59.793   2.717  30.155  1.00  0.00     0.098 C 
HETATM    6  N2  UNL     1      60.981   2.256  30.055  1.00  0.00    -0.313 N 
ATOM      7  H2  UNL     1      61.314   1.532  30.691  1.00  0.00     0.185 HD
BRANCH   6   8
HETATM    8  N3  UNL     1      61.810   2.764  29.058  1.00  0.00    -0.279 N 
ATOM      9  H3  UNL     1      61.469   2.744  28.096  1.00  0.00     0.189 HD
BRANCH   8  10
HETATM   10  C4  UNL     1      63.088   3.302  29.292  1.00  0.00     0.199 C 
HETATM   11  N4  UNL     1      64.236   2.608  28.855  1.00  0.00    -0.068 NA
HETATM   12  S1  UNL     1      63.212   4.720  30.070  1.00  0.00    -0.043 SA
ENDBRANCH   8  10
ENDBRANCH   6   8
ENDBRANCH   1   5
BRANCH   1  13
HETATM   13  C5  UNL     1      57.434   2.600  30.834  1.00  0.00    -0.041 A 
HETATM   14  C6  UNL     1      56.665   3.272  31.755  1.00  0.00     0.008 A 
HETATM   15  C7  UNL     1      55.348   3.630  31.509  1.00  0.00     0.001 A 
HETATM   16  C8  UNL     1      54.790   3.300  30.292  1.00  0.00     0.000 A 
HETATM   17  C9  UNL     1      55.568   2.623  29.365  1.00  0.00     0.001 A 
HETATM   18  C10 UNL     1      56.879   2.265  29.608  1.00  0.00     0.008 A 
ENDBRANCH   1  13
TORSDOF 5
ENDMDL
MODEL 3
REMARK VINA RESULT: -7.201891623      3.568      5.640
REMARK  5 active torsions:
REMARK  status: ('A' for Active; 'I' for Inactive)
REMARK    1  A    between atoms: C1_2  and  C2_4 
REMARK    2  A    between atoms: C2_4  and  C3_5 
REMARK    3  A    between atoms: C2_4  and  C5_13 
REMARK    4  A    between atoms: N2_6  and  N3_8 
REMARK    5  A    between atoms: N3_8  and  C4_10 
ROOT
HETATM    1  C2  UNL     1      59.185   2.724  30.707  1.00  0.00     0.147 C 
ENDROOT
BRANCH   1   2
HETATM    2  C1  UNL     1      57.914   2.895  29.971  1.00  0.00     0.244 C 
HETATM    3  N1  UNL     1      57.319   1.731  29.433  1.00  0.00    -0.061 NA
HETATM    4  O1  UNL     1      57.324   3.989  29.789  1.00  0.00    -0.276 OA
ENDBRANCH   1   2
BRANCH   1   5
HETATM    5  C3  UNL     1      58.846   2.796  32.157  1.00  0.00     0.098 C 
HETATM    6  N2  UNL     1      57.656   2.924  32.607  1.00  0.00    -0.313 N 
ATOM      7  H2  UNL     1      56.862   2.984  31.971  1.00  0.00     0.185 HD
BRANCH   6   8
HETATM    8  N3  UNL     1      57.469   2.979  33.986  1.00  0.00    -0.279 N 
ATOM      9  H3  UNL     1      56.514   2.935  34.341  1.00  0.00     0.189 HD
BRANCH   8  10
HETATM   10  C4  UNL     1      58.515   3.091  34.920  1.00  0.00     0.199 C 
HETATM   11  N4  UNL     1      58.997   4.365  35.288  1.00  0.00    -0.068 NA
HETATM   12  S1  UNL     1      59.149   1.740  35.555  1.00  0.00    -0.043 SA
ENDBRANCH   8  10
ENDBRANCH   6   8
ENDBRANCH   1   5
BRANCH   1  13
HETATM   13  C5  UNL     1      60.232   3.652  30.318  1.00  0.00    -0.041 A 
HETATM   14  C6  UNL     1      60.252   4.908  30.878  1.00  0.00     0.008 A 
HETATM   15  C7  UNL     1      61.216   5.853  30.561  1.00  0.00     0.001 A 
HETATM   16  C8  UNL     1      62.193   5.517  29.646  1.00  0.00     0.000 A 
HETATM   17  C9  UNL     1      62.171   4.251  29.083  1.00  0.00     0.001 A 
HETATM   18  C10 UNL     1      61.212   3.309  29.398  1.00  0.00     0.008 A 
ENDBRANCH   1  13
TORSDOF 5
ENDMDL
MODEL 4
REMARK VINA RESULT: -7.159740354      3.582      5.540
REMARK  5 active torsions:
REMARK  status: ('A' for Active; 'I' for Inactive)
REMARK    1  A    between atoms: C1_2  and  C2_4 
REMARK    2  A    between atoms: C2_4  and  C3_5 
REMARK    3  A    between atoms: C2_4  and  C5_13 
REMARK    4  A    between atoms: N2_6  and  N3_8 
REMARK    5  A    between atoms: N3_8  and  C4_10 
ROOT
HETATM    1  C2  UNL     1      59.180   2.745  30.703  1.00  0.00     0.147 C 
ENDROOT
BRANCH   1   2
HETATM    2  C1  UNL     1      57.907   2.918  29.970  1.00  0.00     0.244 C 
HETATM    3  N1  UNL     1      57.292   1.751  29.461  1.00  0.00    -0.061 NA
HETATM    4  O1  UNL     1      57.333   4.016  29.767  1.00  0.00    -0.276 OA
ENDBRANCH   1   2
BRANCH   1   5
HETATM    5  C3  UNL     1      58.836   2.760  32.154  1.00  0.00     0.098 C 
HETATM    6  N2  UNL     1      57.657   2.962  32.607  1.00  0.00    -0.313 N 
ATOM      7  H2  UNL     1      56.876   3.127  31.973  1.00  0.00     0.185 HD
BRANCH   6   8
HETATM    8  N3  UNL     1      57.464   2.951  33.986  1.00  0.00    -0.279 N 
ATOM      9  H3  UNL     1      56.511   2.846  34.335  1.00  0.00     0.189 HD
BRANCH   8  10
HETATM   10  C4  UNL     1      58.501   3.077  34.929  1.00  0.00     0.199 C 
HETATM   11  N4  UNL     1      58.992   4.356  35.269  1.00  0.00    -0.068 NA
HETATM   12  S1  UNL     1      59.114   1.737  35.606  1.00  0.00    -0.043 SA
ENDBRANCH   8  10
ENDBRANCH   6   8
ENDBRANCH   1   5
BRANCH   1  13
HETATM   13  C5  UNL     1      60.211   3.704  30.350  1.00  0.00    -0.041 A 
HETATM   14  C6  UNL     1      61.170   3.344  29.432  1.00  0.00     0.008 A 
HETATM   15  C7  UNL     1      62.188   4.200  29.040  1.00  0.00     0.001 A 
HETATM   16  C8  UNL     1      62.239   5.462  29.594  1.00  0.00     0.000 A 
HETATM   17  C9  UNL     1      61.271   5.822  30.519  1.00  0.00     0.001 A 
HETATM   18  C10 UNL     1      60.257   4.973  30.910  1.00  0.00     0.008 A 
ENDBRANCH   1  13
TORSDOF 5
ENDMDL
MODEL 5
REMARK VINA RESULT: -6.790881388      3.167      5.460
REMARK  5 active torsions:
REMARK  status: ('A' for Active; 'I' for Inactive)
REMARK    1  A    between atoms: C1_2  and  C2_4 
REMARK    2  A    between atoms: C2_4  and  C3_5 
REMARK    3  A    between atoms: C2_4  and  C5_13 
REMARK    4  A    between atoms: N2_6  and  N3_8 
REMARK    5  A    between atoms: N3_8  and  C4_10 
ROOT
HETATM    1  C2  UNL     1      59.201   2.721  30.605  1.00  0.00     0.147 C 
ENDROOT
BRANCH   1   2
HETATM    2  C1  UNL     1      57.929   2.887  29.870  1.00  0.00     0.244 C 
HETATM    3  N1  UNL     1      57.463   1.777  29.128  1.00  0.00    -0.061 NA
HETATM    4  O1  UNL     1      57.233   3.932  29.854  1.00  0.00    -0.276 OA
ENDBRANCH   1   2
BRANCH   1   5
HETATM    5  C3  UNL     1      58.858   2.770  32.055  1.00  0.00     0.098 C 
HETATM    6  N2  UNL     1      59.494   2.130  32.962  1.00  0.00    -0.313 N 
ATOM      7  H2  UNL     1      60.289   1.539  32.722  1.00  0.00     0.185 HD
BRANCH   6   8
HETATM    8  N3  UNL     1      59.075   2.259  34.284  1.00  0.00    -0.279 N 
ATOM      9  H3  UNL     1      58.351   1.623  34.620  1.00  0.00     0.189 HD
BRANCH   8  10
HETATM   10  C4  UNL     1      59.588   3.210  35.185  1.00  0.00     0.199 C 
HETATM   11  N4  UNL     1      58.775   3.702  36.228  1.00  0.00    -0.068 NA
HETATM   12  S1  UNL     1      61.115   3.725  34.999  1.00  0.00    -0.043 SA
ENDBRANCH   8  10
ENDBRANCH   6   8
ENDBRANCH   1   5
BRANCH   1  13
HETATM   13  C5  UNL     1      60.238   3.666  30.230  1.00  0.00    -0.041 A 
HETATM   14  C6  UNL     1      60.217   4.929  30.775  1.00  0.00     0.008 A 
HETATM   15  C7  UNL     1      61.169   5.890  30.469  1.00  0.00     0.001 A 
HETATM   16  C8  UNL     1      62.175   5.564  29.583  1.00  0.00     0.000 A 
HETATM   17  C9  UNL     1      62.194   4.290  29.037  1.00  0.00     0.001 A 
HETATM   18  C10 UNL     1      61.248   3.332  29.339  1.00  0.00     0.008 A 
ENDBRANCH   1  13
TORSDOF 5
ENDMDL
