MODEL 1
REMARK VINA RESULT: -5.958464555      0.000      0.000
REMARK  5 active torsions:
REMARK  status: ('A' for Active; 'I' for Inactive)
REMARK    1  A    between atoms: N1_2  and  C2_4 
REMARK    2  A    between atoms: C2_4  and  O1_5 
REMARK    3  A    between atoms: C2_4  and  C3_7 
REMARK    4  A    between atoms: C3_7  and  N2_8 
REMARK    5  A    between atoms: C3_7  and  C13_23 
REMARK       I    between atoms: N2_8  and  C4_10 
REMARK       I    between atoms: C4_10  and  N5_15 
ROOT
HETATM    1  N2  UNL     1      56.562  72.304  20.067  1.00  0.00    -0.207 N 
ATOM      2  H2  UNL     1      56.217  71.594  19.420  1.00  0.00     0.179 HD
HETATM    3  C4  UNL     1      57.417  71.899  21.163  1.00  0.00     0.686 C 
HETATM    4  N3  UNL     1      58.560  72.371  21.234  1.00  0.00    -0.126 N 
ATOM      5  H3  UNL     1      58.790  73.022  20.483  1.00  0.00     0.197 HD
HETATM    6  C5  UNL     1      59.570  72.177  22.136  1.00  0.00     0.196 C 
HETATM    7  N4  UNL     1      60.433  72.035  22.881  1.00  0.00    -0.171 NA
HETATM    8  N5  UNL     1      56.895  70.977  22.099  1.00  0.00    -0.208 N 
HETATM    9  C6  UNL     1      56.054  69.809  21.760  1.00  0.00     0.102 C 
HETATM   10  C7  UNL     1      56.710  68.506  22.084  1.00  0.00     0.026 C 
HETATM   11  C8  UNL     1      57.988  68.688  22.879  1.00  0.00     0.004 C 
HETATM   12  C9  UNL     1      57.763  69.684  23.980  1.00  0.00     0.026 C 
HETATM   13  C10 UNL     1      56.976  70.898  23.539  1.00  0.00     0.102 C 
HETATM   14  C11 UNL     1      55.503  70.627  23.913  1.00  0.00     0.028 C 
HETATM   15  C12 UNL     1      54.885  70.022  22.685  1.00  0.00     0.028 C 
ENDROOT
BRANCH   1  16
HETATM   16  C3  UNL     1      56.185  73.666  19.863  1.00  0.00     0.248 C 
BRANCH  16  17
HETATM   17  C2  UNL     1      55.319  73.867  18.638  1.00  0.00     0.247 C 
BRANCH  17  18
HETATM   18  N1  UNL     1      54.617  75.111  18.661  1.00  0.00    -0.399 N 
HETATM   19  C1  UNL     1      53.277  75.062  18.174  1.00  0.00     0.142 C 
ATOM     20  H1  UNL     1      55.044  75.973  19.002  1.00  0.00     0.155 HD
ENDBRANCH  17  18
BRANCH  17  21
HETATM   21  O1  UNL     1      56.041  73.787  17.449  1.00  0.00    -0.374 OA
ATOM     22  H1  UNL     1      56.946  73.589  17.657  1.00  0.00     0.212 HD
ENDBRANCH  17  21
ENDBRANCH  16  17
BRANCH  16  23
HETATM   23  C13 UNL     1      55.740  74.355  21.066  1.00  0.00     0.201 C 
HETATM   24  O2  UNL     1      56.591  74.780  21.891  1.00  0.00    -0.646 OA
HETATM   25  O3  UNL     1      54.424  74.601  21.410  1.00  0.00    -0.646 OA
ENDBRANCH  16  23
ENDBRANCH   1  16
TORSDOF 5
ENDMDL
MODEL 2
REMARK VINA RESULT: -5.153079824      7.697     10.034
REMARK  5 active torsions:
REMARK  status: ('A' for Active; 'I' for Inactive)
REMARK    1  A    between atoms: N1_2  and  C2_4 
REMARK    2  A    between atoms: C2_4  and  O1_5 
REMARK    3  A    between atoms: C2_4  and  C3_7 
REMARK    4  A    between atoms: C3_7  and  N2_8 
REMARK    5  A    between atoms: C3_7  and  C13_23 
REMARK       I    between atoms: N2_8  and  C4_10 
REMARK       I    between atoms: C4_10  and  N5_15 
ROOT
HETATM    1  N2  UNL     1      58.953  65.139  25.093  1.00  0.00    -0.207 N 
ATOM      2  H2  UNL     1      59.050  66.086  24.726  1.00  0.00     0.179 HD
HETATM    3  C4  UNL     1      59.559  64.815  26.368  1.00  0.00     0.686 C 
HETATM    4  N3  UNL     1      58.831  64.430  27.294  1.00  0.00    -0.126 N 
ATOM      5  H3  UNL     1      57.842  64.379  27.053  1.00  0.00     0.197 HD
HETATM    6  C5  UNL     1      59.114  64.062  28.580  1.00  0.00     0.196 C 
HETATM    7  N4  UNL     1      59.325  63.744  29.664  1.00  0.00    -0.171 NA
HETATM    8  N5  UNL     1      60.961  64.958  26.486  1.00  0.00    -0.208 N 
HETATM    9  C6  UNL     1      61.751  66.066  25.908  1.00  0.00     0.102 C 
HETATM   10  C7  UNL     1      62.405  66.919  26.946  1.00  0.00     0.026 C 
HETATM   11  C8  UNL     1      62.284  66.326  28.337  1.00  0.00     0.004 C 
HETATM   12  C9  UNL     1      62.602  64.858  28.292  1.00  0.00     0.026 C 
HETATM   13  C10 UNL     1      61.974  64.144  27.116  1.00  0.00     0.102 C 
HETATM   14  C11 UNL     1      63.050  64.090  26.010  1.00  0.00     0.028 C 
HETATM   15  C12 UNL     1      62.807  65.300  25.155  1.00  0.00     0.028 C 
ENDROOT
BRANCH   1  16
HETATM   16  C3  UNL     1      58.225  64.174  24.334  1.00  0.00     0.248 C 
BRANCH  16  17
HETATM   17  C2  UNL     1      56.895  64.694  23.831  1.00  0.00     0.247 C 
BRANCH  17  18
HETATM   18  N1  UNL     1      56.993  65.282  22.532  1.00  0.00    -0.399 N 
HETATM   19  C1  UNL     1      56.688  66.674  22.470  1.00  0.00     0.142 C 
ATOM     20  H1  UNL     1      57.261  64.744  21.707  1.00  0.00     0.155 HD
ENDBRANCH  17  18
BRANCH  17  21
HETATM   21  O1  UNL     1      55.908  63.710  23.800  1.00  0.00    -0.374 OA
ATOM     22  H1  UNL     1      55.984  63.232  22.983  1.00  0.00     0.212 HD
ENDBRANCH  17  21
ENDBRANCH  16  17
BRANCH  16  23
HETATM   23  C13 UNL     1      59.023  63.446  23.358  1.00  0.00     0.201 C 
HETATM   24  O2  UNL     1      58.452  62.717  22.506  1.00  0.00    -0.646 OA
HETATM   25  O3  UNL     1      60.402  63.473  23.268  1.00  0.00    -0.646 OA
ENDBRANCH  16  23
ENDBRANCH   1  16
TORSDOF 5
ENDMDL
MODEL 3
REMARK VINA RESULT: -4.903714592      1.971      3.605
REMARK  5 active torsions:
REMARK  status: ('A' for Active; 'I' for Inactive)
REMARK    1  A    between atoms: N1_2  and  C2_4 
REMARK    2  A    between atoms: C2_4  and  O1_5 
REMARK    3  A    between atoms: C2_4  and  C3_7 
REMARK    4  A    between atoms: C3_7  and  N2_8 
REMARK    5  A    between atoms: C3_7  and  C13_23 
REMARK       I    between atoms: N2_8  and  C4_10 
REMARK       I    between atoms: C4_10  and  N5_15 
ROOT
HETATM    1  N2  UNL     1      55.923  73.399  20.581  1.00  0.00    -0.207 N 
ATOM      2  H2  UNL     1      55.562  74.176  21.136  1.00  0.00     0.179 HD
HETATM    3  C4  UNL     1      56.682  72.358  21.241  1.00  0.00     0.686 C 
HETATM    4  N3  UNL     1      56.261  71.194  21.201  1.00  0.00    -0.126 N 
ATOM      5  H3  UNL     1      55.387  71.085  20.687  1.00  0.00     0.197 HD
HETATM    6  C5  UNL     1      56.754  70.030  21.722  1.00  0.00     0.196 C 
HETATM    7  N4  UNL     1      57.148  69.037  22.146  1.00  0.00    -0.171 NA
HETATM    8  N5  UNL     1      57.875  72.733  21.902  1.00  0.00    -0.208 N 
HETATM    9  C6  UNL     1      58.049  73.963  22.705  1.00  0.00     0.102 C 
HETATM   10  C7  UNL     1      58.311  73.683  24.150  1.00  0.00     0.026 C 
HETATM   11  C8  UNL     1      58.550  72.210  24.415  1.00  0.00     0.004 C 
HETATM   12  C9  UNL     1      59.490  71.654  23.383  1.00  0.00     0.026 C 
HETATM   13  C10 UNL     1      59.182  72.121  21.978  1.00  0.00     0.102 C 
HETATM   14  C11 UNL     1      60.100  73.332  21.706  1.00  0.00     0.028 C 
HETATM   15  C12 UNL     1      59.290  74.540  22.077  1.00  0.00     0.028 C 
ENDROOT
BRANCH   1  16
HETATM   16  C3  UNL     1      55.661  73.372  19.178  1.00  0.00     0.248 C 
BRANCH  16  17
HETATM   17  C2  UNL     1      54.503  74.258  18.771  1.00  0.00     0.247 C 
BRANCH  17  18
HETATM   18  N1  UNL     1      54.577  75.559  19.359  1.00  0.00    -0.399 N 
HETATM   19  C1  UNL     1      53.491  75.899  20.220  1.00  0.00     0.142 C 
ATOM     20  H1  UNL     1      55.351  76.198  19.175  1.00  0.00     0.155 HD
ENDBRANCH  17  18
BRANCH  17  21
HETATM   21  O1  UNL     1      54.393  74.401  17.389  1.00  0.00    -0.374 OA
ATOM     22  H1  UNL     1      53.660  74.976  17.202  1.00  0.00     0.212 HD
ENDBRANCH  17  21
ENDBRANCH  16  17
BRANCH  16  23
HETATM   23  C13 UNL     1      56.848  73.467  18.341  1.00  0.00     0.201 C 
HETATM   24  O2  UNL     1      56.789  73.115  17.134  1.00  0.00    -0.646 OA
HETATM   25  O3  UNL     1      58.087  73.923  18.753  1.00  0.00    -0.646 OA
ENDBRANCH  16  23
ENDBRANCH   1  16
TORSDOF 5
ENDMDL
MODEL 4
REMARK VINA RESULT: -4.822170252      9.029     10.701
REMARK  5 active torsions:
REMARK  status: ('A' for Active; 'I' for Inactive)
REMARK    1  A    between atoms: N1_2  and  C2_4 
REMARK    2  A    between atoms: C2_4  and  O1_5 
REMARK    3  A    between atoms: C2_4  and  C3_7 
REMARK    4  A    between atoms: C3_7  and  N2_8 
REMARK    5  A    between atoms: C3_7  and  C13_23 
REMARK       I    between atoms: N2_8  and  C4_10 
REMARK       I    between atoms: C4_10  and  N5_15 
ROOT
HETATM    1  N2  UNL     1      59.307  64.999  25.750  1.00  0.00    -0.207 N 
ATOM      2  H2  UNL     1      59.226  65.971  25.453  1.00  0.00     0.179 HD
HETATM    3  C4  UNL     1      59.638  64.712  27.130  1.00  0.00     0.686 C 
HETATM    4  N3  UNL     1      58.838  64.058  27.813  1.00  0.00    -0.126 N 
ATOM      5  H3  UNL     1      57.995  63.778  27.312  1.00  0.00     0.197 HD
HETATM    6  C5  UNL     1      58.880  63.644  29.115  1.00  0.00     0.196 C 
HETATM    7  N4  UNL     1      58.891  63.281  30.206  1.00  0.00    -0.171 NA
HETATM    8  N5  UNL     1      60.869  65.200  27.626  1.00  0.00    -0.208 N 
HETATM    9  C6  UNL     1      61.440  66.530  27.318  1.00  0.00     0.102 C 
HETATM   10  C7  UNL     1      61.550  67.409  28.520  1.00  0.00     0.026 C 
HETATM   11  C8  UNL     1      61.253  66.664  29.807  1.00  0.00     0.004 C 
HETATM   12  C9  UNL     1      61.966  65.342  29.804  1.00  0.00     0.026 C 
HETATM   13  C10 UNL     1      61.877  64.616  28.480  1.00  0.00     0.102 C 
HETATM   14  C11 UNL     1      63.167  64.957  27.704  1.00  0.00     0.028 C 
HETATM   15  C12 UNL     1      62.820  66.145  26.854  1.00  0.00     0.028 C 
ENDROOT
BRANCH   1  16
HETATM   16  C3  UNL     1      59.089  63.962  24.792  1.00  0.00     0.248 C 
BRANCH  16  17
HETATM   17  C2  UNL     1      57.797  64.127  24.021  1.00  0.00     0.247 C 
BRANCH  17  18
HETATM   18  N1  UNL     1      57.063  62.906  23.913  1.00  0.00    -0.399 N 
HETATM   19  C1  UNL     1      55.730  63.039  23.423  1.00  0.00     0.142 C 
ATOM     20  H1  UNL     1      57.464  62.003  24.169  1.00  0.00     0.155 HD
ENDBRANCH  17  18
BRANCH  17  21
HETATM   21  O1  UNL     1      56.961  65.099  24.571  1.00  0.00    -0.374 OA
ATOM     22  H1  UNL     1      56.420  65.459  23.878  1.00  0.00     0.212 HD
ENDBRANCH  17  21
ENDBRANCH  16  17
BRANCH  16  23
HETATM   23  C13 UNL     1      60.257  63.624  23.993  1.00  0.00     0.201 C 
HETATM   24  O2  UNL     1      60.110  63.006  22.907  1.00  0.00    -0.646 OA
HETATM   25  O3  UNL     1      61.567  63.923  24.319  1.00  0.00    -0.646 OA
ENDBRANCH  16  23
ENDBRANCH   1  16
TORSDOF 5
ENDMDL
MODEL 5
REMARK VINA RESULT: -4.815387594     10.133     11.228
REMARK  5 active torsions:
REMARK  status: ('A' for Active; 'I' for Inactive)
REMARK    1  A    between atoms: N1_2  and  C2_4 
REMARK    2  A    between atoms: C2_4  and  O1_5 
REMARK    3  A    between atoms: C2_4  and  C3_7 
REMARK    4  A    between atoms: C3_7  and  N2_8 
REMARK    5  A    between atoms: C3_7  and  C13_23 
REMARK       I    between atoms: N2_8  and  C4_10 
REMARK       I    between atoms: C4_10  and  N5_15 
ROOT
HETATM    1  N2  UNL     1      61.724  64.924  24.947  1.00  0.00    -0.207 N 
ATOM      2  H2  UNL     1      61.839  65.842  24.518  1.00  0.00     0.179 HD
HETATM    3  C4  UNL     1      61.196  64.840  26.293  1.00  0.00     0.686 C 
HETATM    4  N3  UNL     1      60.142  64.218  26.483  1.00  0.00    -0.126 N 
ATOM      5  H3  UNL     1      59.740  63.812  25.639  1.00  0.00     0.197 HD
HETATM    6  C5  UNL     1      59.421  63.976  27.620  1.00  0.00     0.196 C 
HETATM    7  N4  UNL     1      58.798  63.755  28.560  1.00  0.00    -0.171 NA
HETATM    8  N5  UNL     1      61.919  65.482  27.325  1.00  0.00    -0.208 N 
HETATM    9  C6  UNL     1      62.576  66.802  27.206  1.00  0.00     0.102 C 
HETATM   10  C7  UNL     1      61.981  67.832  28.109  1.00  0.00     0.026 C 
HETATM   11  C8  UNL     1      60.989  67.234  29.088  1.00  0.00     0.004 C 
HETATM   12  C9  UNL     1      61.561  65.982  29.689  1.00  0.00     0.026 C 
HETATM   13  C10 UNL     1      62.245  65.090  28.677  1.00  0.00     0.102 C 
HETATM   14  C11 UNL     1      63.749  65.429  28.738  1.00  0.00     0.028 C 
HETATM   15  C12 UNL     1      63.967  66.470  27.678  1.00  0.00     0.028 C 
ENDROOT
BRANCH   1  16
HETATM   16  C3  UNL     1      62.089  63.762  24.203  1.00  0.00     0.248 C 
BRANCH  16  17
HETATM   17  C2  UNL     1      60.981  63.262  23.301  1.00  0.00     0.247 C 
BRANCH  17  18
HETATM   18  N1  UNL     1      61.472  62.766  22.054  1.00  0.00    -0.399 N 
HETATM   19  C1  UNL     1      60.883  63.351  20.894  1.00  0.00     0.142 C 
ATOM     20  H1  UNL     1      62.191  62.045  21.998  1.00  0.00     0.155 HD
ENDBRANCH  17  18
BRANCH  17  21
HETATM   21  O1  UNL     1      60.206  62.269  23.899  1.00  0.00    -0.374 OA
ATOM     22  H1  UNL     1      60.347  62.299  24.837  1.00  0.00     0.212 HD
ENDBRANCH  17  21
ENDBRANCH  16  17
BRANCH  16  23
HETATM   23  C13 UNL     1      63.411  63.823  23.598  1.00  0.00     0.201 C 
HETATM   24  O2  UNL     1      64.181  62.830  23.683  1.00  0.00    -0.646 OA
HETATM   25  O3  UNL     1      63.931  64.904  22.911  1.00  0.00    -0.646 OA
ENDBRANCH  16  23
ENDBRANCH   1  16
TORSDOF 5
ENDMDL
