MODEL 1
REMARK VINA RESULT: -6.637587617      0.000      0.000
REMARK  4 active torsions:
REMARK  status: ('A' for Active; 'I' for Inactive)
REMARK    1  A    between atoms: O1_2  and  C2_3 
REMARK    2  A    between atoms: C5_7  and  C7_10 
REMARK    3  A    between atoms: C7_10  and  O3_11 
REMARK    4  A    between atoms: C9_15  and  O5_16 
ROOT
HETATM    1  C2  UNL     1      -6.110   1.663  16.447  1.00  0.00     0.154 C 
HETATM    2  C3  UNL     1      -6.055   3.167  16.705  1.00  0.00     0.069 C 
HETATM    3  C4  UNL     1      -5.457   3.710  15.460  1.00  0.00     0.160 C 
HETATM    4  O2  UNL     1      -4.284   4.450  15.679  1.00  0.00    -0.334 OA
HETATM    5  C5  UNL     1      -3.671   4.309  14.426  1.00  0.00     0.280 C 
HETATM    6  C6  UNL     1      -4.482   5.011  13.457  1.00  0.00     0.131 C 
HETATM    7  N1  UNL     1      -5.138   5.554  12.695  1.00  0.00    -0.191 NA
HETATM    8  O4  UNL     1      -3.667   2.941  14.177  1.00  0.00    -0.331 OA
HETATM    9  C8  UNL     1      -4.915   2.548  14.655  1.00  0.00     0.186 C 
HETATM   10  C9  UNL     1      -4.798   1.464  15.705  1.00  0.00     0.178 C 
ENDROOT
BRANCH   5  11
HETATM   11  C7  UNL     1      -2.270   4.862  14.429  1.00  0.00     0.249 C 
BRANCH  11  12
HETATM   12  O3  UNL     1      -1.521   4.093  15.318  1.00  0.00    -0.394 OA
ATOM     13  H3  UNL     1      -1.306   4.646  16.060  1.00  0.00     0.209 HD
ENDBRANCH  11  12
ENDBRANCH   5  11
BRANCH  10  14
HETATM   14  O5  UNL     1      -4.789   0.233  15.075  1.00  0.00    -0.390 OA
ATOM     15  H5  UNL     1      -3.908  -0.124  15.066  1.00  0.00     0.210 HD
ENDBRANCH  10  14
BRANCH   1  16
HETATM   16  O1  UNL     1      -6.145   1.002  17.650  1.00  0.00    -0.388 OA
HETATM   17  C1  UNL     1      -6.425   1.980  18.634  1.00  0.00     0.202 C 
ENDBRANCH   1  16
TORSDOF 4
ENDMDL
MODEL 2
REMARK VINA RESULT: -6.452752303      2.396      3.563
REMARK  4 active torsions:
REMARK  status: ('A' for Active; 'I' for Inactive)
REMARK    1  A    between atoms: O1_2  and  C2_3 
REMARK    2  A    between atoms: C5_7  and  C7_10 
REMARK    3  A    between atoms: C7_10  and  O3_11 
REMARK    4  A    between atoms: C9_15  and  O5_16 
ROOT
HETATM    1  C2  UNL     1      -5.631   4.386  15.973  1.00  0.00     0.154 C 
HETATM    2  C3  UNL     1      -4.747   3.141  16.024  1.00  0.00     0.069 C 
HETATM    3  C4  UNL     1      -4.154   3.083  14.665  1.00  0.00     0.160 C 
HETATM    4  O2  UNL     1      -4.415   1.879  13.992  1.00  0.00    -0.334 OA
HETATM    5  C5  UNL     1      -4.295   2.312  12.663  1.00  0.00     0.280 C 
HETATM    6  C6  UNL     1      -2.913   2.673  12.440  1.00  0.00     0.131 C 
HETATM    7  N1  UNL     1      -1.822   2.971  12.278  1.00  0.00    -0.191 NA
HETATM    8  O4  UNL     1      -5.123   3.425  12.570  1.00  0.00    -0.331 OA
HETATM    9  C8  UNL     1      -4.896   4.067  13.786  1.00  0.00     0.186 C 
HETATM   10  C9  UNL     1      -6.181   4.274  14.560  1.00  0.00     0.178 C 
ENDROOT
BRANCH   5  11
HETATM   11  C7  UNL     1      -4.717   1.242  11.691  1.00  0.00     0.249 C 
BRANCH  11  12
HETATM   12  O3  UNL     1      -5.588   1.831  10.777  1.00  0.00    -0.394 OA
ATOM     13  H3  UNL     1      -5.567   1.305   9.986  1.00  0.00     0.209 HD
ENDBRANCH  11  12
ENDBRANCH   5  11
BRANCH  10  14
HETATM   14  O5  UNL     1      -6.745   5.476  14.173  1.00  0.00    -0.390 OA
ATOM     15  H5  UNL     1      -6.701   5.568  13.228  1.00  0.00     0.210 HD
ENDBRANCH  10  14
BRANCH   1  16
HETATM   16  O1  UNL     1      -6.608   4.283  16.933  1.00  0.00    -0.388 OA
HETATM   17  C1  UNL     1      -6.282   3.147  17.711  1.00  0.00     0.202 C 
ENDBRANCH   1  16
TORSDOF 4
ENDMDL
MODEL 3
REMARK VINA RESULT: -6.419411354      2.928      4.349
REMARK  4 active torsions:
REMARK  status: ('A' for Active; 'I' for Inactive)
REMARK    1  A    between atoms: O1_2  and  C2_3 
REMARK    2  A    between atoms: C5_7  and  C7_10 
REMARK    3  A    between atoms: C7_10  and  O3_11 
REMARK    4  A    between atoms: C9_15  and  O5_16 
ROOT
HETATM    1  C2  UNL     1      -4.814   2.027  11.021  1.00  0.00     0.154 C 
HETATM    2  C3  UNL     1      -4.621   1.695  12.499  1.00  0.00     0.069 C 
HETATM    3  C4  UNL     1      -4.493   3.028  13.139  1.00  0.00     0.160 C 
HETATM    4  O2  UNL     1      -3.297   3.193  13.855  1.00  0.00    -0.334 OA
HETATM    5  C5  UNL     1      -3.180   4.590  13.815  1.00  0.00     0.280 C 
HETATM    6  C6  UNL     1      -4.263   5.145  14.596  1.00  0.00     0.131 C 
HETATM    7  N1  UNL     1      -5.131   5.575  15.201  1.00  0.00    -0.191 NA
HETATM    8  O4  UNL     1      -3.311   4.925  12.472  1.00  0.00    -0.331 OA
HETATM    9  C8  UNL     1      -4.315   4.059  12.045  1.00  0.00     0.186 C 
HETATM   10  C9  UNL     1      -3.863   3.206  10.879  1.00  0.00     0.178 C 
ENDROOT
BRANCH   5  11
HETATM   11  C7  UNL     1      -1.855   5.051  14.361  1.00  0.00     0.249 C 
BRANCH  11  12
HETATM   12  O3  UNL     1      -1.442   4.111  15.302  1.00  0.00    -0.394 OA
ATOM     13  H3  UNL     1      -1.560   3.251  14.914  1.00  0.00     0.209 HD
ENDBRANCH  11  12
ENDBRANCH   5  11
BRANCH  10  14
HETATM   14  O5  UNL     1      -4.122   3.887   9.702  1.00  0.00    -0.390 OA
ATOM     15  H5  UNL     1      -3.308   4.088   9.256  1.00  0.00     0.210 HD
ENDBRANCH  10  14
BRANCH   1  16
HETATM   16  O1  UNL     1      -4.435   0.946  10.264  1.00  0.00    -0.388 OA
HETATM   17  C1  UNL     1      -4.775  -0.204  11.015  1.00  0.00     0.202 C 
ENDBRANCH   1  16
TORSDOF 4
ENDMDL
MODEL 4
REMARK VINA RESULT: -6.112074560      2.234      4.762
REMARK  4 active torsions:
REMARK  status: ('A' for Active; 'I' for Inactive)
REMARK    1  A    between atoms: O1_2  and  C2_3 
REMARK    2  A    between atoms: C5_7  and  C7_10 
REMARK    3  A    between atoms: C7_10  and  O3_11 
REMARK    4  A    between atoms: C9_15  and  O5_16 
ROOT
HETATM    1  C2  UNL     1      -4.290   5.417  13.964  1.00  0.00     0.154 C 
HETATM    2  C3  UNL     1      -3.266   4.542  14.684  1.00  0.00     0.069 C 
HETATM    3  C4  UNL     1      -3.990   3.263  14.892  1.00  0.00     0.160 C 
HETATM    4  O2  UNL     1      -4.064   2.875  16.239  1.00  0.00    -0.334 OA
HETATM    5  C5  UNL     1      -5.212   2.070  16.198  1.00  0.00     0.280 C 
HETATM    6  C6  UNL     1      -4.905   0.905  15.400  1.00  0.00     0.131 C 
HETATM    7  N1  UNL     1      -4.659  -0.005  14.754  1.00  0.00    -0.191 NA
HETATM    8  O4  UNL     1      -6.181   2.855  15.583  1.00  0.00    -0.331 OA
HETATM    9  C8  UNL     1      -5.453   3.497  14.583  1.00  0.00     0.186 C 
HETATM   10  C9  UNL     1      -5.561   5.003  14.689  1.00  0.00     0.178 C 
ENDROOT
BRANCH   5  11
HETATM   11  C7  UNL     1      -5.649   1.656  17.578  1.00  0.00     0.249 C 
BRANCH  11  12
HETATM   12  O3  UNL     1      -5.249   0.334  17.762  1.00  0.00    -0.394 OA
ATOM     13  H3  UNL     1      -5.512  -0.152  16.989  1.00  0.00     0.209 HD
ENDBRANCH  11  12
ENDBRANCH   5  11
BRANCH  10  14
HETATM   14  O5  UNL     1      -6.671   5.422  13.977  1.00  0.00    -0.390 OA
ATOM     15  H5  UNL     1      -7.391   4.815  14.108  1.00  0.00     0.210 HD
ENDBRANCH  10  14
BRANCH   1  16
HETATM   16  O1  UNL     1      -3.971   6.738  14.165  1.00  0.00    -0.388 OA
HETATM   17  C1  UNL     1      -2.567   6.836  14.013  1.00  0.00     0.202 C 
ENDBRANCH   1  16
TORSDOF 4
ENDMDL
MODEL 5
REMARK VINA RESULT: -6.106468934      2.295      3.303
REMARK  4 active torsions:
REMARK  status: ('A' for Active; 'I' for Inactive)
REMARK    1  A    between atoms: O1_2  and  C2_3 
REMARK    2  A    between atoms: C5_7  and  C7_10 
REMARK    3  A    between atoms: C7_10  and  O3_11 
REMARK    4  A    between atoms: C9_15  and  O5_16 
ROOT
HETATM    1  C2  UNL     1      -5.583   2.656  16.482  1.00  0.00     0.154 C 
HETATM    2  C3  UNL     1      -4.829   1.449  15.928  1.00  0.00     0.069 C 
HETATM    3  C4  UNL     1      -4.254   1.955  14.656  1.00  0.00     0.160 C 
HETATM    4  O2  UNL     1      -4.640   1.210  13.532  1.00  0.00    -0.334 OA
HETATM    5  C5  UNL     1      -4.485   2.181  12.531  1.00  0.00     0.280 C 
HETATM    6  C6  UNL     1      -3.075   2.481  12.423  1.00  0.00     0.131 C 
HETATM    7  N1  UNL     1      -1.961   2.724  12.355  1.00  0.00    -0.191 NA
HETATM    8  O4  UNL     1      -5.197   3.285  12.987  1.00  0.00    -0.331 OA
HETATM    9  C8  UNL     1      -4.899   3.290  14.348  1.00  0.00     0.186 C 
HETATM   10  C9  UNL     1      -6.151   3.239  15.198  1.00  0.00     0.178 C 
ENDROOT
BRANCH   5  11
HETATM   11  C7  UNL     1      -5.020   1.702  11.207  1.00  0.00     0.249 C 
BRANCH  11  12
HETATM   12  O3  UNL     1      -4.199   2.229  10.212  1.00  0.00    -0.394 OA
ATOM     13  H3  UNL     1      -4.763   2.635   9.564  1.00  0.00     0.209 HD
ENDBRANCH  11  12
ENDBRANCH   5  11
BRANCH  10  14
HETATM   14  O5  UNL     1      -6.594   4.531  15.416  1.00  0.00    -0.390 OA
ATOM     15  H5  UNL     1      -7.519   4.527  15.634  1.00  0.00     0.210 HD
ENDBRANCH  10  14
BRANCH   1  16
HETATM   16  O1  UNL     1      -6.559   2.219  17.344  1.00  0.00    -0.388 OA
HETATM   17  C1  UNL     1      -6.326   0.837  17.541  1.00  0.00     0.202 C 
ENDBRANCH   1  16
TORSDOF 4
ENDMDL
