MODEL 1
REMARK VINA RESULT: -6.553518415      0.000      0.000
REMARK  4 active torsions:
REMARK  status: ('A' for Active; 'I' for Inactive)
REMARK    1  A    between atoms: O1_1  and  C1_3 
REMARK    2  A    between atoms: C1_3  and  C2_4 
REMARK    3  A    between atoms: C3_6  and  N1_7 
REMARK    4  A    between atoms: C10_17  and  O4_18 
ROOT
HETATM    1  C2  UNL     1      -4.614   1.873  16.486  1.00  0.00     0.185 C 
HETATM    2  O2  UNL     1      -3.950   2.555  15.467  1.00  0.00    -0.352 OA
HETATM    3  C3  UNL     1      -4.391   3.865  15.692  1.00  0.00     0.275 C 
HETATM    4  C7  UNL     1      -5.903   3.651  15.662  1.00  0.00     0.208 C 
HETATM    5  O3  UNL     1      -6.591   4.658  16.278  1.00  0.00    -0.378 OA
HETATM    6  C8  UNL     1      -6.694   4.410  17.612  1.00  0.00     0.171 C 
HETATM    7  C9  UNL     1      -6.233   3.019  17.898  1.00  0.00     0.069 C 
HETATM    8  C10 UNL     1      -6.013   2.418  16.544  1.00  0.00     0.118 C 
ENDROOT
BRANCH   3   9
HETATM    9  N1  UNL     1      -3.955   4.770  14.670  1.00  0.00    -0.272 N 
HETATM   10  C4  UNL     1      -3.305   4.504  13.541  1.00  0.00     0.114 A 
HETATM   11  C5  UNL     1      -3.080   5.677  12.841  1.00  0.00     0.037 A 
HETATM   12  C6  UNL     1      -3.632   6.670  13.612  1.00  0.00     0.108 A 
HETATM   13  N2  UNL     1      -4.153   6.085  14.709  1.00  0.00    -0.308 N 
ATOM     14  H2  UNL     1      -4.630   6.580  15.463  1.00  0.00     0.186 HD
ENDBRANCH   3   9
BRANCH   1  15
HETATM   15  C1  UNL     1      -4.676   0.389  16.226  1.00  0.00     0.199 C 
BRANCH  15  16
HETATM   16  O1  UNL     1      -4.672   0.102  14.871  1.00  0.00    -0.398 OA
ATOM     17  H1  UNL     1      -5.510   0.293  14.467  1.00  0.00     0.209 HD
ENDBRANCH  15  16
ENDBRANCH   1  15
BRANCH   8  18
HETATM   18  O4  UNL     1      -6.980   1.544  16.137  1.00  0.00    -0.384 OA
ATOM     19  H4  UNL     1      -7.691   1.941  15.649  1.00  0.00     0.210 HD
ENDBRANCH   8  18
TORSDOF 4
ENDMDL
MODEL 2
REMARK VINA RESULT: -6.492327013      2.196      4.573
REMARK  4 active torsions:
REMARK  status: ('A' for Active; 'I' for Inactive)
REMARK    1  A    between atoms: O1_1  and  C1_3 
REMARK    2  A    between atoms: C1_3  and  C2_4 
REMARK    3  A    between atoms: C3_6  and  N1_7 
REMARK    4  A    between atoms: C10_17  and  O4_18 
ROOT
HETATM    1  C2  UNL     1      -3.444   4.185  14.154  1.00  0.00     0.185 C 
HETATM    2  O2  UNL     1      -3.687   3.258  15.168  1.00  0.00    -0.352 OA
HETATM    3  C3  UNL     1      -5.062   3.436  15.368  1.00  0.00     0.275 C 
HETATM    4  C7  UNL     1      -5.106   4.941  15.628  1.00  0.00     0.208 C 
HETATM    5  O3  UNL     1      -6.347   5.475  15.427  1.00  0.00    -0.378 OA
HETATM    6  C8  UNL     1      -6.509   5.810  14.117  1.00  0.00     0.171 C 
HETATM    7  C9  UNL     1      -5.199   5.699  13.409  1.00  0.00     0.069 C 
HETATM    8  C10 UNL     1      -4.211   5.430  14.501  1.00  0.00     0.118 C 
ENDROOT
BRANCH   3   9
HETATM    9  N1  UNL     1      -5.553   2.682  16.482  1.00  0.00    -0.272 N 
HETATM   10  C4  UNL     1      -5.516   1.369  16.684  1.00  0.00     0.114 A 
HETATM   11  C5  UNL     1      -6.105   1.062  17.898  1.00  0.00     0.037 A 
HETATM   12  C6  UNL     1      -6.501   2.268  18.422  1.00  0.00     0.108 A 
HETATM   13  N2  UNL     1      -6.151   3.225  17.540  1.00  0.00    -0.308 N 
ATOM     14  H2  UNL     1      -6.320   4.223  17.666  1.00  0.00     0.186 HD
ENDBRANCH   3   9
BRANCH   1  15
HETATM   15  C1  UNL     1      -1.980   4.526  14.039  1.00  0.00     0.199 C 
BRANCH  15  16
HETATM   16  O1  UNL     1      -1.287   4.218  15.198  1.00  0.00    -0.398 OA
ATOM     17  H1  UNL     1      -1.224   4.966  15.782  1.00  0.00     0.209 HD
ENDBRANCH  15  16
ENDBRANCH   1  15
BRANCH   8  18
HETATM   18  O4  UNL     1      -3.433   6.496  14.850  1.00  0.00    -0.384 OA
ATOM     19  H4  UNL     1      -3.610   6.849  15.714  1.00  0.00     0.210 HD
ENDBRANCH   8  18
TORSDOF 4
ENDMDL
MODEL 3
REMARK VINA RESULT: -6.276405918      2.944      4.086
REMARK  4 active torsions:
REMARK  status: ('A' for Active; 'I' for Inactive)
REMARK    1  A    between atoms: O1_1  and  C1_3 
REMARK    2  A    between atoms: C1_3  and  C2_4 
REMARK    3  A    between atoms: C3_6  and  N1_7 
REMARK    4  A    between atoms: C10_17  and  O4_18 
ROOT
HETATM    1  C2  UNL     1      -4.911   1.582  16.069  1.00  0.00     0.185 C 
HETATM    2  O2  UNL     1      -5.032   0.648  15.041  1.00  0.00    -0.352 OA
HETATM    3  C3  UNL     1      -4.382   1.316  13.995  1.00  0.00     0.275 C 
HETATM    4  C7  UNL     1      -5.164   2.628  13.984  1.00  0.00     0.208 C 
HETATM    5  O3  UNL     1      -4.486   3.642  13.370  1.00  0.00    -0.378 OA
HETATM    6  C8  UNL     1      -3.667   4.267  14.259  1.00  0.00     0.171 C 
HETATM    7  C9  UNL     1      -3.971   3.787  15.640  1.00  0.00     0.069 C 
HETATM    8  C10 UNL     1      -5.190   2.933  15.473  1.00  0.00     0.118 C 
ENDROOT
BRANCH   3   9
HETATM    9  N1  UNL     1      -4.488   0.615  12.751  1.00  0.00    -0.272 N 
HETATM   10  C4  UNL     1      -4.324  -0.681  12.505  1.00  0.00     0.114 A 
HETATM   11  C5  UNL     1      -4.520  -0.933  11.159  1.00  0.00     0.037 A 
HETATM   12  C6  UNL     1      -4.813   0.287  10.601  1.00  0.00     0.108 A 
HETATM   13  N2  UNL     1      -4.786   1.200  11.593  1.00  0.00    -0.308 N 
ATOM     14  H2  UNL     1      -4.967   2.196  11.472  1.00  0.00     0.186 HD
ENDBRANCH   3   9
BRANCH   1  15
HETATM   15  C1  UNL     1      -5.893   1.325  17.184  1.00  0.00     0.199 C 
BRANCH  15  16
HETATM   16  O1  UNL     1      -7.002   0.621  16.743  1.00  0.00    -0.398 OA
ATOM     17  H1  UNL     1      -7.409   0.128  17.445  1.00  0.00     0.209 HD
ENDBRANCH  15  16
ENDBRANCH   1  15
BRANCH   8  18
HETATM   18  O4  UNL     1      -6.357   3.507  15.889  1.00  0.00    -0.384 OA
ATOM     19  H4  UNL     1      -7.063   3.472  15.255  1.00  0.00     0.210 HD
ENDBRANCH   8  18
TORSDOF 4
ENDMDL
MODEL 4
REMARK VINA RESULT: -6.220710594      2.049      2.587
REMARK  4 active torsions:
REMARK  status: ('A' for Active; 'I' for Inactive)
REMARK    1  A    between atoms: O1_1  and  C1_3 
REMARK    2  A    between atoms: C1_3  and  C2_4 
REMARK    3  A    between atoms: C3_6  and  N1_7 
REMARK    4  A    between atoms: C10_17  and  O4_18 
ROOT
HETATM    1  C2  UNL     1      -5.383   1.851  17.180  1.00  0.00     0.185 C 
HETATM    2  O2  UNL     1      -4.886   1.397  15.958  1.00  0.00    -0.352 OA
HETATM    3  C3  UNL     1      -4.837   2.593  15.230  1.00  0.00     0.275 C 
HETATM    4  C7  UNL     1      -6.283   3.063  15.385  1.00  0.00     0.208 C 
HETATM    5  O3  UNL     1      -6.430   4.401  15.153  1.00  0.00    -0.378 OA
HETATM    6  C8  UNL     1      -6.196   5.105  16.295  1.00  0.00     0.171 C 
HETATM    7  C9  UNL     1      -6.097   4.162  17.449  1.00  0.00     0.069 C 
HETATM    8  C10 UNL     1      -6.478   2.833  16.874  1.00  0.00     0.118 C 
ENDROOT
BRANCH   3   9
HETATM    9  N1  UNL     1      -4.484   2.382  13.858  1.00  0.00    -0.272 N 
HETATM   10  C4  UNL     1      -4.208   3.281  12.918  1.00  0.00     0.114 A 
HETATM   11  C5  UNL     1      -3.915   2.641  11.726  1.00  0.00     0.037 A 
HETATM   12  C6  UNL     1      -4.028   1.300  11.999  1.00  0.00     0.108 A 
HETATM   13  N2  UNL     1      -4.373   1.180  13.297  1.00  0.00    -0.308 N 
ATOM     14  H2  UNL     1      -4.526   0.295  13.780  1.00  0.00     0.186 HD
ENDBRANCH   3   9
BRANCH   1  15
HETATM   15  C1  UNL     1      -5.949   0.727  18.011  1.00  0.00     0.199 C 
BRANCH  15  16
HETATM   16  O1  UNL     1      -6.647  -0.185  17.238  1.00  0.00    -0.398 OA
ATOM     17  H1  UNL     1      -7.585  -0.124  17.378  1.00  0.00     0.209 HD
ENDBRANCH  15  16
ENDBRANCH   1  15
BRANCH   8  18
HETATM   18  O4  UNL     1      -7.732   2.404  17.197  1.00  0.00    -0.384 OA
ATOM     19  H4  UNL     1      -8.274   3.054  17.630  1.00  0.00     0.210 HD
ENDBRANCH   8  18
TORSDOF 4
ENDMDL
MODEL 5
REMARK VINA RESULT: -6.193060493      1.077      1.335
REMARK  4 active torsions:
REMARK  status: ('A' for Active; 'I' for Inactive)
REMARK    1  A    between atoms: O1_1  and  C1_3 
REMARK    2  A    between atoms: C1_3  and  C2_4 
REMARK    3  A    between atoms: C3_6  and  N1_7 
REMARK    4  A    between atoms: C10_17  and  O4_18 
ROOT
HETATM    1  C2  UNL     1      -5.039   1.373  16.882  1.00  0.00     0.185 C 
HETATM    2  O2  UNL     1      -4.168   1.831  15.895  1.00  0.00    -0.352 OA
HETATM    3  C3  UNL     1      -4.337   3.217  16.012  1.00  0.00     0.275 C 
HETATM    4  C7  UNL     1      -5.853   3.319  15.856  1.00  0.00     0.208 C 
HETATM    5  O3  UNL     1      -6.358   4.486  16.355  1.00  0.00    -0.378 OA
HETATM    6  C8  UNL     1      -6.615   4.357  17.685  1.00  0.00     0.171 C 
HETATM    7  C9  UNL     1      -6.483   2.923  18.081  1.00  0.00     0.069 C 
HETATM    8  C10 UNL     1      -6.291   2.198  16.785  1.00  0.00     0.118 C 
ENDROOT
BRANCH   3   9
HETATM    9  N1  UNL     1      -3.641   3.939  14.990  1.00  0.00    -0.272 N 
HETATM   10  C4  UNL     1      -4.079   4.332  13.798  1.00  0.00     0.114 A 
HETATM   11  C5  UNL     1      -3.074   5.005  13.125  1.00  0.00     0.037 A 
HETATM   12  C6  UNL     1      -2.000   4.997  13.979  1.00  0.00     0.108 A 
HETATM   13  N2  UNL     1      -2.378   4.346  15.097  1.00  0.00    -0.308 N 
ATOM     14  H2  UNL     1      -1.782   4.186  15.909  1.00  0.00     0.186 HD
ENDBRANCH   3   9
BRANCH   1  15
HETATM   15  C1  UNL     1      -5.393  -0.081  16.693  1.00  0.00     0.199 C 
BRANCH  15  16
HETATM   16  O1  UNL     1      -6.108  -0.581  17.769  1.00  0.00    -0.398 OA
ATOM     17  H1  UNL     1      -6.167  -1.529  17.743  1.00  0.00     0.209 HD
ENDBRANCH  15  16
ENDBRANCH   1  15
BRANCH   8  18
HETATM   18  O4  UNL     1      -7.386   1.518  16.337  1.00  0.00    -0.384 OA
ATOM     19  H4  UNL     1      -7.990   2.038  15.821  1.00  0.00     0.210 HD
ENDBRANCH   8  18
TORSDOF 4
ENDMDL
