MODEL 1
REMARK VINA RESULT: -6.337050638      0.000      0.000
REMARK  7 active torsions:
REMARK  status: ('A' for Active; 'I' for Inactive)
REMARK    1  A    between atoms: C3_4  and  C4_5 
REMARK    2  A    between atoms: C4_5  and  N2_6 
REMARK    3  A    between atoms: C6_9  and  O2_10 
REMARK    4  A    between atoms: C7_12  and  O3_13 
REMARK    5  A    between atoms: C8_15  and  N3_16 
REMARK    6  A    between atoms: N3_16  and  N4_18 
REMARK    7  A    between atoms: N4_18  and  N5_19 
ROOT
HETATM    1  N1  UNL     1      -6.062  -0.047  17.486  1.00  0.00    -0.182 NA
HETATM    2  C1  UNL     1      -6.047   0.953  16.906  1.00  0.00     0.152 C 
HETATM    3  C2  UNL     1      -6.047   2.173  16.190  1.00  0.00     0.019 C 
HETATM    4  C3  UNL     1      -6.070   3.228  15.561  1.00  0.00    -0.045 C 
ENDROOT
BRANCH   4   5
HETATM    5  C4  UNL     1      -6.137   4.484  14.814  1.00  0.00     0.160 C 
BRANCH   5   6
HETATM    6  N2  UNL     1      -4.909   4.768  14.261  1.00  0.00    -0.313 N 
HETATM    7  C5  UNL     1      -4.747   5.682  13.202  1.00  0.00     0.234 C 
HETATM    8  O1  UNL     1      -3.702   6.557  13.512  1.00  0.00    -0.313 OA
HETATM    9  C6  UNL     1      -2.507   5.927  13.679  1.00  0.00     0.296 C 
HETATM   10  C7  UNL     1      -2.545   4.766  14.641  1.00  0.00     0.218 C 
HETATM   11  C8  UNL     1      -3.789   3.900  14.473  1.00  0.00     0.253 C 
BRANCH   9  12
HETATM   12  O2  UNL     1      -1.625   6.878  14.271  1.00  0.00    -0.368 OA
ATOM     13  H2  UNL     1      -0.766   6.719  13.898  1.00  0.00     0.212 HD
ENDBRANCH   9  12
BRANCH  10  14
HETATM   14  O3  UNL     1      -1.397   4.008  14.467  1.00  0.00    -0.387 OA
ATOM     15  H3  UNL     1      -0.817   4.161  15.203  1.00  0.00     0.210 HD
ENDBRANCH  10  14
BRANCH  11  16
HETATM   16  N3  UNL     1      -3.627   3.158  13.242  1.00  0.00    -0.226 N 
ATOM     17  H3  UNL     1      -3.454   3.662  12.373  1.00  0.00     0.199 HD
BRANCH  16  18
HETATM   18  N4  UNL     1      -3.695   1.939  13.224  1.00  0.00    -0.246 NA
BRANCH  18  19
HETATM   19  N5  UNL     1      -4.017   0.760  13.234  1.00  0.00    -0.261 N 
ATOM     20  H52 UNL     1      -3.136   0.501  12.788  1.00  0.00     0.193 HD
ATOM     21  H51 UNL     1      -4.466  -0.150  13.337  1.00  0.00     0.193 HD
ENDBRANCH  18  19
ENDBRANCH  16  18
ENDBRANCH  11  16
ENDBRANCH   5   6
ENDBRANCH   4   5
TORSDOF 7
ENDMDL
MODEL 2
REMARK VINA RESULT: -6.304485938      3.135      3.855
REMARK  7 active torsions:
REMARK  status: ('A' for Active; 'I' for Inactive)
REMARK    1  A    between atoms: C3_4  and  C4_5 
REMARK    2  A    between atoms: C4_5  and  N2_6 
REMARK    3  A    between atoms: C6_9  and  O2_10 
REMARK    4  A    between atoms: C7_12  and  O3_13 
REMARK    5  A    between atoms: C8_15  and  N3_16 
REMARK    6  A    between atoms: N3_16  and  N4_18 
REMARK    7  A    between atoms: N4_18  and  N5_19 
ROOT
HETATM    1  N1  UNL     1      -5.758   0.476  18.444  1.00  0.00    -0.182 NA
HETATM    2  C1  UNL     1      -5.682   1.180  17.531  1.00  0.00     0.152 C 
HETATM    3  C2  UNL     1      -5.574   2.032  16.408  1.00  0.00     0.019 C 
HETATM    4  C3  UNL     1      -5.459   2.759  15.423  1.00  0.00    -0.045 C 
ENDROOT
BRANCH   4   5
HETATM    5  C4  UNL     1      -5.306   3.596  14.233  1.00  0.00     0.160 C 
BRANCH   5   6
HETATM    6  N2  UNL     1      -4.674   2.886  13.237  1.00  0.00    -0.313 N 
HETATM    7  C5  UNL     1      -4.453   1.498  13.319  1.00  0.00     0.234 C 
HETATM    8  O1  UNL     1      -4.858   0.902  12.120  1.00  0.00    -0.313 OA
HETATM    9  C6  UNL     1      -4.167   1.351  11.038  1.00  0.00     0.296 C 
HETATM   10  C7  UNL     1      -4.123   2.854  10.908  1.00  0.00     0.218 C 
HETATM   11  C8  UNL     1      -3.891   3.555  12.241  1.00  0.00     0.253 C 
BRANCH   9  12
HETATM   12  O2  UNL     1      -4.872   0.895   9.886  1.00  0.00    -0.368 OA
ATOM     13  H2  UNL     1      -4.251   0.396   9.368  1.00  0.00     0.212 HD
ENDBRANCH   9  12
BRANCH  10  14
HETATM   14  O3  UNL     1      -3.129   3.192  10.000  1.00  0.00    -0.387 OA
ATOM     15  H3  UNL     1      -2.499   2.483   9.961  1.00  0.00     0.210 HD
ENDBRANCH  10  14
BRANCH  11  16
HETATM   16  N3  UNL     1      -2.511   3.328  12.608  1.00  0.00    -0.226 N 
ATOM     17  H3  UNL     1      -1.975   2.611  12.119  1.00  0.00     0.199 HD
BRANCH  16  18
HETATM   18  N4  UNL     1      -1.974   3.979  13.490  1.00  0.00    -0.246 NA
BRANCH  18  19
HETATM   19  N5  UNL     1      -1.371   4.397  14.468  1.00  0.00    -0.261 N 
ATOM     20  H52 UNL     1      -2.016   3.913  15.092  1.00  0.00     0.193 HD
ATOM     21  H51 UNL     1      -0.740   4.842  15.135  1.00  0.00     0.193 HD
ENDBRANCH  18  19
ENDBRANCH  16  18
ENDBRANCH  11  16
ENDBRANCH   5   6
ENDBRANCH   4   5
TORSDOF 7
ENDMDL
MODEL 3
REMARK VINA RESULT: -6.273115771      2.559      3.087
REMARK  7 active torsions:
REMARK  status: ('A' for Active; 'I' for Inactive)
REMARK    1  A    between atoms: C3_4  and  C4_5 
REMARK    2  A    between atoms: C4_5  and  N2_6 
REMARK    3  A    between atoms: C6_9  and  O2_10 
REMARK    4  A    between atoms: C7_12  and  O3_13 
REMARK    5  A    between atoms: C8_15  and  N3_16 
REMARK    6  A    between atoms: N3_16  and  N4_18 
REMARK    7  A    between atoms: N4_18  and  N5_19 
ROOT
HETATM    1  N1  UNL     1      -5.754   0.166  18.034  1.00  0.00    -0.182 NA
HETATM    2  C1  UNL     1      -5.739   1.021  17.257  1.00  0.00     0.152 C 
HETATM    3  C2  UNL     1      -5.732   2.057  16.294  1.00  0.00     0.019 C 
HETATM    4  C3  UNL     1      -5.738   2.941  15.440  1.00  0.00    -0.045 C 
ENDROOT
BRANCH   4   5
HETATM    5  C4  UNL     1      -5.776   3.978  14.409  1.00  0.00     0.160 C 
BRANCH   5   6
HETATM    6  N2  UNL     1      -4.928   3.647  13.377  1.00  0.00    -0.313 N 
HETATM    7  C5  UNL     1      -4.957   2.389  12.745  1.00  0.00     0.234 C 
HETATM    8  O1  UNL     1      -4.965   2.577  11.359  1.00  0.00    -0.313 OA
HETATM    9  C6  UNL     1      -3.861   3.227  10.900  1.00  0.00     0.296 C 
HETATM   10  C7  UNL     1      -3.555   4.517  11.620  1.00  0.00     0.218 C 
HETATM   11  C8  UNL     1      -3.740   4.410  13.129  1.00  0.00     0.253 C 
BRANCH   9  12
HETATM   12  O2  UNL     1      -4.141   3.605   9.554  1.00  0.00    -0.368 OA
ATOM     13  H2  UNL     1      -3.906   2.863   9.010  1.00  0.00     0.212 HD
ENDBRANCH   9  12
BRANCH  10  14
HETATM   14  O3  UNL     1      -2.256   4.898  11.315  1.00  0.00    -0.387 OA
ATOM     15  H3  UNL     1      -2.209   5.846  11.313  1.00  0.00     0.210 HD
ENDBRANCH  10  14
BRANCH  11  16
HETATM   16  N3  UNL     1      -2.647   3.612  13.637  1.00  0.00    -0.226 N 
ATOM     17  H3  UNL     1      -2.503   2.670  13.272  1.00  0.00     0.199 HD
BRANCH  16  18
HETATM   18  N4  UNL     1      -1.892   4.043  14.495  1.00  0.00    -0.246 NA
BRANCH  18  19
HETATM   19  N5  UNL     1      -1.160   4.237  15.454  1.00  0.00    -0.261 N 
ATOM     20  H52 UNL     1      -1.062   5.220  15.199  1.00  0.00     0.193 HD
ATOM     21  H51 UNL     1      -0.581   4.189  16.293  1.00  0.00     0.193 HD
ENDBRANCH  18  19
ENDBRANCH  16  18
ENDBRANCH  11  16
ENDBRANCH   5   6
ENDBRANCH   4   5
TORSDOF 7
ENDMDL
MODEL 4
REMARK VINA RESULT: -6.127621320      1.675      1.856
REMARK  7 active torsions:
REMARK  status: ('A' for Active; 'I' for Inactive)
REMARK    1  A    between atoms: C3_4  and  C4_5 
REMARK    2  A    between atoms: C4_5  and  N2_6 
REMARK    3  A    between atoms: C6_9  and  O2_10 
REMARK    4  A    between atoms: C7_12  and  O3_13 
REMARK    5  A    between atoms: C8_15  and  N3_16 
REMARK    6  A    between atoms: N3_16  and  N4_18 
REMARK    7  A    between atoms: N4_18  and  N5_19 
ROOT
HETATM    1  N1  UNL     1      -5.730   0.172  18.012  1.00  0.00    -0.182 NA
HETATM    2  C1  UNL     1      -5.827   1.068  17.288  1.00  0.00     0.152 C 
HETATM    3  C2  UNL     1      -5.929   2.159  16.395  1.00  0.00     0.019 C 
HETATM    4  C3  UNL     1      -5.995   3.101  15.609  1.00  0.00    -0.045 C 
ENDROOT
BRANCH   4   5
HETATM    5  C4  UNL     1      -6.049   4.204  14.649  1.00  0.00     0.160 C 
BRANCH   5   6
HETATM    6  N2  UNL     1      -4.953   4.159  13.817  1.00  0.00    -0.313 N 
HETATM    7  C5  UNL     1      -4.375   5.316  13.262  1.00  0.00     0.234 C 
HETATM    8  O1  UNL     1      -2.991   5.269  13.451  1.00  0.00    -0.313 OA
HETATM    9  C6  UNL     1      -2.403   4.201  12.845  1.00  0.00     0.296 C 
HETATM   10  C7  UNL     1      -3.040   2.873  13.171  1.00  0.00     0.218 C 
HETATM   11  C8  UNL     1      -4.564   2.936  13.181  1.00  0.00     0.253 C 
BRANCH   9  12
HETATM   12  O2  UNL     1      -1.077   4.118  13.362  1.00  0.00    -0.368 OA
ATOM     13  H2  UNL     1      -0.906   3.198  13.525  1.00  0.00     0.212 HD
ENDBRANCH   9  12
BRANCH  10  14
HETATM   14  O3  UNL     1      -2.598   1.931  12.253  1.00  0.00    -0.387 OA
ATOM     15  H3  UNL     1      -3.206   1.201  12.250  1.00  0.00     0.210 HD
ENDBRANCH  10  14
BRANCH  11  16
HETATM   16  N3  UNL     1      -4.995   3.052  11.806  1.00  0.00    -0.226 N 
ATOM     17  H3  UNL     1      -5.160   3.978  11.410  1.00  0.00     0.199 HD
BRANCH  16  18
HETATM   18  N4  UNL     1      -5.164   2.065  11.109  1.00  0.00    -0.246 NA
BRANCH  18  19
HETATM   19  N5  UNL     1      -5.190   0.958  10.591  1.00  0.00    -0.261 N 
ATOM     20  H52 UNL     1      -4.381   0.666  11.141  1.00  0.00     0.193 HD
ATOM     21  H51 UNL     1      -5.381   0.113  10.052  1.00  0.00     0.193 HD
ENDBRANCH  18  19
ENDBRANCH  16  18
ENDBRANCH  11  16
ENDBRANCH   5   6
ENDBRANCH   4   5
TORSDOF 7
ENDMDL
MODEL 5
REMARK VINA RESULT: -6.086197555      3.326      5.362
REMARK  7 active torsions:
REMARK  status: ('A' for Active; 'I' for Inactive)
REMARK    1  A    between atoms: C3_4  and  C4_5 
REMARK    2  A    between atoms: C4_5  and  N2_6 
REMARK    3  A    between atoms: C6_9  and  O2_10 
REMARK    4  A    between atoms: C7_12  and  O3_13 
REMARK    5  A    between atoms: C8_15  and  N3_16 
REMARK    6  A    between atoms: N3_16  and  N4_18 
REMARK    7  A    between atoms: N4_18  and  N5_19 
ROOT
HETATM    1  N1  UNL     1      -2.749   9.023  12.524  1.00  0.00    -0.182 NA
HETATM    2  C1  UNL     1      -2.992   7.997  12.998  1.00  0.00     0.152 C 
HETATM    3  C2  UNL     1      -3.271   6.736  13.574  1.00  0.00     0.019 C 
HETATM    4  C3  UNL     1      -3.488   5.633  14.070  1.00  0.00    -0.045 C 
ENDROOT
BRANCH   4   5
HETATM    5  C4  UNL     1      -3.710   4.317  14.669  1.00  0.00     0.160 C 
BRANCH   5   6
HETATM    6  N2  UNL     1      -3.882   3.373  13.682  1.00  0.00    -0.313 N 
HETATM    7  C5  UNL     1      -4.372   2.080  13.946  1.00  0.00     0.234 C 
HETATM    8  O1  UNL     1      -5.384   1.782  13.029  1.00  0.00    -0.313 OA
HETATM    9  C6  UNL     1      -4.956   1.788  11.737  1.00  0.00     0.296 C 
HETATM   10  C7  UNL     1      -4.212   3.036  11.335  1.00  0.00     0.218 C 
HETATM   11  C8  UNL     1      -3.242   3.518  12.408  1.00  0.00     0.253 C 
BRANCH   9  12
HETATM   12  O2  UNL     1      -6.125   1.767  10.921  1.00  0.00    -0.368 OA
ATOM     13  H2  UNL     1      -5.964   1.130  10.234  1.00  0.00     0.212 HD
ENDBRANCH   9  12
BRANCH  10  14
HETATM   14  O3  UNL     1      -3.539   2.789  10.146  1.00  0.00    -0.387 OA
ATOM     15  H3  UNL     1      -4.055   3.134   9.428  1.00  0.00     0.210 HD
ENDBRANCH  10  14
BRANCH  11  16
HETATM   16  N3  UNL     1      -2.128   2.595  12.421  1.00  0.00    -0.226 N 
ATOM     17  H3  UNL     1      -2.274   1.639  12.745  1.00  0.00     0.199 HD
BRANCH  16  18
HETATM   18  N4  UNL     1      -1.017   2.938  12.050  1.00  0.00    -0.246 NA
BRANCH  18  19
HETATM   19  N5  UNL     1       0.109   3.393  11.912  1.00  0.00    -0.261 N 
ATOM     20  H52 UNL     1       0.298   3.264  12.906  1.00  0.00     0.193 HD
ATOM     21  H51 UNL     1       0.991   3.793  11.590  1.00  0.00     0.193 HD
ENDBRANCH  18  19
ENDBRANCH  16  18
ENDBRANCH  11  16
ENDBRANCH   5   6
ENDBRANCH   4   5
TORSDOF 7
ENDMDL
