MODEL 1
REMARK VINA RESULT: -7.063004171      0.000      0.000
REMARK  8 active torsions:
REMARK  status: ('A' for Active; 'I' for Inactive)
REMARK    1  A    between atoms: N1_1  and  N2_4 
REMARK    2  A    between atoms: C1_6  and  C2_7 
REMARK    3  A    between atoms: C1_6  and  C4_10 
REMARK    4  A    between atoms: C2_7  and  C3_8 
REMARK    5  A    between atoms: C4_10  and  O2_11 
REMARK    6  A    between atoms: C4_10  and  C5_13 
REMARK    7  A    between atoms: N3_16  and  C8_17 
REMARK    8  A    between atoms: C8_17  and  C9_21 
ROOT
HETATM    1  C5  UNL     1      10.085   9.506   2.849  1.00  0.00     0.023 C 
HETATM    2  C6  UNL     1       9.039   9.245   1.835  1.00  0.00     0.027 C 
HETATM    3  C7  UNL     1       7.874  10.208   1.860  1.00  0.00     0.124 C 
HETATM    4  N3  UNL     1       7.371  10.226   3.208  1.00  0.00    -0.371 N 
HETATM    5  C12 UNL     1       8.263  10.518   4.272  1.00  0.00     0.124 C 
HETATM    6  C13 UNL     1       9.711  10.469   3.928  1.00  0.00     0.027 C 
ENDROOT
BRANCH   1   7
HETATM    7  C4  UNL     1      10.488   8.202   3.491  1.00  0.00     0.169 C 
BRANCH   7   8
HETATM    8  C1  UNL     1      11.930   7.935   3.496  1.00  0.00     0.038 C 
HETATM    9  N2  UNL     1      12.515   7.378   2.521  1.00  0.00    -0.312 N 
ATOM     10  H2  UNL     1      12.112   6.441   2.543  1.00  0.00     0.185 HD
BRANCH   9  11
HETATM   11  N1  UNL     1      13.301   7.296   1.537  1.00  0.00    -0.345 N 
ATOM     12  H12 UNL     1      14.010   6.688   1.948  1.00  0.00     0.176 HD
ATOM     13  H11 UNL     1      13.637   7.478   0.591  1.00  0.00     0.176 HD
ENDBRANCH   9  11
BRANCH   8  14
HETATM   14  C2  UNL     1      12.741   8.347   4.691  1.00  0.00     0.126 C 
BRANCH  14  15
HETATM   15  C3  UNL     1      13.707   7.300   5.064  1.00  0.00     0.236 C 
HETATM   16  O1  UNL     1      14.710   7.175   4.386  1.00  0.00    -0.306 OA
ENDBRANCH  14  15
ENDBRANCH   8  14
ENDBRANCH   7   8
BRANCH   7  17
HETATM   17  O2  UNL     1       9.762   7.132   2.945  1.00  0.00    -0.389 OA
ATOM     18  H2  UNL     1      10.127   6.844   2.116  1.00  0.00     0.210 HD
ENDBRANCH   7  17
ENDBRANCH   1   7
BRANCH   4  19
HETATM   19  C8  UNL     1       6.007   9.961   3.451  1.00  0.00     0.076 C 
HETATM   20  N4  UNL     1       5.141   9.836   2.488  1.00  0.00    -0.389 N 
ATOM     21  H42 UNL     1       5.501   9.942   1.539  1.00  0.00     0.157 HD
ATOM     22  H41 UNL     1       4.155   9.645   2.662  1.00  0.00     0.157 HD
BRANCH  19  23
HETATM   23  C9  UNL     1       5.483   9.808   4.833  1.00  0.00     0.053 A 
HETATM   24  C10 UNL     1       4.068   9.591   5.134  1.00  0.00     0.013 A 
HETATM   25  C11 UNL     1       4.723  10.913   5.460  1.00  0.00     0.013 A 
ENDBRANCH  19  23
ENDBRANCH   4  19
TORSDOF 8
ENDMDL
MODEL 2
REMARK VINA RESULT: -7.035999138      2.373      3.273
REMARK  8 active torsions:
REMARK  status: ('A' for Active; 'I' for Inactive)
REMARK    1  A    between atoms: N1_1  and  N2_4 
REMARK    2  A    between atoms: C1_6  and  C2_7 
REMARK    3  A    between atoms: C1_6  and  C4_10 
REMARK    4  A    between atoms: C2_7  and  C3_8 
REMARK    5  A    between atoms: C4_10  and  O2_11 
REMARK    6  A    between atoms: C4_10  and  C5_13 
REMARK    7  A    between atoms: N3_16  and  C8_17 
REMARK    8  A    between atoms: C8_17  and  C9_21 
ROOT
HETATM    1  C5  UNL     1      12.844   8.968   3.204  1.00  0.00     0.023 C 
HETATM    2  C6  UNL     1      11.549   9.313   2.573  1.00  0.00     0.027 C 
HETATM    3  C7  UNL     1      10.737  10.351   3.313  1.00  0.00     0.124 C 
HETATM    4  N3  UNL     1      10.607   9.894   4.672  1.00  0.00    -0.371 N 
HETATM    5  C12 UNL     1      11.778   9.582   5.408  1.00  0.00     0.124 C 
HETATM    6  C13 UNL     1      13.026   9.451   4.605  1.00  0.00     0.027 C 
ENDROOT
BRANCH   1   7
HETATM    7  C4  UNL     1      13.017   7.469   3.187  1.00  0.00     0.169 C 
BRANCH   7   8
HETATM    8  C1  UNL     1      14.176   6.990   2.426  1.00  0.00     0.038 C 
HETATM    9  N2  UNL     1      14.152   6.876   1.165  1.00  0.00    -0.312 N 
ATOM     10  H2  UNL     1      13.472   6.127   1.035  1.00  0.00     0.185 HD
BRANCH   9  11
HETATM   11  N1  UNL     1      14.473   7.142  -0.026  1.00  0.00    -0.345 N 
ATOM     12  H12 UNL     1      15.409   7.513   0.138  1.00  0.00     0.176 HD
ATOM     13  H11 UNL     1      14.347   7.201  -1.037  1.00  0.00     0.176 HD
ENDBRANCH   9  11
BRANCH   8  14
HETATM   14  C2  UNL     1      15.435   6.635   3.165  1.00  0.00     0.126 C 
BRANCH  14  15
HETATM   15  C3  UNL     1      16.583   7.404   2.658  1.00  0.00     0.236 C 
HETATM   16  O1  UNL     1      17.092   7.054   1.609  1.00  0.00    -0.306 OA
ENDBRANCH  14  15
ENDBRANCH   8  14
ENDBRANCH   7   8
BRANCH   7  17
HETATM   17  O2  UNL     1      11.832   6.834   2.788  1.00  0.00    -0.389 OA
ATOM     18  H2  UNL     1      11.071   7.386   2.927  1.00  0.00     0.210 HD
ENDBRANCH   7  17
ENDBRANCH   1   7
BRANCH   4  19
HETATM   19  C8  UNL     1       9.327   9.771   5.250  1.00  0.00     0.076 C 
HETATM   20  N4  UNL     1       9.138   9.203   6.406  1.00  0.00    -0.389 N 
ATOM     21  H42 UNL     1       9.969   8.847   6.877  1.00  0.00     0.157 HD
ATOM     22  H41 UNL     1       8.212   9.114   6.824  1.00  0.00     0.157 HD
BRANCH  19  23
HETATM   23  C9  UNL     1       8.115  10.290   4.563  1.00  0.00     0.053 A 
HETATM   24  C10 UNL     1       6.773  10.215   5.141  1.00  0.00     0.013 A 
HETATM   25  C11 UNL     1       7.147   9.344   3.964  1.00  0.00     0.013 A 
ENDBRANCH  19  23
ENDBRANCH   4  19
TORSDOF 8
ENDMDL
MODEL 3
REMARK VINA RESULT: -6.998461170      2.511      3.351
REMARK  8 active torsions:
REMARK  status: ('A' for Active; 'I' for Inactive)
REMARK    1  A    between atoms: N1_1  and  N2_4 
REMARK    2  A    between atoms: C1_6  and  C2_7 
REMARK    3  A    between atoms: C1_6  and  C4_10 
REMARK    4  A    between atoms: C2_7  and  C3_8 
REMARK    5  A    between atoms: C4_10  and  O2_11 
REMARK    6  A    between atoms: C4_10  and  C5_13 
REMARK    7  A    between atoms: N3_16  and  C8_17 
REMARK    8  A    between atoms: C8_17  and  C9_21 
ROOT
HETATM    1  C5  UNL     1      13.191   9.212   3.073  1.00  0.00     0.023 C 
HETATM    2  C6  UNL     1      12.389   9.817   1.985  1.00  0.00     0.027 C 
HETATM    3  C7  UNL     1      11.188  10.611   2.445  1.00  0.00     0.124 C 
HETATM    4  N3  UNL     1      10.422   9.754   3.311  1.00  0.00    -0.371 N 
HETATM    5  C12 UNL     1      11.062   9.153   4.426  1.00  0.00     0.124 C 
HETATM    6  C13 UNL     1      12.550   9.211   4.422  1.00  0.00     0.027 C 
ENDROOT
BRANCH   1   7
HETATM    7  C4  UNL     1      13.532   7.790   2.703  1.00  0.00     0.169 C 
BRANCH   7   8
HETATM    8  C1  UNL     1      14.611   7.648   1.720  1.00  0.00     0.038 C 
HETATM    9  N2  UNL     1      14.507   6.892   0.710  1.00  0.00    -0.312 N 
ATOM     10  H2  UNL     1      14.474   5.969   1.143  1.00  0.00     0.185 HD
BRANCH   9  11
HETATM   11  N1  UNL     1      14.419   6.604  -0.515  1.00  0.00    -0.345 N 
ATOM     12  H12 UNL     1      14.705   7.500  -0.911  1.00  0.00     0.176 HD
ATOM     13  H11 UNL     1      14.234   6.014  -1.326  1.00  0.00     0.176 HD
ENDBRANCH   9  11
BRANCH   8  14
HETATM   14  C2  UNL     1      15.876   8.436   1.911  1.00  0.00     0.126 C 
BRANCH  14  15
HETATM   15  C3  UNL     1      17.060   7.563   1.847  1.00  0.00     0.236 C 
HETATM   16  O1  UNL     1      17.336   7.045   0.781  1.00  0.00    -0.306 OA
ENDBRANCH  14  15
ENDBRANCH   8  14
ENDBRANCH   7   8
BRANCH   7  17
HETATM   17  O2  UNL     1      12.381   7.085   2.319  1.00  0.00    -0.389 OA
ATOM     18  H2  UNL     1      11.758   7.644   1.871  1.00  0.00     0.210 HD
ENDBRANCH   7  17
ENDBRANCH   1   7
BRANCH   4  19
HETATM   19  C8  UNL     1       9.056   9.529   3.044  1.00  0.00     0.076 C 
HETATM   20  N4  UNL     1       8.649   8.576   2.258  1.00  0.00    -0.389 N 
ATOM     21  H42 UNL     1       9.374   7.994   1.839  1.00  0.00     0.157 HD
ATOM     22  H41 UNL     1       7.661   8.414   2.065  1.00  0.00     0.157 HD
BRANCH  19  23
HETATM   23  C9  UNL     1       8.000  10.378   3.655  1.00  0.00     0.053 A 
HETATM   24  C10 UNL     1       7.481  10.164   5.006  1.00  0.00     0.013 A 
HETATM   25  C11 UNL     1       6.624   9.851   3.802  1.00  0.00     0.013 A 
ENDBRANCH  19  23
ENDBRANCH   4  19
TORSDOF 8
ENDMDL
MODEL 4
REMARK VINA RESULT: -6.990919264      2.498      6.876
REMARK  8 active torsions:
REMARK  status: ('A' for Active; 'I' for Inactive)
REMARK    1  A    between atoms: N1_1  and  N2_4 
REMARK    2  A    between atoms: C1_6  and  C2_7 
REMARK    3  A    between atoms: C1_6  and  C4_10 
REMARK    4  A    between atoms: C2_7  and  C3_8 
REMARK    5  A    between atoms: C4_10  and  O2_11 
REMARK    6  A    between atoms: C4_10  and  C5_13 
REMARK    7  A    between atoms: N3_16  and  C8_17 
REMARK    8  A    between atoms: C8_17  and  C9_21 
ROOT
HETATM    1  C5  UNL     1       7.587   8.982   4.275  1.00  0.00     0.023 C 
HETATM    2  C6  UNL     1       8.078   7.832   3.482  1.00  0.00     0.027 C 
HETATM    3  C7  UNL     1       9.391   7.249   3.951  1.00  0.00     0.124 C 
HETATM    4  N3  UNL     1      10.332   8.335   4.026  1.00  0.00    -0.371 N 
HETATM    5  C12 UNL     1      10.005   9.477   4.802  1.00  0.00     0.124 C 
HETATM    6  C13 UNL     1       8.578   9.586   5.215  1.00  0.00     0.027 C 
ENDROOT
BRANCH   1   7
HETATM    7  C4  UNL     1       7.099  10.057   3.337  1.00  0.00     0.169 C 
BRANCH   7   8
HETATM    8  C1  UNL     1       5.650  10.286   3.358  1.00  0.00     0.038 C 
HETATM    9  N2  UNL     1       4.922  10.081   2.343  1.00  0.00    -0.312 N 
ATOM     10  H2  UNL     1       5.253  10.799   1.699  1.00  0.00     0.185 HD
BRANCH   9  11
HETATM   11  N1  UNL     1       4.028   9.513   1.657  1.00  0.00    -0.345 N 
ATOM     12  H12 UNL     1       3.213  10.018   2.006  1.00  0.00     0.176 HD
ATOM     13  H11 UNL     1       3.649   8.859   0.972  1.00  0.00     0.176 HD
ENDBRANCH   9  11
BRANCH   8  14
HETATM   14  C2  UNL     1       5.009  10.766   4.629  1.00  0.00     0.126 C 
BRANCH  14  15
HETATM   15  C3  UNL     1       3.993   9.812   5.104  1.00  0.00     0.236 C 
HETATM   16  O1  UNL     1       2.952   9.723   4.481  1.00  0.00    -0.306 OA
ENDBRANCH  14  15
ENDBRANCH   8  14
ENDBRANCH   7   8
BRANCH   7  17
HETATM   17  O2  UNL     1       7.572   9.835   2.034  1.00  0.00    -0.389 OA
ATOM     18  H2  UNL     1       8.308  10.399   1.825  1.00  0.00     0.210 HD
ENDBRANCH   7  17
ENDBRANCH   1   7
BRANCH   4  19
HETATM   19  C8  UNL     1      11.560   8.247   3.338  1.00  0.00     0.076 C 
HETATM   20  N4  UNL     1      11.982   7.136   2.809  1.00  0.00    -0.389 N 
ATOM     21  H42 UNL     1      11.375   6.323   2.918  1.00  0.00     0.157 HD
ATOM     22  H41 UNL     1      12.869   7.072   2.311  1.00  0.00     0.157 HD
BRANCH  19  23
HETATM   23  C9  UNL     1      12.444   9.431   3.179  1.00  0.00     0.053 A 
HETATM   24  C10 UNL     1      12.324  10.377   2.070  1.00  0.00     0.013 A 
HETATM   25  C11 UNL     1      13.499   9.429   2.140  1.00  0.00     0.013 A 
ENDBRANCH  19  23
ENDBRANCH   4  19
TORSDOF 8
ENDMDL
MODEL 5
REMARK VINA RESULT: -6.983028492      1.142      1.545
REMARK  8 active torsions:
REMARK  status: ('A' for Active; 'I' for Inactive)
REMARK    1  A    between atoms: N1_1  and  N2_4 
REMARK    2  A    between atoms: C1_6  and  C2_7 
REMARK    3  A    between atoms: C1_6  and  C4_10 
REMARK    4  A    between atoms: C2_7  and  C3_8 
REMARK    5  A    between atoms: C4_10  and  O2_11 
REMARK    6  A    between atoms: C4_10  and  C5_13 
REMARK    7  A    between atoms: N3_16  and  C8_17 
REMARK    8  A    between atoms: C8_17  and  C9_21 
ROOT
HETATM    1  C5  UNL     1      10.229   8.998   4.308  1.00  0.00     0.023 C 
HETATM    2  C6  UNL     1       9.810  10.396   4.057  1.00  0.00     0.027 C 
HETATM    3  C7  UNL     1       8.437  10.752   4.579  1.00  0.00     0.124 C 
HETATM    4  N3  UNL     1       7.519   9.776   4.052  1.00  0.00    -0.371 N 
HETATM    5  C12 UNL     1       7.778   8.399   4.271  1.00  0.00     0.124 C 
HETATM    6  C13 UNL     1       9.147   8.072   4.757  1.00  0.00     0.027 C 
ENDROOT
BRANCH   1   7
HETATM    7  C4  UNL     1      10.851   8.437   3.054  1.00  0.00     0.169 C 
BRANCH   7   8
HETATM    8  C1  UNL     1      12.256   8.035   3.186  1.00  0.00     0.038 C 
HETATM    9  N2  UNL     1      12.880   7.451   2.251  1.00  0.00    -0.312 N 
ATOM     10  H2  UNL     1      12.393   6.556   2.202  1.00  0.00     0.185 HD
BRANCH   9  11
HETATM   11  N1  UNL     1      13.748   7.323   1.345  1.00  0.00    -0.345 N 
ATOM     12  H12 UNL     1      14.479   6.862   1.887  1.00  0.00     0.176 HD
ATOM     13  H11 UNL     1      14.139   7.407   0.407  1.00  0.00     0.176 HD
ENDBRANCH   9  11
BRANCH   8  14
HETATM   14  C2  UNL     1      12.980   8.336   4.467  1.00  0.00     0.126 C 
BRANCH  14  15
HETATM   15  C3  UNL     1      13.738   7.164   4.937  1.00  0.00     0.236 C 
HETATM   16  O1  UNL     1      14.754   6.860   4.342  1.00  0.00    -0.306 OA
ENDBRANCH  14  15
ENDBRANCH   8  14
ENDBRANCH   7   8
BRANCH   7  17
HETATM   17  O2  UNL     1      10.658   9.305   1.968  1.00  0.00    -0.389 OA
ATOM     18  H2  UNL     1      10.040   8.952   1.339  1.00  0.00     0.210 HD
ENDBRANCH   7  17
ENDBRANCH   1   7
BRANCH   4  19
HETATM   19  C8  UNL     1       6.381  10.201   3.335  1.00  0.00     0.076 C 
HETATM   20  N4  UNL     1       6.329  10.177   2.035  1.00  0.00    -0.389 N 
ATOM     21  H42 UNL     1       7.161   9.833   1.555  1.00  0.00     0.157 HD
ATOM     22  H41 UNL     1       5.506  10.484   1.517  1.00  0.00     0.157 HD
BRANCH  19  23
HETATM   23  C9  UNL     1       5.169  10.701   4.035  1.00  0.00     0.053 A 
HETATM   24  C10 UNL     1       4.719  10.184   5.327  1.00  0.00     0.013 A 
HETATM   25  C11 UNL     1       3.943   9.873   4.069  1.00  0.00     0.013 A 
ENDBRANCH  19  23
ENDBRANCH   4  19
TORSDOF 8
ENDMDL
