MODEL 1
REMARK VINA RESULT: -6.634803655      0.000      0.000
REMARK  6 active torsions:
REMARK  status: ('A' for Active; 'I' for Inactive)
REMARK       I    between atoms: C1_2  and  N3_7 
REMARK    1  A    between atoms: N2_3  and  C2_5 
REMARK    2  A    between atoms: N5_14  and  C6_15 
REMARK    3  A    between atoms: C6_15  and  C7_16 
REMARK    4  A    between atoms: C7_16  and  C8_17 
REMARK    5  A    between atoms: C8_17  and  O1_18 
REMARK    6  A    between atoms: O1_18  and  C9_19 
ROOT
HETATM    1  N1  UNL     1      13.103   8.332   2.953  1.00  0.00    -0.063 NA
HETATM    2  C1  UNL     1      12.392   9.471   2.531  1.00  0.00     0.195 C 
HETATM    3  N2  UNL     1      12.992  10.600   2.467  1.00  0.00    -0.331 N 
ATOM      4  H2  UNL     1      13.978  10.637   2.727  1.00  0.00     0.168 HD
HETATM    5  N3  UNL     1      11.039   9.378   2.179  1.00  0.00    -0.302 N 
ATOM      6  H3  UNL     1      10.764   9.798   1.291  1.00  0.00     0.171 HD
HETATM    7  C3  UNL     1      10.109   8.813   2.866  1.00  0.00     0.179 C 
HETATM    8  N4  UNL     1      10.254   8.165   4.126  1.00  0.00    -0.360 N 
ATOM      9  H4  UNL     1      11.125   7.844   4.549  1.00  0.00     0.162 HD
HETATM   10  C4  UNL     1       8.921   8.048   4.692  1.00  0.00     0.142 C 
HETATM   11  C5  UNL     1       8.127   7.771   3.400  1.00  0.00     0.145 C 
HETATM   12  N5  UNL     1       8.712   8.725   2.483  1.00  0.00    -0.352 N 
ENDROOT
BRANCH  12  13
HETATM   13  C6  UNL     1       8.101   9.461   1.415  1.00  0.00     0.128 C 
BRANCH  13  14
HETATM   14  C7  UNL     1       7.077  10.472   1.818  1.00  0.00     0.046 C 
BRANCH  14  15
HETATM   15  C8  UNL     1       5.647  10.047   1.604  1.00  0.00     0.169 C 
BRANCH  15  16
HETATM   16  O1  UNL     1       5.187   9.606   2.852  1.00  0.00    -0.386 OA
BRANCH  16  17
HETATM   17  C9  UNL     1       5.379  10.521   3.852  1.00  0.00     0.121 A 
HETATM   18  C10 UNL     1       4.390  10.320   5.022  1.00  0.00     0.034 A 
HETATM   19  C11 UNL     1       5.890  10.194   5.181  1.00  0.00     0.034 A 
ENDBRANCH  16  17
ENDBRANCH  15  16
ENDBRANCH  14  15
ENDBRANCH  13  14
ENDBRANCH  12  13
BRANCH   3  20
HETATM   20  C2  UNL     1      12.364  11.804   2.054  1.00  0.00     0.172 C 
HETATM   21  S1  UNL     1      12.950  12.682   0.825  1.00  0.00    -0.074 SA
ENDBRANCH   3  20
TORSDOF 6
ENDMDL
MODEL 2
REMARK VINA RESULT: -6.278656183      2.675      4.330
REMARK  6 active torsions:
REMARK  status: ('A' for Active; 'I' for Inactive)
REMARK       I    between atoms: C1_2  and  N3_7 
REMARK    1  A    between atoms: N2_3  and  C2_5 
REMARK    2  A    between atoms: N5_14  and  C6_15 
REMARK    3  A    between atoms: C6_15  and  C7_16 
REMARK    4  A    between atoms: C7_16  and  C8_17 
REMARK    5  A    between atoms: C8_17  and  O1_18 
REMARK    6  A    between atoms: O1_18  and  C9_19 
ROOT
HETATM    1  N1  UNL     1       8.731   9.551  -0.847  1.00  0.00    -0.063 NA
HETATM    2  C1  UNL     1       7.863   9.560   0.261  1.00  0.00     0.195 C 
HETATM    3  N2  UNL     1       6.707  10.100   0.152  1.00  0.00    -0.331 N 
ATOM      4  H2  UNL     1       6.451  10.511  -0.746  1.00  0.00     0.168 HD
HETATM    5  N3  UNL     1       8.252   8.981   1.477  1.00  0.00    -0.302 N 
ATOM      6  H3  UNL     1       7.592   8.336   1.911  1.00  0.00     0.171 HD
HETATM    7  C3  UNL     1       9.361   9.183   2.098  1.00  0.00     0.179 C 
HETATM    8  N4  UNL     1      10.426  10.035   1.685  1.00  0.00    -0.360 N 
ATOM      9  H4  UNL     1      10.575  10.414   0.750  1.00  0.00     0.162 HD
HETATM   10  C4  UNL     1      11.258  10.260   2.855  1.00  0.00     0.142 C 
HETATM   11  C5  UNL     1      11.156   8.865   3.503  1.00  0.00     0.145 C 
HETATM   12  N5  UNL     1       9.746   8.573   3.356  1.00  0.00    -0.352 N 
ENDROOT
BRANCH  12  13
HETATM   13  C6  UNL     1       8.866   7.850   4.227  1.00  0.00     0.128 C 
BRANCH  13  14
HETATM   14  C7  UNL     1       8.401   8.585   5.443  1.00  0.00     0.046 C 
BRANCH  14  15
HETATM   15  C8  UNL     1       7.624   9.847   5.163  1.00  0.00     0.169 C 
BRANCH  15  16
HETATM   16  O1  UNL     1       6.391   9.430   4.642  1.00  0.00    -0.386 OA
BRANCH  16  17
HETATM   17  C9  UNL     1       5.433  10.407   4.678  1.00  0.00     0.121 A 
HETATM   18  C10 UNL     1       4.004   9.819   4.698  1.00  0.00     0.034 A 
HETATM   19  C11 UNL     1       4.562  10.664   5.823  1.00  0.00     0.034 A 
ENDBRANCH  16  17
ENDBRANCH  15  16
ENDBRANCH  14  15
ENDBRANCH  13  14
ENDBRANCH  12  13
BRANCH   3  20
HETATM   20  C2  UNL     1       5.762  10.159   1.209  1.00  0.00     0.172 C 
HETATM   21  S1  UNL     1       4.213   9.745   0.978  1.00  0.00    -0.074 SA
ENDBRANCH   3  20
TORSDOF 6
ENDMDL
MODEL 3
REMARK VINA RESULT: -6.181094015      1.921      3.037
REMARK  6 active torsions:
REMARK  status: ('A' for Active; 'I' for Inactive)
REMARK       I    between atoms: C1_2  and  N3_7 
REMARK    1  A    between atoms: N2_3  and  C2_5 
REMARK    2  A    between atoms: N5_14  and  C6_15 
REMARK    3  A    between atoms: C6_15  and  C7_16 
REMARK    4  A    between atoms: C7_16  and  C8_17 
REMARK    5  A    between atoms: C8_17  and  O1_18 
REMARK    6  A    between atoms: O1_18  and  C9_19 
ROOT
HETATM    1  N1  UNL     1      12.392  11.864   1.973  1.00  0.00    -0.063 NA
HETATM    2  C1  UNL     1      12.504  10.512   2.348  1.00  0.00     0.195 C 
HETATM    3  N2  UNL     1      13.653   9.948   2.336  1.00  0.00    -0.331 N 
ATOM      4  H2  UNL     1      14.460  10.505   2.052  1.00  0.00     0.168 HD
HETATM    5  N3  UNL     1      11.371   9.783   2.735  1.00  0.00    -0.302 N 
ATOM      6  H3  UNL     1      11.440   9.254   3.604  1.00  0.00     0.171 HD
HETATM    7  C3  UNL     1      10.253   9.716   2.102  1.00  0.00     0.179 C 
HETATM    8  N4  UNL     1       9.928  10.366   0.876  1.00  0.00    -0.360 N 
ATOM      9  H4  UNL     1      10.425  11.149   0.452  1.00  0.00     0.162 HD
HETATM   10  C4  UNL     1       8.752   9.696   0.347  1.00  0.00     0.142 C 
HETATM   11  C5  UNL     1       8.012   9.414   1.671  1.00  0.00     0.145 C 
HETATM   12  N5  UNL     1       9.091   8.957   2.520  1.00  0.00    -0.352 N 
ENDROOT
BRANCH  12  13
HETATM   13  C6  UNL     1       9.080   7.970   3.560  1.00  0.00     0.128 C 
BRANCH  13  14
HETATM   14  C7  UNL     1       8.280   8.309   4.776  1.00  0.00     0.046 C 
BRANCH  14  15
HETATM   15  C8  UNL     1       8.538   9.682   5.343  1.00  0.00     0.169 C 
BRANCH  15  16
HETATM   16  O1  UNL     1       7.279  10.203   5.672  1.00  0.00    -0.386 OA
BRANCH  16  17
HETATM   17  C9  UNL     1       6.269   9.709   4.890  1.00  0.00     0.121 A 
HETATM   18  C10 UNL     1       4.883  10.222   5.338  1.00  0.00     0.034 A 
HETATM   19  C11 UNL     1       5.468  10.517   3.974  1.00  0.00     0.034 A 
ENDBRANCH  16  17
ENDBRANCH  15  16
ENDBRANCH  14  15
ENDBRANCH  13  14
ENDBRANCH  12  13
BRANCH   3  20
HETATM   20  C2  UNL     1      13.869   8.593   2.695  1.00  0.00     0.172 C 
HETATM   21  S1  UNL     1      14.536   7.542   1.658  1.00  0.00    -0.074 SA
ENDBRANCH   3  20
TORSDOF 6
ENDMDL
MODEL 4
REMARK VINA RESULT: -6.158227637      1.254      1.351
REMARK  6 active torsions:
REMARK  status: ('A' for Active; 'I' for Inactive)
REMARK       I    between atoms: C1_2  and  N3_7 
REMARK    1  A    between atoms: N2_3  and  C2_5 
REMARK    2  A    between atoms: N5_14  and  C6_15 
REMARK    3  A    between atoms: C6_15  and  C7_16 
REMARK    4  A    between atoms: C7_16  and  C8_17 
REMARK    5  A    between atoms: C8_17  and  O1_18 
REMARK    6  A    between atoms: O1_18  and  C9_19 
ROOT
HETATM    1  N1  UNL     1      14.037   9.593   1.858  1.00  0.00    -0.063 NA
HETATM    2  C1  UNL     1      13.097  10.573   1.488  1.00  0.00     0.195 C 
HETATM    3  N2  UNL     1      13.503  11.736   1.138  1.00  0.00    -0.331 N 
ATOM      4  H2  UNL     1      14.508  11.915   1.139  1.00  0.00     0.168 HD
HETATM    5  N3  UNL     1      11.725  10.285   1.498  1.00  0.00    -0.302 N 
ATOM      6  H3  UNL     1      11.198  10.533   0.661  1.00  0.00     0.171 HD
HETATM    7  C3  UNL     1      11.067   9.739   2.458  1.00  0.00     0.179 C 
HETATM    8  N4  UNL     1      11.588   9.310   3.713  1.00  0.00    -0.360 N 
ATOM      9  H4  UNL     1      12.570   9.152   3.943  1.00  0.00     0.162 HD
HETATM   10  C4  UNL     1      10.452   9.143   4.603  1.00  0.00     0.142 C 
HETATM   11  C5  UNL     1       9.427   8.589   3.593  1.00  0.00     0.145 C 
HETATM   12  N5  UNL     1       9.646   9.447   2.449  1.00  0.00    -0.352 N 
ENDROOT
BRANCH  12  13
HETATM   13  C6  UNL     1       8.709   9.941   1.483  1.00  0.00     0.128 C 
BRANCH  13  14
HETATM   14  C7  UNL     1       7.316   9.409   1.591  1.00  0.00     0.046 C 
BRANCH  14  15
HETATM   15  C8  UNL     1       6.239  10.461   1.672  1.00  0.00     0.169 C 
BRANCH  15  16
HETATM   16  O1  UNL     1       5.390  10.060   2.712  1.00  0.00    -0.386 OA
BRANCH  16  17
HETATM   17  C9  UNL     1       5.756  10.565   3.932  1.00  0.00     0.121 A 
HETATM   18  C10 UNL     1       4.749  10.189   5.042  1.00  0.00     0.034 A 
HETATM   19  C11 UNL     1       6.197   9.750   5.061  1.00  0.00     0.034 A 
ENDBRANCH  16  17
ENDBRANCH  15  16
ENDBRANCH  14  15
ENDBRANCH  13  14
ENDBRANCH  12  13
BRANCH   3  20
HETATM   20  C2  UNL     1      12.636  12.789   0.749  1.00  0.00     0.172 C 
HETATM   21  S1  UNL     1      13.189  14.085  -0.052  1.00  0.00    -0.074 SA
ENDBRANCH   3  20
TORSDOF 6
ENDMDL
MODEL 5
REMARK VINA RESULT: -6.102079928      1.951      3.092
REMARK  6 active torsions:
REMARK  status: ('A' for Active; 'I' for Inactive)
REMARK       I    between atoms: C1_2  and  N3_7 
REMARK    1  A    between atoms: N2_3  and  C2_5 
REMARK    2  A    between atoms: N5_14  and  C6_15 
REMARK    3  A    between atoms: C6_15  and  C7_16 
REMARK    4  A    between atoms: C7_16  and  C8_17 
REMARK    5  A    between atoms: C8_17  and  O1_18 
REMARK    6  A    between atoms: O1_18  and  C9_19 
ROOT
HETATM    1  N1  UNL     1      12.443  11.107   1.665  1.00  0.00    -0.063 NA
HETATM    2  C1  UNL     1      12.269   9.812   2.189  1.00  0.00     0.195 C 
HETATM    3  N2  UNL     1      13.258   9.000   2.204  1.00  0.00    -0.331 N 
ATOM      4  H2  UNL     1      14.151   9.321   1.830  1.00  0.00     0.168 HD
HETATM    5  N3  UNL     1      11.026   9.410   2.697  1.00  0.00    -0.302 N 
ATOM      6  H3  UNL     1      11.025   8.974   3.619  1.00  0.00     0.171 HD
HETATM    7  C3  UNL     1       9.886   9.538   2.114  1.00  0.00     0.179 C 
HETATM    8  N4  UNL     1       9.643  10.112   0.833  1.00  0.00    -0.360 N 
ATOM      9  H4  UNL     1      10.278  10.711   0.304  1.00  0.00     0.162 HD
HETATM   10  C4  UNL     1       8.316   9.682   0.426  1.00  0.00     0.142 C 
HETATM   11  C5  UNL     1       7.613   9.719   1.798  1.00  0.00     0.145 C 
HETATM   12  N5  UNL     1       8.609   9.116   2.657  1.00  0.00    -0.352 N 
ENDROOT
BRANCH  12  13
HETATM   13  C6  UNL     1       8.438   8.273   3.804  1.00  0.00     0.128 C 
BRANCH  13  14
HETATM   14  C7  UNL     1       8.652   8.924   5.133  1.00  0.00     0.046 C 
BRANCH  14  15
HETATM   15  C8  UNL     1       7.602   9.933   5.523  1.00  0.00     0.169 C 
BRANCH  15  16
HETATM   16  O1  UNL     1       6.373   9.366   5.159  1.00  0.00    -0.386 OA
BRANCH  16  17
HETATM   17  C9  UNL     1       5.373  10.291   5.019  1.00  0.00     0.121 A 
HETATM   18  C10 UNL     1       4.459   9.980   3.812  1.00  0.00     0.034 A 
HETATM   19  C11 UNL     1       3.956  10.011   5.240  1.00  0.00     0.034 A 
ENDBRANCH  16  17
ENDBRANCH  15  16
ENDBRANCH  14  15
ENDBRANCH  13  14
ENDBRANCH  12  13
BRANCH   3  20
HETATM   20  C2  UNL     1      13.183   7.676   2.711  1.00  0.00     0.172 C 
HETATM   21  S1  UNL     1      13.758   7.303   4.179  1.00  0.00    -0.074 SA
ENDBRANCH   3  20
TORSDOF 6
ENDMDL
