MODEL 1
REMARK VINA RESULT: -9.141772946      0.000      0.000
REMARK  8 active torsions:
REMARK  status: ('A' for Active; 'I' for Inactive)
REMARK    1  A    between atoms: C2_2  and  C3_3 
REMARK    2  A    between atoms: C3_3  and  N1_4 
REMARK    3  A    between atoms: N1_4  and  C4_5 
REMARK       I    between atoms: N1_4  and  C9_13 
REMARK    4  A    between atoms: C4_5  and  C5_6 
REMARK       I    between atoms: C5_6  and  N2_8 
REMARK    5  A    between atoms: N2_8  and  C6_10 
REMARK       I    between atoms: C9_13  and  N3_15 
REMARK    6  A    between atoms: N3_15  and  C10_17 
REMARK    7  A    between atoms: C10_17  and  C11_18 
REMARK       I    between atoms: N4_21  and  C14_22 
REMARK    8  A    between atoms: C14_22  and  C15_24 
ROOT
HETATM    1  C10 UNL     1      12.890   8.995   1.019  1.00  0.00     0.130 C 
ENDROOT
BRANCH   1   2
HETATM    2  N3  UNL     1      14.282   8.850   0.678  1.00  0.00    -0.343 N 
HETATM    3  C9  UNL     1      14.972   9.879  -0.006  1.00  0.00     0.318 C 
HETATM    4  N1  UNL     1      16.331   9.768  -0.327  1.00  0.00    -0.326 N 
HETATM    5  O2  UNL     1      14.360  10.912  -0.328  1.00  0.00    -0.247 OA
ATOM      6  H3  UNL     1      14.776   7.995   0.932  1.00  0.00     0.164 HD
BRANCH   4   7
HETATM    7  C3  UNL     1      17.101   8.610   0.047  1.00  0.00     0.127 C 
BRANCH   7   8
HETATM    8  C2  UNL     1      17.850   8.730   1.331  1.00  0.00     0.015 C 
HETATM    9  C1  UNL     1      17.190   7.827   2.385  1.00  0.00     0.006 C 
ENDBRANCH   7   8
ENDBRANCH   4   7
BRANCH   4  10
HETATM   10  C4  UNL     1      16.978  10.863  -1.064  1.00  0.00     0.230 C 
BRANCH  10  11
HETATM   11  C5  UNL     1      17.333  10.435  -2.436  1.00  0.00     0.235 C 
HETATM   12  O1  UNL     1      18.528  10.509  -2.805  1.00  0.00    -0.272 OA
HETATM   13  N2  UNL     1      16.375   9.942  -3.358  1.00  0.00    -0.355 N 
ATOM     14  H2  UNL     1      15.400   9.878  -3.067  1.00  0.00     0.162 HD
BRANCH  13  15
HETATM   15  C6  UNL     1      16.728   9.532  -4.680  1.00  0.00     0.084 A 
HETATM   16  C7  UNL     1      15.969   9.976  -5.872  1.00  0.00     0.027 A 
HETATM   17  C8  UNL     1      15.816   8.562  -5.346  1.00  0.00     0.027 A 
ENDBRANCH  13  15
ENDBRANCH  10  11
ENDBRANCH   4  10
ENDBRANCH   1   2
BRANCH   1  18
HETATM   18  C11 UNL     1      12.619   9.043   2.474  1.00  0.00     0.014 C 
HETATM   19  C12 UNL     1      11.930   7.711   2.828  1.00  0.00     0.027 C 
HETATM   20  C13 UNL     1      10.605   7.562   2.154  1.00  0.00     0.126 C 
HETATM   21  N4  UNL     1       9.785   8.729   2.402  1.00  0.00    -0.351 N 
HETATM   22  C14 UNL     1       8.460   8.595   2.862  1.00  0.00     0.224 C 
HETATM   23  C20 UNL     1      10.346  10.035   2.173  1.00  0.00     0.135 C 
HETATM   24  O3  UNL     1       8.010   7.443   3.075  1.00  0.00    -0.273 OA
HETATM   25  C21 UNL     1      11.672  10.119   2.929  1.00  0.00    -0.026 C 
HETATM   26  C22 UNL     1      11.330   9.805   4.384  1.00  0.00     0.017 C 
HETATM   27  C23 UNL     1      12.217  11.495   2.845  1.00  0.00     0.017 C 
BRANCH  22  28
HETATM   28  C15 UNL     1       7.614   9.754   3.088  1.00  0.00     0.082 C 
HETATM   29  C16 UNL     1       6.653  10.088   1.980  1.00  0.00     0.040 C 
HETATM   30  C17 UNL     1       5.210   9.802   2.335  1.00  0.00     0.168 C 
HETATM   31  O4  UNL     1       4.783  10.561   3.418  1.00  0.00    -0.391 OA
HETATM   32  C18 UNL     1       5.805  10.801   4.330  1.00  0.00     0.168 C 
HETATM   33  C19 UNL     1       6.791   9.635   4.368  1.00  0.00     0.040 C 
ENDBRANCH  22  28
ENDBRANCH   1  18
TORSDOF 8
ENDMDL
MODEL 2
REMARK VINA RESULT: -8.956233165      1.309      2.092
REMARK  8 active torsions:
REMARK  status: ('A' for Active; 'I' for Inactive)
REMARK    1  A    between atoms: C2_2  and  C3_3 
REMARK    2  A    between atoms: C3_3  and  N1_4 
REMARK    3  A    between atoms: N1_4  and  C4_5 
REMARK       I    between atoms: N1_4  and  C9_13 
REMARK    4  A    between atoms: C4_5  and  C5_6 
REMARK       I    between atoms: C5_6  and  N2_8 
REMARK    5  A    between atoms: N2_8  and  C6_10 
REMARK       I    between atoms: C9_13  and  N3_15 
REMARK    6  A    between atoms: N3_15  and  C10_17 
REMARK    7  A    between atoms: C10_17  and  C11_18 
REMARK       I    between atoms: N4_21  and  C14_22 
REMARK    8  A    between atoms: C14_22  and  C15_24 
ROOT
HETATM    1  C10 UNL     1      12.697   8.843   0.787  1.00  0.00     0.130 C 
ENDROOT
BRANCH   1   2
HETATM    2  N3  UNL     1      13.264   9.996   0.134  1.00  0.00    -0.343 N 
HETATM    3  C9  UNL     1      14.655  10.082  -0.104  1.00  0.00     0.318 C 
HETATM    4  N1  UNL     1      15.224  11.183  -0.757  1.00  0.00    -0.326 N 
HETATM    5  O2  UNL     1      15.396   9.156   0.271  1.00  0.00    -0.247 OA
ATOM      6  H3  UNL     1      12.654  10.759  -0.160  1.00  0.00     0.164 HD
BRANCH   4   7
HETATM    7  C3  UNL     1      14.416  12.271  -1.244  1.00  0.00     0.127 C 
BRANCH   7   8
HETATM    8  C2  UNL     1      14.439  13.505  -0.407  1.00  0.00     0.015 C 
HETATM    9  C1  UNL     1      12.995  13.939  -0.111  1.00  0.00     0.006 C 
ENDBRANCH   7   8
ENDBRANCH   4   7
BRANCH   4  10
HETATM   10  C4  UNL     1      16.681  11.220  -0.947  1.00  0.00     0.230 C 
BRANCH  10  11
HETATM   11  C5  UNL     1      17.068  10.509  -2.187  1.00  0.00     0.235 C 
HETATM   12  O1  UNL     1      18.196  10.728  -2.685  1.00  0.00    -0.272 OA
HETATM   13  N2  UNL     1      16.213   9.585  -2.840  1.00  0.00    -0.355 N 
ATOM     14  H2  UNL     1      15.293   9.401  -2.442  1.00  0.00     0.162 HD
BRANCH  13  15
HETATM   15  C6  UNL     1      16.596   8.904  -4.036  1.00  0.00     0.084 A 
HETATM   16  C7  UNL     1      16.194   9.383  -5.379  1.00  0.00     0.027 A 
HETATM   17  C8  UNL     1      15.522   8.172  -4.762  1.00  0.00     0.027 A 
ENDBRANCH  13  15
ENDBRANCH  10  11
ENDBRANCH   4  10
ENDBRANCH   1   2
BRANCH   1  18
HETATM   18  C11 UNL     1      12.577   8.970   2.257  1.00  0.00     0.014 C 
HETATM   19  C12 UNL     1      11.938   7.658   2.753  1.00  0.00     0.027 C 
HETATM   20  C13 UNL     1      10.553   7.470   2.229  1.00  0.00     0.126 C 
HETATM   21  N4  UNL     1       9.754   8.646   2.496  1.00  0.00    -0.351 N 
HETATM   22  C14 UNL     1       8.484   8.536   3.098  1.00  0.00     0.224 C 
HETATM   23  C20 UNL     1      10.278   9.940   2.140  1.00  0.00     0.135 C 
HETATM   24  O3  UNL     1       8.068   7.396   3.419  1.00  0.00    -0.273 OA
HETATM   25  C21 UNL     1      11.674  10.068   2.749  1.00  0.00    -0.026 C 
HETATM   26  C22 UNL     1      11.487   9.834   4.247  1.00  0.00     0.017 C 
HETATM   27  C23 UNL     1      12.197  11.438   2.534  1.00  0.00     0.017 C 
BRANCH  22  28
HETATM   28  C15 UNL     1       7.658   9.703   3.347  1.00  0.00     0.082 C 
HETATM   29  C16 UNL     1       6.722  10.092   2.235  1.00  0.00     0.040 C 
HETATM   30  C17 UNL     1       5.268   9.823   2.557  1.00  0.00     0.168 C 
HETATM   31  O4  UNL     1       4.837  10.556   3.657  1.00  0.00    -0.391 OA
HETATM   32  C18 UNL     1       5.848  10.747   4.593  1.00  0.00     0.168 C 
HETATM   33  C19 UNL     1       6.810   9.561   4.609  1.00  0.00     0.040 C 
ENDBRANCH  22  28
ENDBRANCH   1  18
TORSDOF 8
ENDMDL
MODEL 3
REMARK VINA RESULT: -8.828247252      1.259      1.552
REMARK  8 active torsions:
REMARK  status: ('A' for Active; 'I' for Inactive)
REMARK    1  A    between atoms: C2_2  and  C3_3 
REMARK    2  A    between atoms: C3_3  and  N1_4 
REMARK    3  A    between atoms: N1_4  and  C4_5 
REMARK       I    between atoms: N1_4  and  C9_13 
REMARK    4  A    between atoms: C4_5  and  C5_6 
REMARK       I    between atoms: C5_6  and  N2_8 
REMARK    5  A    between atoms: N2_8  and  C6_10 
REMARK       I    between atoms: C9_13  and  N3_15 
REMARK    6  A    between atoms: N3_15  and  C10_17 
REMARK    7  A    between atoms: C10_17  and  C11_18 
REMARK       I    between atoms: N4_21  and  C14_22 
REMARK    8  A    between atoms: C14_22  and  C15_24 
ROOT
HETATM    1  C10 UNL     1      12.972   9.880   2.200  1.00  0.00     0.130 C 
ENDROOT
BRANCH   1   2
HETATM    2  N3  UNL     1      14.195   9.475   1.556  1.00  0.00    -0.343 N 
HETATM    3  C9  UNL     1      14.891  10.361   0.700  1.00  0.00     0.318 C 
HETATM    4  N1  UNL     1      16.094   9.995   0.082  1.00  0.00    -0.326 N 
HETATM    5  O2  UNL     1      14.429  11.497   0.493  1.00  0.00    -0.247 OA
ATOM      6  H3  UNL     1      14.564   8.538   1.718  1.00  0.00     0.164 HD
BRANCH   4   7
HETATM    7  C3  UNL     1      16.697   8.707   0.308  1.00  0.00     0.127 C 
BRANCH   7   8
HETATM    8  C2  UNL     1      17.714   8.662   1.397  1.00  0.00     0.015 C 
HETATM    9  C1  UNL     1      17.163   7.832   2.567  1.00  0.00     0.006 C 
ENDBRANCH   7   8
ENDBRANCH   4   7
BRANCH   4  10
HETATM   10  C4  UNL     1      16.750  10.955  -0.817  1.00  0.00     0.230 C 
BRANCH  10  11
HETATM   11  C5  UNL     1      17.161  10.297  -2.079  1.00  0.00     0.235 C 
HETATM   12  O1  UNL     1      18.379  10.248  -2.369  1.00  0.00    -0.272 OA
HETATM   13  N2  UNL     1      16.232   9.716  -2.978  1.00  0.00    -0.355 N 
ATOM     14  H2  UNL     1      15.239   9.752  -2.750  1.00  0.00     0.162 HD
BRANCH  13  15
HETATM   15  C6  UNL     1      16.638   9.084  -4.193  1.00  0.00     0.084 A 
HETATM   16  C7  UNL     1      16.196   9.569  -5.521  1.00  0.00     0.027 A 
HETATM   17  C8  UNL     1      15.598   8.310  -4.925  1.00  0.00     0.027 A 
ENDBRANCH  13  15
ENDBRANCH  10  11
ENDBRANCH   4  10
ENDBRANCH   1   2
BRANCH   1  18
HETATM   18  C11 UNL     1      12.042   8.768   2.501  1.00  0.00     0.014 C 
HETATM   19  C12 UNL     1      11.550   8.237   1.140  1.00  0.00     0.027 C 
HETATM   20  C13 UNL     1      10.762   9.257   0.386  1.00  0.00     0.126 C 
HETATM   21  N4  UNL     1       9.708   9.791   1.221  1.00  0.00    -0.351 N 
HETATM   22  C14 UNL     1       8.379   9.856   0.754  1.00  0.00     0.224 C 
HETATM   23  C20 UNL     1      10.035  10.255   2.544  1.00  0.00     0.135 C 
HETATM   24  O3  UNL     1       8.124   9.419  -0.395  1.00  0.00    -0.273 OA
HETATM   25  C21 UNL     1      10.798   9.141   3.260  1.00  0.00    -0.026 C 
HETATM   26  C22 UNL     1       9.880   7.921   3.209  1.00  0.00     0.017 C 
HETATM   27  C23 UNL     1      11.030   9.514   4.676  1.00  0.00     0.017 C 
BRANCH  22  28
HETATM   28  C15 UNL     1       7.315  10.414   1.567  1.00  0.00     0.082 C 
HETATM   29  C16 UNL     1       6.169  11.030   0.812  1.00  0.00     0.040 C 
HETATM   30  C17 UNL     1       4.895  10.217   0.894  1.00  0.00     0.168 C 
HETATM   31  O4  UNL     1       4.437  10.101   2.201  1.00  0.00    -0.391 OA
HETATM   32  C18 UNL     1       5.479  10.062   3.123  1.00  0.00     0.168 C 
HETATM   33  C19 UNL     1       6.714   9.390   2.527  1.00  0.00     0.040 C 
ENDBRANCH  22  28
ENDBRANCH   1  18
TORSDOF 8
ENDMDL
MODEL 4
REMARK VINA RESULT: -8.720895799      1.197      1.440
REMARK  8 active torsions:
REMARK  status: ('A' for Active; 'I' for Inactive)
REMARK    1  A    between atoms: C2_2  and  C3_3 
REMARK    2  A    between atoms: C3_3  and  N1_4 
REMARK    3  A    between atoms: N1_4  and  C4_5 
REMARK       I    between atoms: N1_4  and  C9_13 
REMARK    4  A    between atoms: C4_5  and  C5_6 
REMARK       I    between atoms: C5_6  and  N2_8 
REMARK    5  A    between atoms: N2_8  and  C6_10 
REMARK       I    between atoms: C9_13  and  N3_15 
REMARK    6  A    between atoms: N3_15  and  C10_17 
REMARK    7  A    between atoms: C10_17  and  C11_18 
REMARK       I    between atoms: N4_21  and  C14_22 
REMARK    8  A    between atoms: C14_22  and  C15_24 
ROOT
HETATM    1  C10 UNL     1      12.708   8.818   1.062  1.00  0.00     0.130 C 
ENDROOT
BRANCH   1   2
HETATM    2  N3  UNL     1      13.968   9.379   0.645  1.00  0.00    -0.343 N 
HETATM    3  C9  UNL     1      14.018  10.400  -0.333  1.00  0.00     0.318 C 
HETATM    4  N1  UNL     1      15.230  10.976  -0.736  1.00  0.00    -0.326 N 
HETATM    5  O2  UNL     1      12.960  10.803  -0.847  1.00  0.00    -0.247 OA
ATOM      6  H3  UNL     1      14.834   9.036   1.060  1.00  0.00     0.164 HD
BRANCH   4   7
HETATM    7  C3  UNL     1      16.485  10.575  -0.154  1.00  0.00     0.127 C 
BRANCH   7   8
HETATM    8  C2  UNL     1      17.075   9.324  -0.711  1.00  0.00     0.015 C 
HETATM    9  C1  UNL     1      17.372   8.351   0.441  1.00  0.00     0.006 C 
ENDBRANCH   7   8
ENDBRANCH   4   7
BRANCH   4  10
HETATM   10  C4  UNL     1      15.211  12.013  -1.777  1.00  0.00     0.230 C 
BRANCH  10  11
HETATM   11  C5  UNL     1      14.906  11.423  -3.101  1.00  0.00     0.235 C 
HETATM   12  O1  UNL     1      14.043  11.970  -3.825  1.00  0.00    -0.272 OA
HETATM   13  N2  UNL     1      15.552  10.258  -3.589  1.00  0.00    -0.355 N 
ATOM     14  H2  UNL     1      16.256   9.806  -3.006  1.00  0.00     0.162 HD
BRANCH  13  15
HETATM   15  C6  UNL     1      15.251   9.697  -4.867  1.00  0.00     0.084 A 
HETATM   16  C7  UNL     1      15.675   8.329  -5.247  1.00  0.00     0.027 A 
HETATM   17  C8  UNL     1      16.389   9.541  -5.815  1.00  0.00     0.027 A 
ENDBRANCH  13  15
ENDBRANCH  10  11
ENDBRANCH   4  10
ENDBRANCH   1   2
BRANCH   1  18
HETATM   18  C11 UNL     1      12.453   8.902   2.518  1.00  0.00     0.014 C 
HETATM   19  C12 UNL     1      11.741   7.593   2.908  1.00  0.00     0.027 C 
HETATM   20  C13 UNL     1      10.407   7.456   2.250  1.00  0.00     0.126 C 
HETATM   21  N4  UNL     1       9.613   8.644   2.480  1.00  0.00    -0.351 N 
HETATM   22  C14 UNL     1       8.290   8.548   2.956  1.00  0.00     0.224 C 
HETATM   23  C20 UNL     1      10.198   9.934   2.218  1.00  0.00     0.135 C 
HETATM   24  O3  UNL     1       7.820   7.410   3.199  1.00  0.00    -0.273 OA
HETATM   25  C21 UNL     1      11.533  10.007   2.958  1.00  0.00    -0.026 C 
HETATM   26  C22 UNL     1      11.199   9.732   4.424  1.00  0.00     0.017 C 
HETATM   27  C23 UNL     1      12.104  11.369   2.839  1.00  0.00     0.017 C 
BRANCH  22  28
HETATM   28  C15 UNL     1       7.471   9.728   3.165  1.00  0.00     0.082 C 
HETATM   29  C16 UNL     1       6.468  10.028   2.084  1.00  0.00     0.040 C 
HETATM   30  C17 UNL     1       5.037   9.779   2.512  1.00  0.00     0.168 C 
HETATM   31  O4  UNL     1       4.666  10.593   3.576  1.00  0.00    -0.391 OA
HETATM   32  C18 UNL     1       5.730  10.857   4.433  1.00  0.00     0.168 C 
HETATM   33  C19 UNL     1       6.701   9.679   4.482  1.00  0.00     0.040 C 
ENDBRANCH  22  28
ENDBRANCH   1  18
TORSDOF 8
ENDMDL
MODEL 5
REMARK VINA RESULT: -8.696662891      1.084      1.264
REMARK  8 active torsions:
REMARK  status: ('A' for Active; 'I' for Inactive)
REMARK    1  A    between atoms: C2_2  and  C3_3 
REMARK    2  A    between atoms: C3_3  and  N1_4 
REMARK    3  A    between atoms: N1_4  and  C4_5 
REMARK       I    between atoms: N1_4  and  C9_13 
REMARK    4  A    between atoms: C4_5  and  C5_6 
REMARK       I    between atoms: C5_6  and  N2_8 
REMARK    5  A    between atoms: N2_8  and  C6_10 
REMARK       I    between atoms: C9_13  and  N3_15 
REMARK    6  A    between atoms: N3_15  and  C10_17 
REMARK    7  A    between atoms: C10_17  and  C11_18 
REMARK       I    between atoms: N4_21  and  C14_22 
REMARK    8  A    between atoms: C14_22  and  C15_24 
ROOT
HETATM    1  C10 UNL     1      13.049   9.887   1.586  1.00  0.00     0.130 C 
ENDROOT
BRANCH   1   2
HETATM    2  N3  UNL     1      14.349   9.555   1.060  1.00  0.00    -0.343 N 
HETATM    3  C9  UNL     1      15.050  10.465   0.234  1.00  0.00     0.318 C 
HETATM    4  N1  UNL     1      16.324  10.172  -0.269  1.00  0.00    -0.326 N 
HETATM    5  O2  UNL     1      14.526  11.556  -0.052  1.00  0.00    -0.247 OA
ATOM      6  H3  UNL     1      14.769   8.654   1.286  1.00  0.00     0.164 HD
BRANCH   4   7
HETATM    7  C3  UNL     1      16.997   8.940   0.052  1.00  0.00     0.127 C 
BRANCH   7   8
HETATM    8  C2  UNL     1      17.818   8.968   1.297  1.00  0.00     0.015 C 
HETATM    9  C1  UNL     1      17.296   7.897   2.268  1.00  0.00     0.006 C 
ENDBRANCH   7   8
ENDBRANCH   4   7
BRANCH   4  10
HETATM   10  C4  UNL     1      16.983  11.151  -1.145  1.00  0.00     0.230 C 
BRANCH  10  11
HETATM   11  C5  UNL     1      17.343  10.537  -2.444  1.00  0.00     0.235 C 
HETATM   12  O1  UNL     1      18.547  10.501  -2.785  1.00  0.00    -0.272 OA
HETATM   13  N2  UNL     1      16.378   9.983  -3.323  1.00  0.00    -0.355 N 
ATOM     14  H2  UNL     1      15.395  10.008  -3.052  1.00  0.00     0.162 HD
BRANCH  13  15
HETATM   15  C6  UNL     1      16.734   9.392  -4.573  1.00  0.00     0.084 A 
HETATM   16  C7  UNL     1      16.091   9.792  -5.846  1.00  0.00     0.027 A 
HETATM   17  C8  UNL     1      15.738   8.472  -5.188  1.00  0.00     0.027 A 
ENDBRANCH  13  15
ENDBRANCH  10  11
ENDBRANCH   4  10
ENDBRANCH   1   2
BRANCH   1  18
HETATM   18  C11 UNL     1      12.317   8.742   2.173  1.00  0.00     0.014 C 
HETATM   19  C12 UNL     1      11.321   8.270   1.096  1.00  0.00     0.027 C 
HETATM   20  C13 UNL     1      10.298   9.309   0.777  1.00  0.00     0.126 C 
HETATM   21  N4  UNL     1       9.666   9.778   1.992  1.00  0.00    -0.351 N 
HETATM   22  C14 UNL     1       8.262   9.838   2.099  1.00  0.00     0.224 C 
HETATM   23  C20 UNL     1      10.497  10.181   3.097  1.00  0.00     0.135 C 
HETATM   24  O3  UNL     1       7.568   9.455   1.127  1.00  0.00    -0.273 OA
HETATM   25  C21 UNL     1      11.482   9.049   3.385  1.00  0.00    -0.026 C 
HETATM   26  C22 UNL     1      10.619   7.814   3.639  1.00  0.00     0.017 C 
HETATM   27  C23 UNL     1      12.262   9.355   4.608  1.00  0.00     0.017 C 
BRANCH  22  28
HETATM   28  C15 UNL     1       7.613  10.332   3.300  1.00  0.00     0.082 C 
HETATM   29  C16 UNL     1       6.266  10.970   3.100  1.00  0.00     0.040 C 
HETATM   30  C17 UNL     1       5.124  10.132   3.635  1.00  0.00     0.168 C 
HETATM   31  O4  UNL     1       5.224   9.935   5.007  1.00  0.00    -0.391 OA
HETATM   32  C18 UNL     1       6.546   9.863   5.434  1.00  0.00     0.168 C 
HETATM   33  C19 UNL     1       7.437   9.246   4.358  1.00  0.00     0.040 C 
ENDBRANCH  22  28
ENDBRANCH   1  18
TORSDOF 8
ENDMDL
