MODEL 1
REMARK VINA RESULT: -9.989659542      0.000      0.000
REMARK  8 active torsions:
REMARK  status: ('A' for Active; 'I' for Inactive)
REMARK       I    between atoms: C2_2  and  N1_4 
REMARK    1  A    between atoms: N1_4  and  C3_6 
REMARK    2  A    between atoms: C3_6  and  C4_7 
REMARK    3  A    between atoms: C3_6  and  C13_18 
REMARK    4  A    between atoms: C4_7  and  C5_8 
REMARK    5  A    between atoms: C5_8  and  C6_9 
REMARK       I    between atoms: C6_9  and  N2_11 
REMARK       I    between atoms: C13_18  and  N3_20 
REMARK    6  A    between atoms: N3_20  and  C14_22 
REMARK    7  A    between atoms: C14_22  and  C15_23 
REMARK    8  A    between atoms: C15_23  and  N4_24 
ROOT
HETATM    1  C3  UNL     1      13.903   9.451   2.082  1.00  0.00     0.177 C 
ENDROOT
BRANCH   1   2
HETATM    2  N1  UNL     1      14.937   8.951   2.957  1.00  0.00    -0.348 N 
HETATM    3  C2  UNL     1      14.935   7.686   3.552  1.00  0.00     0.214 C 
HETATM    4  C1  UNL     1      16.056   7.283   4.437  1.00  0.00     0.117 C 
HETATM    5  O1  UNL     1      14.007   6.842   3.374  1.00  0.00    -0.274 OA
ATOM      6  H1  UNL     1      15.727   9.565   3.156  1.00  0.00     0.163 HD
ENDBRANCH   1   2
BRANCH   1   7
HETATM    7  C4  UNL     1      14.451  10.453   1.087  1.00  0.00     0.044 C 
BRANCH   7   8
HETATM    8  C5  UNL     1      14.699   9.803  -0.244  1.00  0.00     0.105 C 
BRANCH   8   9
HETATM    9  C6  UNL     1      16.037  10.102  -0.787  1.00  0.00     0.220 C 
HETATM   10  O2  UNL     1      16.937  10.388   0.047  1.00  0.00    -0.273 OA
HETATM   11  N2  UNL     1      16.338  10.079  -2.169  1.00  0.00    -0.348 N 
HETATM   12  C7  UNL     1      17.670  10.365  -2.612  1.00  0.00     0.126 C 
HETATM   13  C11 UNL     1      15.302   9.780  -3.119  1.00  0.00     0.083 C 
HETATM   14  C8  UNL     1      18.045   9.546  -3.811  1.00  0.00     0.020 C 
HETATM   15  C9  UNL     1      16.964   9.487  -4.856  1.00  0.00     0.004 C 
HETATM   16  C10 UNL     1      15.749   8.851  -4.213  1.00  0.00     0.025 C 
HETATM   17  C12 UNL     1      14.652  11.027  -3.682  1.00  0.00     0.032 C 
ENDBRANCH   8   9
ENDBRANCH   7   8
ENDBRANCH   1   7
BRANCH   1  18
HETATM   18  C13 UNL     1      12.793  10.053   2.890  1.00  0.00     0.240 C 
HETATM   19  O3  UNL     1      12.665  11.305   2.982  1.00  0.00    -0.271 OA
HETATM   20  N3  UNL     1      11.856   9.239   3.574  1.00  0.00    -0.358 N 
ATOM     21  H3  UNL     1      11.971   8.229   3.494  1.00  0.00     0.162 HD
BRANCH  20  22
HETATM   22  C14 UNL     1      10.755   9.713   4.371  1.00  0.00     0.150 C 
BRANCH  22  23
HETATM   23  C15 UNL     1       9.469   9.867   3.667  1.00  0.00     0.257 C 
BRANCH  23  24
HETATM   24  N4  UNL     1       8.431   8.942   3.888  1.00  0.00    -0.065 N 
HETATM   25  C16 UNL     1       8.609   7.593   3.462  1.00  0.00     0.273 C 
HETATM   26  C17 UNL     1       8.192   8.871   5.351  1.00  0.00     0.238 C 
HETATM   27  C18 UNL     1       7.281  10.067   5.644  1.00  0.00     0.034 C 
HETATM   28  C19 UNL     1       6.792  10.529   4.320  1.00  0.00     0.018 C 
HETATM   29  C20 UNL     1       5.287  10.684   4.216  1.00  0.00     0.007 C 
HETATM   30  C24 UNL     1       7.134   9.367   3.416  1.00  0.00     0.194 C 
HETATM   31  C21 UNL     1       4.742  10.010   2.999  1.00  0.00     0.001 C 
HETATM   32  C22 UNL     1       5.574  10.143   1.760  1.00  0.00     0.002 C 
HETATM   33  C23 UNL     1       7.058   9.828   2.010  1.00  0.00     0.034 C 
ENDBRANCH  23  24
ENDBRANCH  22  23
ENDBRANCH  20  22
ENDBRANCH   1  18
TORSDOF 8
ENDMDL
MODEL 2
REMARK VINA RESULT: -9.938793132      1.461      2.164
REMARK  8 active torsions:
REMARK  status: ('A' for Active; 'I' for Inactive)
REMARK       I    between atoms: C2_2  and  N1_4 
REMARK    1  A    between atoms: N1_4  and  C3_6 
REMARK    2  A    between atoms: C3_6  and  C4_7 
REMARK    3  A    between atoms: C3_6  and  C13_18 
REMARK    4  A    between atoms: C4_7  and  C5_8 
REMARK    5  A    between atoms: C5_8  and  C6_9 
REMARK       I    between atoms: C6_9  and  N2_11 
REMARK       I    between atoms: C13_18  and  N3_20 
REMARK    6  A    between atoms: N3_20  and  C14_22 
REMARK    7  A    between atoms: C14_22  and  C15_23 
REMARK    8  A    between atoms: C15_23  and  N4_24 
ROOT
HETATM    1  C3  UNL     1      14.362   8.669   1.962  1.00  0.00     0.177 C 
ENDROOT
BRANCH   1   2
HETATM    2  N1  UNL     1      14.498   9.279   3.264  1.00  0.00    -0.348 N 
HETATM    3  C2  UNL     1      14.284   8.622   4.478  1.00  0.00     0.214 C 
HETATM    4  C1  UNL     1      14.453   9.357   5.756  1.00  0.00     0.117 C 
HETATM    5  O1  UNL     1      13.946   7.403   4.553  1.00  0.00    -0.274 OA
ATOM      6  H1  UNL     1      14.769  10.262   3.300  1.00  0.00     0.163 HD
ENDBRANCH   1   2
BRANCH   1   7
HETATM    7  C4  UNL     1      15.251   9.340   0.936  1.00  0.00     0.044 C 
BRANCH   7   8
HETATM    8  C5  UNL     1      15.959   8.318   0.093  1.00  0.00     0.105 C 
BRANCH   8   9
HETATM    9  C6  UNL     1      17.094   8.884  -0.660  1.00  0.00     0.220 C 
HETATM   10  O2  UNL     1      18.188   8.990  -0.044  1.00  0.00    -0.273 OA
HETATM   11  N2  UNL     1      17.002   9.301  -2.009  1.00  0.00    -0.348 N 
HETATM   12  C7  UNL     1      18.158   9.825  -2.673  1.00  0.00     0.126 C 
HETATM   13  C11 UNL     1      15.745   9.206  -2.700  1.00  0.00     0.083 C 
HETATM   14  C8  UNL     1      18.192   9.437  -4.121  1.00  0.00     0.020 C 
HETATM   15  C9  UNL     1      16.865   9.594  -4.811  1.00  0.00     0.004 C 
HETATM   16  C10 UNL     1      15.877   8.689  -4.105  1.00  0.00     0.025 C 
HETATM   17  C12 UNL     1      14.959  10.500  -2.657  1.00  0.00     0.032 C 
ENDBRANCH   8   9
ENDBRANCH   7   8
ENDBRANCH   1   7
BRANCH   1  18
HETATM   18  C13 UNL     1      12.927   8.698   1.527  1.00  0.00     0.240 C 
HETATM   19  O3  UNL     1      12.524   9.549   0.688  1.00  0.00    -0.271 OA
HETATM   20  N3  UNL     1      11.983   7.776   2.043  1.00  0.00    -0.358 N 
ATOM     21  H3  UNL     1      12.321   7.095   2.722  1.00  0.00     0.162 HD
BRANCH  20  22
HETATM   22  C14 UNL     1      10.589   7.717   1.691  1.00  0.00     0.150 C 
BRANCH  22  23
HETATM   23  C15 UNL     1       9.645   8.190   2.720  1.00  0.00     0.257 C 
BRANCH  23  24
HETATM   24  N4  UNL     1       9.374   9.566   2.849  1.00  0.00    -0.065 N 
HETATM   25  C16 UNL     1      10.345  10.401   3.475  1.00  0.00     0.273 C 
HETATM   26  C17 UNL     1       9.189  10.120   1.485  1.00  0.00     0.238 C 
HETATM   27  C18 UNL     1       7.732   9.798   1.141  1.00  0.00     0.034 C 
HETATM   28  C19 UNL     1       7.098   9.399   2.423  1.00  0.00     0.018 C 
HETATM   29  C20 UNL     1       5.811  10.130   2.752  1.00  0.00     0.007 C 
HETATM   30  C24 UNL     1       8.099   9.876   3.450  1.00  0.00     0.194 C 
HETATM   31  C21 UNL     1       5.820  10.670   4.145  1.00  0.00     0.001 C 
HETATM   32  C22 UNL     1       6.432   9.777   5.181  1.00  0.00     0.002 C 
HETATM   33  C23 UNL     1       7.796   9.217   4.742  1.00  0.00     0.034 C 
ENDBRANCH  23  24
ENDBRANCH  22  23
ENDBRANCH  20  22
ENDBRANCH   1  18
TORSDOF 8
ENDMDL
MODEL 3
REMARK VINA RESULT: -9.925761957      1.554      2.570
REMARK  8 active torsions:
REMARK  status: ('A' for Active; 'I' for Inactive)
REMARK       I    between atoms: C2_2  and  N1_4 
REMARK    1  A    between atoms: N1_4  and  C3_6 
REMARK    2  A    between atoms: C3_6  and  C4_7 
REMARK    3  A    between atoms: C3_6  and  C13_18 
REMARK    4  A    between atoms: C4_7  and  C5_8 
REMARK    5  A    between atoms: C5_8  and  C6_9 
REMARK       I    between atoms: C6_9  and  N2_11 
REMARK       I    between atoms: C13_18  and  N3_20 
REMARK    6  A    between atoms: N3_20  and  C14_22 
REMARK    7  A    between atoms: C14_22  and  C15_23 
REMARK    8  A    between atoms: C15_23  and  N4_24 
ROOT
HETATM    1  C3  UNL     1      13.721  10.848   1.520  1.00  0.00     0.177 C 
ENDROOT
BRANCH   1   2
HETATM    2  N1  UNL     1      13.527  11.885   0.533  1.00  0.00    -0.348 N 
HETATM    3  C2  UNL     1      13.053  13.170   0.811  1.00  0.00     0.214 C 
HETATM    4  C1  UNL     1      12.893  14.152  -0.290  1.00  0.00     0.117 C 
HETATM    5  O1  UNL     1      12.745  13.554   1.978  1.00  0.00    -0.274 OA
ATOM      6  H1  UNL     1      13.751  11.663  -0.437  1.00  0.00     0.163 HD
ENDBRANCH   1   2
BRANCH   1   7
HETATM    7  C4  UNL     1      14.910   9.973   1.182  1.00  0.00     0.044 C 
BRANCH   7   8
HETATM    8  C5  UNL     1      14.959   9.682  -0.290  1.00  0.00     0.105 C 
BRANCH   8   9
HETATM    9  C6  UNL     1      16.255  10.030  -0.901  1.00  0.00     0.220 C 
HETATM   10  O2  UNL     1      17.189  10.338  -0.114  1.00  0.00    -0.273 OA
HETATM   11  N2  UNL     1      16.480  10.032  -2.298  1.00  0.00    -0.348 N 
HETATM   12  C7  UNL     1      17.776  10.367  -2.809  1.00  0.00     0.126 C 
HETATM   13  C11 UNL     1      15.404   9.709  -3.194  1.00  0.00     0.083 C 
HETATM   14  C8  UNL     1      18.112   9.574  -4.037  1.00  0.00     0.020 C 
HETATM   15  C9  UNL     1      16.978   9.491  -5.022  1.00  0.00     0.004 C 
HETATM   16  C10 UNL     1      15.821   8.808  -4.322  1.00  0.00     0.025 C 
HETATM   17  C12 UNL     1      14.684  10.940  -3.705  1.00  0.00     0.032 C 
ENDBRANCH   8   9
ENDBRANCH   7   8
ENDBRANCH   1   7
BRANCH   1  18
HETATM   18  C13 UNL     1      12.474  10.026   1.654  1.00  0.00     0.240 C 
HETATM   19  O3  UNL     1      11.716   9.835   0.665  1.00  0.00    -0.271 OA
HETATM   20  N3  UNL     1      12.109   9.440   2.892  1.00  0.00    -0.358 N 
ATOM     21  H3  UNL     1      12.729   9.604   3.685  1.00  0.00     0.162 HD
BRANCH  20  22
HETATM   22  C14 UNL     1      10.940   8.634   3.128  1.00  0.00     0.150 C 
BRANCH  22  23
HETATM   23  C15 UNL     1       9.805   9.320   3.772  1.00  0.00     0.257 C 
BRANCH  23  24
HETATM   24  N4  UNL     1       8.620   8.612   4.048  1.00  0.00    -0.065 N 
HETATM   25  C16 UNL     1       8.569   7.217   3.758  1.00  0.00     0.273 C 
HETATM   26  C17 UNL     1       8.352   8.729   5.503  1.00  0.00     0.238 C 
HETATM   27  C18 UNL     1       7.656  10.085   5.652  1.00  0.00     0.034 C 
HETATM   28  C19 UNL     1       7.273  10.490   4.275  1.00  0.00     0.018 C 
HETATM   29  C20 UNL     1       5.818  10.887   4.109  1.00  0.00     0.007 C 
HETATM   30  C24 UNL     1       7.423   9.202   3.497  1.00  0.00     0.194 C 
HETATM   31  C21 UNL     1       5.183  10.197   2.946  1.00  0.00     0.001 C 
HETATM   32  C22 UNL     1       6.043  10.063   1.726  1.00  0.00     0.002 C 
HETATM   33  C23 UNL     1       7.448   9.527   2.052  1.00  0.00     0.034 C 
ENDBRANCH  23  24
ENDBRANCH  22  23
ENDBRANCH  20  22
ENDBRANCH   1  18
TORSDOF 8
ENDMDL
MODEL 4
REMARK VINA RESULT: -9.906918370      1.638      2.407
REMARK  8 active torsions:
REMARK  status: ('A' for Active; 'I' for Inactive)
REMARK       I    between atoms: C2_2  and  N1_4 
REMARK    1  A    between atoms: N1_4  and  C3_6 
REMARK    2  A    between atoms: C3_6  and  C4_7 
REMARK    3  A    between atoms: C3_6  and  C13_18 
REMARK    4  A    between atoms: C4_7  and  C5_8 
REMARK    5  A    between atoms: C5_8  and  C6_9 
REMARK       I    between atoms: C6_9  and  N2_11 
REMARK       I    between atoms: C13_18  and  N3_20 
REMARK    6  A    between atoms: N3_20  and  C14_22 
REMARK    7  A    between atoms: C14_22  and  C15_23 
REMARK    8  A    between atoms: C15_23  and  N4_24 
ROOT
HETATM    1  C3  UNL     1      15.131   8.611   1.997  1.00  0.00     0.177 C 
ENDROOT
BRANCH   1   2
HETATM    2  N1  UNL     1      15.278   8.997   3.381  1.00  0.00    -0.348 N 
HETATM    3  C2  UNL     1      16.287   8.538   4.233  1.00  0.00     0.214 C 
HETATM    4  C1  UNL     1      16.334   9.006   5.641  1.00  0.00     0.117 C 
HETATM    5  O1  UNL     1      17.185   7.725   3.864  1.00  0.00    -0.274 OA
ATOM      6  H1  UNL     1      14.597   9.652   3.765  1.00  0.00     0.163 HD
ENDBRANCH   1   2
BRANCH   1   7
HETATM    7  C4  UNL     1      16.039   9.419   1.093  1.00  0.00     0.044 C 
BRANCH   7   8
HETATM    8  C5  UNL     1      16.832   8.519   0.190  1.00  0.00     0.105 C 
BRANCH   8   9
HETATM    9  C6  UNL     1      17.673   9.264  -0.765  1.00  0.00     0.220 C 
HETATM   10  O2  UNL     1      18.779   9.689  -0.337  1.00  0.00    -0.273 OA
HETATM   11  N2  UNL     1      17.295   9.512  -2.106  1.00  0.00    -0.348 N 
HETATM   12  C7  UNL     1      18.179  10.229  -2.974  1.00  0.00     0.126 C 
HETATM   13  C11 UNL     1      16.020   9.050  -2.583  1.00  0.00     0.083 C 
HETATM   14  C8  UNL     1      18.110   9.720  -4.383  1.00  0.00     0.020 C 
HETATM   15  C9  UNL     1      16.705   9.486  -4.865  1.00  0.00     0.004 C 
HETATM   16  C10 UNL     1      16.084   8.444  -3.957  1.00  0.00     0.025 C 
HETATM   17  C12 UNL     1      14.947  10.116  -2.497  1.00  0.00     0.032 C 
ENDBRANCH   8   9
ENDBRANCH   7   8
ENDBRANCH   1   7
BRANCH   1  18
HETATM   18  C13 UNL     1      13.699   8.747   1.575  1.00  0.00     0.240 C 
HETATM   19  O3  UNL     1      13.331   9.696   0.831  1.00  0.00    -0.271 OA
HETATM   20  N3  UNL     1      12.716   7.817   1.998  1.00  0.00    -0.358 N 
ATOM     21  H3  UNL     1      13.025   7.056   2.601  1.00  0.00     0.162 HD
BRANCH  20  22
HETATM   22  C14 UNL     1      11.320   7.853   1.649  1.00  0.00     0.150 C 
BRANCH  22  23
HETATM   23  C15 UNL     1      10.404   8.313   2.709  1.00  0.00     0.257 C 
BRANCH  23  24
HETATM   24  N4  UNL     1      10.015   9.665   2.766  1.00  0.00    -0.065 N 
HETATM   25  C16 UNL     1      10.944  10.627   3.258  1.00  0.00     0.273 C 
HETATM   26  C17 UNL     1       9.682  10.098   1.386  1.00  0.00     0.238 C 
HETATM   27  C18 UNL     1       8.241   9.622   1.177  1.00  0.00     0.034 C 
HETATM   28  C19 UNL     1       7.740   9.264   2.528  1.00  0.00     0.018 C 
HETATM   29  C20 UNL     1       6.415   9.899   2.906  1.00  0.00     0.007 C 
HETATM   30  C24 UNL     1       8.761   9.903   3.441  1.00  0.00     0.194 C 
HETATM   31  C21 UNL     1       6.471  10.539   4.255  1.00  0.00     0.001 C 
HETATM   32  C22 UNL     1       7.237   9.783   5.297  1.00  0.00     0.002 C 
HETATM   33  C23 UNL     1       8.614   9.316   4.794  1.00  0.00     0.034 C 
ENDBRANCH  23  24
ENDBRANCH  22  23
ENDBRANCH  20  22
ENDBRANCH   1  18
TORSDOF 8
ENDMDL
MODEL 5
REMARK VINA RESULT: -9.787167229      1.174      1.655
REMARK  8 active torsions:
REMARK  status: ('A' for Active; 'I' for Inactive)
REMARK       I    between atoms: C2_2  and  N1_4 
REMARK    1  A    between atoms: N1_4  and  C3_6 
REMARK    2  A    between atoms: C3_6  and  C4_7 
REMARK    3  A    between atoms: C3_6  and  C13_18 
REMARK    4  A    between atoms: C4_7  and  C5_8 
REMARK    5  A    between atoms: C5_8  and  C6_9 
REMARK       I    between atoms: C6_9  and  N2_11 
REMARK       I    between atoms: C13_18  and  N3_20 
REMARK    6  A    between atoms: N3_20  and  C14_22 
REMARK    7  A    between atoms: C14_22  and  C15_23 
REMARK    8  A    between atoms: C15_23  and  N4_24 
ROOT
HETATM    1  C3  UNL     1      13.589  10.301   1.395  1.00  0.00     0.177 C 
ENDROOT
BRANCH   1   2
HETATM    2  N1  UNL     1      14.880   9.892   1.897  1.00  0.00    -0.348 N 
HETATM    3  C2  UNL     1      15.239   8.573   2.190  1.00  0.00     0.214 C 
HETATM    4  C1  UNL     1      16.599   8.275   2.704  1.00  0.00     0.117 C 
HETATM    5  O1  UNL     1      14.450   7.594   2.038  1.00  0.00    -0.274 OA
ATOM      6  H1  UNL     1      15.580  10.617   2.049  1.00  0.00     0.163 HD
ENDBRANCH   1   2
BRANCH   1   7
HETATM    7  C4  UNL     1      13.684  11.579   0.588  1.00  0.00     0.044 C 
BRANCH   7   8
HETATM    8  C5  UNL     1      14.890  11.558  -0.306  1.00  0.00     0.105 C 
BRANCH   8   9
HETATM    9  C6  UNL     1      14.675  10.779  -1.540  1.00  0.00     0.220 C 
HETATM   10  O2  UNL     1      13.493  10.710  -1.969  1.00  0.00    -0.273 OA
HETATM   11  N2  UNL     1      15.718  10.125  -2.239  1.00  0.00    -0.348 N 
HETATM   12  C7  UNL     1      15.426   9.403  -3.441  1.00  0.00     0.126 C 
HETATM   13  C11 UNL     1      17.062  10.183  -1.730  1.00  0.00     0.083 C 
HETATM   14  C8  UNL     1      16.540   9.510  -4.439  1.00  0.00     0.020 C 
HETATM   15  C9  UNL     1      17.904   9.325  -3.833  1.00  0.00     0.004 C 
HETATM   16  C10 UNL     1      18.091  10.417  -2.799  1.00  0.00     0.025 C 
HETATM   17  C12 UNL     1      17.411   8.981  -0.877  1.00  0.00     0.032 C 
ENDBRANCH   8   9
ENDBRANCH   7   8
ENDBRANCH   1   7
BRANCH   1  18
HETATM   18  C13 UNL     1      12.622  10.457   2.530  1.00  0.00     0.240 C 
HETATM   19  O3  UNL     1      12.372  11.594   3.015  1.00  0.00    -0.271 OA
HETATM   20  N3  UNL     1      11.959   9.337   3.092  1.00  0.00    -0.358 N 
ATOM     21  H3  UNL     1      12.172   8.423   2.693  1.00  0.00     0.162 HD
BRANCH  20  22
HETATM   22  C14 UNL     1      11.014   9.376   4.176  1.00  0.00     0.150 C 
BRANCH  22  23
HETATM   23  C15 UNL     1       9.644   9.789   3.821  1.00  0.00     0.257 C 
BRANCH  23  24
HETATM   24  N4  UNL     1       8.570   8.898   4.006  1.00  0.00    -0.065 N 
HETATM   25  C16 UNL     1       8.726   7.540   3.603  1.00  0.00     0.273 C 
HETATM   26  C17 UNL     1       8.266   8.853   5.458  1.00  0.00     0.238 C 
HETATM   27  C18 UNL     1       7.379  10.077   5.698  1.00  0.00     0.034 C 
HETATM   28  C19 UNL     1       6.962  10.538   4.349  1.00  0.00     0.018 C 
HETATM   29  C20 UNL     1       5.468  10.736   4.176  1.00  0.00     0.007 C 
HETATM   30  C24 UNL     1       7.308   9.355   3.473  1.00  0.00     0.194 C 
HETATM   31  C21 UNL     1       4.957  10.063   2.944  1.00  0.00     0.001 C 
HETATM   32  C22 UNL     1       5.846  10.156   1.741  1.00  0.00     0.002 C 
HETATM   33  C23 UNL     1       7.308   9.802   2.060  1.00  0.00     0.034 C 
ENDBRANCH  23  24
ENDBRANCH  22  23
ENDBRANCH  20  22
ENDBRANCH   1  18
TORSDOF 8
ENDMDL
