MODEL 1
REMARK VINA RESULT: -8.853535140      0.000      0.000
REMARK  8 active torsions:
REMARK  status: ('A' for Active; 'I' for Inactive)
REMARK       I    between atoms: C2_2  and  N1_4 
REMARK    1  A    between atoms: N1_4  and  C3_6 
REMARK    2  A    between atoms: C3_6  and  C4_7 
REMARK    3  A    between atoms: C3_6  and  C15_23 
REMARK       I    between atoms: C4_7  and  N2_9 
REMARK    4  A    between atoms: N2_9  and  C5_11 
REMARK    5  A    between atoms: C5_11  and  C6_12 
REMARK    6  A    between atoms: C6_12  and  C7_13 
REMARK    7  A    between atoms: C7_13  and  C8_14 
REMARK    8  A    between atoms: C8_14  and  N3_15 
ROOT
HETATM    1  C3  UNL     1      11.792   9.242   2.316  1.00  0.00     0.185 C 
ENDROOT
BRANCH   1   2
HETATM    2  N1  UNL     1      12.604   8.329   3.048  1.00  0.00    -0.347 N 
HETATM    3  C2  UNL     1      13.748   7.738   2.447  1.00  0.00     0.214 C 
HETATM    4  C1  UNL     1      14.652   6.787   3.115  1.00  0.00     0.117 C 
HETATM    5  O1  UNL     1      14.031   8.038   1.249  1.00  0.00    -0.274 OA
ATOM      6  H1  UNL     1      12.362   8.098   4.011  1.00  0.00     0.163 HD
ENDBRANCH   1   2
BRANCH   1   7
HETATM    7  C4  UNL     1      12.356  10.615   2.377  1.00  0.00     0.241 C 
HETATM    8  O2  UNL     1      12.913  10.908   3.491  1.00  0.00    -0.271 OA
HETATM    9  N2  UNL     1      12.329  11.569   1.357  1.00  0.00    -0.359 N 
ATOM     10  H2  UNL     1      11.887  11.315   0.473  1.00  0.00     0.162 HD
BRANCH   9  11
HETATM   11  C5  UNL     1      12.884  12.875   1.480  1.00  0.00     0.122 C 
BRANCH  11  12
HETATM   12  C6  UNL     1      12.956  13.566   0.153  1.00  0.00     0.021 C 
BRANCH  12  13
HETATM   13  C7  UNL     1      14.410  13.626  -0.288  1.00  0.00     0.032 C 
BRANCH  13  14
HETATM   14  C8  UNL     1      14.581  12.806  -1.569  1.00  0.00     0.272 C 
BRANCH  14  15
HETATM   15  N3  UNL     1      14.446  11.397  -1.297  1.00  0.00     0.091 N 
HETATM   16  C9  UNL     1      15.638  10.907  -0.659  1.00  0.00     0.300 C 
HETATM   17  C10 UNL     1      16.076   9.579  -1.260  1.00  0.00     0.266 C 
HETATM   18  N4  UNL     1      16.375   9.693  -2.656  1.00  0.00    -0.071 N 
HETATM   19  C11 UNL     1      16.327   8.398  -3.323  1.00  0.00     0.272 C 
HETATM   20  C12 UNL     1      17.746  10.208  -2.795  1.00  0.00     0.272 C 
HETATM   21  C13 UNL     1      15.480  10.597  -3.308  1.00  0.00     0.266 C 
HETATM   22  C14 UNL     1      14.201  10.700  -2.531  1.00  0.00     0.300 C 
ENDBRANCH  14  15
ENDBRANCH  13  14
ENDBRANCH  12  13
ENDBRANCH  11  12
ENDBRANCH   9  11
ENDBRANCH   1   7
BRANCH   1  23
HETATM   23  C15 UNL     1      10.344   9.247   2.725  1.00  0.00    -0.007 C 
HETATM   24  C16 UNL     1      10.195   8.160   3.779  1.00  0.00     0.017 C 
HETATM   25  C17 UNL     1       8.826   8.166   4.434  1.00  0.00    -0.013 C 
HETATM   26  C18 UNL     1       8.615   9.477   5.099  1.00  0.00     0.009 C 
HETATM   27  C22 UNL     1       7.771   7.937   3.371  1.00  0.00     0.010 C 
HETATM   28  C19 UNL     1       8.688  10.574   4.046  1.00  0.00    -0.013 C 
HETATM   29  C20 UNL     1       7.682  10.333   2.952  1.00  0.00     0.010 C 
HETATM   30  C25 UNL     1      10.062  10.577   3.431  1.00  0.00     0.017 C 
HETATM   31  C21 UNL     1       7.959   8.987   2.336  1.00  0.00    -0.009 C 
HETATM   32  C23 UNL     1       9.343   8.965   1.672  1.00  0.00    -0.004 C 
HETATM   33  C24 UNL     1       9.236   9.983   0.569  1.00  0.00     0.011 C 
ENDBRANCH   1  23
TORSDOF 8
ENDMDL
MODEL 2
REMARK VINA RESULT: -8.767472237      1.944      3.961
REMARK  8 active torsions:
REMARK  status: ('A' for Active; 'I' for Inactive)
REMARK       I    between atoms: C2_2  and  N1_4 
REMARK    1  A    between atoms: N1_4  and  C3_6 
REMARK    2  A    between atoms: C3_6  and  C4_7 
REMARK    3  A    between atoms: C3_6  and  C15_23 
REMARK       I    between atoms: C4_7  and  N2_9 
REMARK    4  A    between atoms: N2_9  and  C5_11 
REMARK    5  A    between atoms: C5_11  and  C6_12 
REMARK    6  A    between atoms: C6_12  and  C7_13 
REMARK    7  A    between atoms: C7_13  and  C8_14 
REMARK    8  A    between atoms: C8_14  and  N3_15 
ROOT
HETATM    1  C3  UNL     1      11.434  10.119   3.415  1.00  0.00     0.185 C 
ENDROOT
BRANCH   1   2
HETATM    2  N1  UNL     1      11.834  10.103   2.049  1.00  0.00    -0.347 N 
HETATM    3  C2  UNL     1      12.408  11.256   1.451  1.00  0.00     0.214 C 
HETATM    4  C1  UNL     1      12.857  11.343   0.051  1.00  0.00     0.117 C 
HETATM    5  O1  UNL     1      12.558  12.299   2.156  1.00  0.00    -0.274 OA
ATOM      6  H1  UNL     1      11.707   9.256   1.495  1.00  0.00     0.163 HD
ENDBRANCH   1   2
BRANCH   1   7
HETATM    7  C4  UNL     1      12.396   9.361   4.255  1.00  0.00     0.241 C 
HETATM    8  O2  UNL     1      13.204  10.093   4.925  1.00  0.00    -0.271 OA
HETATM    9  N2  UNL     1      12.483   7.971   4.368  1.00  0.00    -0.359 N 
ATOM     10  H2  UNL     1      11.826   7.404   3.832  1.00  0.00     0.162 HD
BRANCH   9  11
HETATM   11  C5  UNL     1      13.436   7.302   5.188  1.00  0.00     0.122 C 
BRANCH  11  12
HETATM   12  C6  UNL     1      14.642   6.890   4.402  1.00  0.00     0.021 C 
BRANCH  12  13
HETATM   13  C7  UNL     1      15.825   7.739   4.841  1.00  0.00     0.032 C 
BRANCH  13  14
HETATM   14  C8  UNL     1      16.365   8.512   3.635  1.00  0.00     0.272 C 
BRANCH  14  15
HETATM   15  N3  UNL     1      15.896   7.931   2.402  1.00  0.00     0.091 N 
HETATM   16  C9  UNL     1      17.012   7.450   1.634  1.00  0.00     0.300 C 
HETATM   17  C10 UNL     1      16.876   7.835   0.169  1.00  0.00     0.266 C 
HETATM   18  N4  UNL     1      16.836   9.254  -0.013  1.00  0.00    -0.071 N 
HETATM   19  C11 UNL     1      16.244   9.615  -1.296  1.00  0.00     0.272 C 
HETATM   20  C12 UNL     1      18.216   9.762  -0.009  1.00  0.00     0.272 C 
HETATM   21  C13 UNL     1      16.111   9.894   1.041  1.00  0.00     0.266 C 
HETATM   22  C14 UNL     1      15.156   8.921   1.668  1.00  0.00     0.300 C 
ENDBRANCH  14  15
ENDBRANCH  13  14
ENDBRANCH  12  13
ENDBRANCH  11  12
ENDBRANCH   9  11
ENDBRANCH   1   7
BRANCH   1  23
HETATM   23  C15 UNL     1      10.028   9.636   3.655  1.00  0.00    -0.007 C 
HETATM   24  C16 UNL     1       9.657  10.086   5.060  1.00  0.00     0.017 C 
HETATM   25  C17 UNL     1       8.194   9.840   5.383  1.00  0.00    -0.013 C 
HETATM   26  C18 UNL     1       7.354  10.601   4.424  1.00  0.00     0.009 C 
HETATM   27  C22 UNL     1       7.909   8.356   5.274  1.00  0.00     0.010 C 
HETATM   28  C19 UNL     1       7.660  10.113   3.015  1.00  0.00    -0.013 C 
HETATM   29  C20 UNL     1       7.433   8.629   2.902  1.00  0.00     0.010 C 
HETATM   30  C25 UNL     1       9.104  10.395   2.698  1.00  0.00     0.017 C 
HETATM   31  C21 UNL     1       8.313   7.934   3.907  1.00  0.00    -0.009 C 
HETATM   32  C23 UNL     1       9.796   8.176   3.594  1.00  0.00    -0.004 C 
HETATM   33  C24 UNL     1       9.998   7.527   2.252  1.00  0.00     0.011 C 
ENDBRANCH   1  23
TORSDOF 8
ENDMDL
MODEL 3
REMARK VINA RESULT: -8.672476026      1.755      3.767
REMARK  8 active torsions:
REMARK  status: ('A' for Active; 'I' for Inactive)
REMARK       I    between atoms: C2_2  and  N1_4 
REMARK    1  A    between atoms: N1_4  and  C3_6 
REMARK    2  A    between atoms: C3_6  and  C4_7 
REMARK    3  A    between atoms: C3_6  and  C15_23 
REMARK       I    between atoms: C4_7  and  N2_9 
REMARK    4  A    between atoms: N2_9  and  C5_11 
REMARK    5  A    between atoms: C5_11  and  C6_12 
REMARK    6  A    between atoms: C6_12  and  C7_13 
REMARK    7  A    between atoms: C7_13  and  C8_14 
REMARK    8  A    between atoms: C8_14  and  N3_15 
ROOT
HETATM    1  C3  UNL     1      11.702  10.070   3.424  1.00  0.00     0.185 C 
ENDROOT
BRANCH   1   2
HETATM    2  N1  UNL     1      12.086  10.225   2.062  1.00  0.00    -0.347 N 
HETATM    3  C2  UNL     1      12.588  11.467   1.590  1.00  0.00     0.214 C 
HETATM    4  C1  UNL     1      13.014  11.731   0.205  1.00  0.00     0.117 C 
HETATM    5  O1  UNL     1      12.689  12.433   2.403  1.00  0.00    -0.274 OA
ATOM      6  H1  UNL     1      11.999   9.437   1.419  1.00  0.00     0.163 HD
ENDBRANCH   1   2
BRANCH   1   7
HETATM    7  C4  UNL     1      12.648   9.176   4.140  1.00  0.00     0.241 C 
HETATM    8  O2  UNL     1      12.778   9.432   5.386  1.00  0.00    -0.271 OA
HETATM    9  N2  UNL     1      13.374   8.120   3.582  1.00  0.00    -0.359 N 
ATOM     10  H2  UNL     1      13.253   7.926   2.588  1.00  0.00     0.162 HD
BRANCH   9  11
HETATM   11  C5  UNL     1      14.274   7.301   4.322  1.00  0.00     0.122 C 
BRANCH  11  12
HETATM   12  C6  UNL     1      15.284   6.650   3.427  1.00  0.00     0.021 C 
BRANCH  12  13
HETATM   13  C7  UNL     1      16.533   7.516   3.391  1.00  0.00     0.032 C 
BRANCH  13  14
HETATM   14  C8  UNL     1      17.036   7.616   1.948  1.00  0.00     0.272 C 
BRANCH  14  15
HETATM   15  N3  UNL     1      16.004   8.127   1.081  1.00  0.00     0.091 N 
HETATM   16  C9  UNL     1      16.272   7.739  -0.277  1.00  0.00     0.300 C 
HETATM   17  C10 UNL     1      16.056   8.902  -1.233  1.00  0.00     0.266 C 
HETATM   18  N4  UNL     1      16.922  10.005  -0.944  1.00  0.00    -0.071 N 
HETATM   19  C11 UNL     1      16.416  11.249  -1.511  1.00  0.00     0.272 C 
HETATM   20  C12 UNL     1      18.230   9.741  -1.562  1.00  0.00     0.272 C 
HETATM   21  C13 UNL     1      17.107  10.165   0.465  1.00  0.00     0.266 C 
HETATM   22  C14 UNL     1      15.952   9.559   1.205  1.00  0.00     0.300 C 
ENDBRANCH  14  15
ENDBRANCH  13  14
ENDBRANCH  12  13
ENDBRANCH  11  12
ENDBRANCH   9  11
ENDBRANCH   1   7
BRANCH   1  23
HETATM   23  C15 UNL     1      10.284   9.604   3.619  1.00  0.00    -0.007 C 
HETATM   24  C16 UNL     1       9.855  10.105   4.990  1.00  0.00     0.017 C 
HETATM   25  C17 UNL     1       8.378   9.879   5.258  1.00  0.00    -0.013 C 
HETATM   26  C18 UNL     1       7.586  10.611   4.237  1.00  0.00     0.009 C 
HETATM   27  C22 UNL     1       8.087   8.394   5.188  1.00  0.00     0.010 C 
HETATM   28  C19 UNL     1       7.949  10.072   2.860  1.00  0.00    -0.013 C 
HETATM   29  C20 UNL     1       7.716   8.586   2.790  1.00  0.00     0.010 C 
HETATM   30  C25 UNL     1       9.407  10.334   2.596  1.00  0.00     0.017 C 
HETATM   31  C21 UNL     1       8.547   7.921   3.856  1.00  0.00    -0.009 C 
HETATM   32  C23 UNL     1      10.044   8.144   3.600  1.00  0.00    -0.004 C 
HETATM   33  C24 UNL     1      10.299   7.446   2.291  1.00  0.00     0.011 C 
ENDBRANCH   1  23
TORSDOF 8
ENDMDL
MODEL 4
REMARK VINA RESULT: -8.585187693      2.610      6.936
REMARK  8 active torsions:
REMARK  status: ('A' for Active; 'I' for Inactive)
REMARK       I    between atoms: C2_2  and  N1_4 
REMARK    1  A    between atoms: N1_4  and  C3_6 
REMARK    2  A    between atoms: C3_6  and  C4_7 
REMARK    3  A    between atoms: C3_6  and  C15_23 
REMARK       I    between atoms: C4_7  and  N2_9 
REMARK    4  A    between atoms: N2_9  and  C5_11 
REMARK    5  A    between atoms: C5_11  and  C6_12 
REMARK    6  A    between atoms: C6_12  and  C7_13 
REMARK    7  A    between atoms: C7_13  and  C8_14 
REMARK    8  A    between atoms: C8_14  and  N3_15 
ROOT
HETATM    1  C3  UNL     1      15.273   9.190   1.485  1.00  0.00     0.185 C 
ENDROOT
BRANCH   1   2
HETATM    2  N1  UNL     1      16.524   9.862   1.592  1.00  0.00    -0.347 N 
HETATM    3  C2  UNL     1      17.681   9.337   0.956  1.00  0.00     0.214 C 
HETATM    4  C1  UNL     1      19.018   9.953   1.001  1.00  0.00     0.117 C 
HETATM    5  O1  UNL     1      17.579   8.262   0.293  1.00  0.00    -0.274 OA
ATOM      6  H1  UNL     1      16.590  10.726   2.129  1.00  0.00     0.163 HD
ENDBRANCH   1   2
BRANCH   1   7
HETATM    7  C4  UNL     1      14.289  10.023   0.748  1.00  0.00     0.241 C 
HETATM    8  O2  UNL     1      14.693  11.207   0.482  1.00  0.00    -0.271 OA
HETATM    9  N2  UNL     1      13.012   9.631   0.337  1.00  0.00    -0.359 N 
ATOM     10  H2  UNL     1      12.710   8.680   0.551  1.00  0.00     0.162 HD
BRANCH   9  11
HETATM   11  C5  UNL     1      12.110  10.481  -0.364  1.00  0.00     0.122 C 
BRANCH  11  12
HETATM   12  C6  UNL     1      10.687  10.072  -0.140  1.00  0.00     0.021 C 
BRANCH  12  13
HETATM   13  C7  UNL     1      10.661   8.901   0.829  1.00  0.00     0.032 C 
BRANCH  13  14
HETATM   14  C8  UNL     1       9.263   8.783   1.441  1.00  0.00     0.272 C 
BRANCH  14  15
HETATM   15  N3  UNL     1       8.841  10.043   1.998  1.00  0.00     0.091 N 
HETATM   16  C9  UNL     1       9.480  10.254   3.268  1.00  0.00     0.300 C 
HETATM   17  C10 UNL     1       8.490  10.773   4.301  1.00  0.00     0.266 C 
HETATM   18  N4  UNL     1       7.419   9.852   4.529  1.00  0.00    -0.071 N 
HETATM   19  C11 UNL     1       6.260  10.510   5.122  1.00  0.00     0.272 C 
HETATM   20  C12 UNL     1       7.879   8.832   5.485  1.00  0.00     0.272 C 
HETATM   21  C13 UNL     1       7.026   9.199   3.319  1.00  0.00     0.266 C 
HETATM   22  C14 UNL     1       7.409  10.040   2.137  1.00  0.00     0.300 C 
ENDBRANCH  14  15
ENDBRANCH  13  14
ENDBRANCH  12  13
ENDBRANCH  11  12
ENDBRANCH   9  11
ENDBRANCH   1   7
BRANCH   1  23
HETATM   23  C15 UNL     1      14.700   8.737   2.802  1.00  0.00    -0.007 C 
HETATM   24  C16 UNL     1      13.670   9.783   3.201  1.00  0.00     0.017 C 
HETATM   25  C17 UNL     1      12.862   9.372   4.418  1.00  0.00    -0.013 C 
HETATM   26  C18 UNL     1      12.137   8.112   4.113  1.00  0.00     0.009 C 
HETATM   27  C22 UNL     1      13.803   9.169   5.588  1.00  0.00     0.010 C 
HETATM   28  C19 UNL     1      13.157   7.032   3.780  1.00  0.00    -0.013 C 
HETATM   29  C20 UNL     1      14.134   6.854   4.911  1.00  0.00     0.010 C 
HETATM   30  C25 UNL     1      13.925   7.439   2.552  1.00  0.00     0.017 C 
HETATM   31  C21 UNL     1      14.820   8.171   5.162  1.00  0.00    -0.009 C 
HETATM   32  C23 UNL     1      15.639   8.602   3.937  1.00  0.00    -0.004 C 
HETATM   33  C24 UNL     1      16.690   7.533   3.806  1.00  0.00     0.011 C 
ENDBRANCH   1  23
TORSDOF 8
ENDMDL
MODEL 5
REMARK VINA RESULT: -8.507810529      1.048      1.412
REMARK  8 active torsions:
REMARK  status: ('A' for Active; 'I' for Inactive)
REMARK       I    between atoms: C2_2  and  N1_4 
REMARK    1  A    between atoms: N1_4  and  C3_6 
REMARK    2  A    between atoms: C3_6  and  C4_7 
REMARK    3  A    between atoms: C3_6  and  C15_23 
REMARK       I    between atoms: C4_7  and  N2_9 
REMARK    4  A    between atoms: N2_9  and  C5_11 
REMARK    5  A    between atoms: C5_11  and  C6_12 
REMARK    6  A    between atoms: C6_12  and  C7_13 
REMARK    7  A    between atoms: C7_13  and  C8_14 
REMARK    8  A    between atoms: C8_14  and  N3_15 
ROOT
HETATM    1  C3  UNL     1      12.012   9.464   2.737  1.00  0.00     0.185 C 
ENDROOT
BRANCH   1   2
HETATM    2  N1  UNL     1      12.947   9.240   3.787  1.00  0.00    -0.347 N 
HETATM    3  C2  UNL     1      13.758   8.073   3.794  1.00  0.00     0.214 C 
HETATM    4  C1  UNL     1      14.754   7.747   4.828  1.00  0.00     0.117 C 
HETATM    5  O1  UNL     1      13.632   7.237   2.850  1.00  0.00    -0.274 OA
ATOM      6  H1  UNL     1      13.036   9.922   4.539  1.00  0.00     0.163 HD
ENDBRANCH   1   2
BRANCH   1   7
HETATM    7  C4  UNL     1      12.197  10.815   2.147  1.00  0.00     0.241 C 
HETATM    8  O2  UNL     1      12.285  11.759   3.005  1.00  0.00    -0.271 OA
HETATM    9  N2  UNL     1      12.280  11.121   0.786  1.00  0.00    -0.359 N 
ATOM     10  H2  UNL     1      12.215  10.355   0.116  1.00  0.00     0.162 HD
BRANCH   9  11
HETATM   11  C5  UNL     1      12.451  12.442   0.281  1.00  0.00     0.122 C 
BRANCH  11  12
HETATM   12  C6  UNL     1      13.890  12.860   0.316  1.00  0.00     0.021 C 
BRANCH  12  13
HETATM   13  C7  UNL     1      14.306  13.296  -1.079  1.00  0.00     0.032 C 
BRANCH  13  14
HETATM   14  C8  UNL     1      15.512  12.468  -1.528  1.00  0.00     0.272 C 
BRANCH  14  15
HETATM   15  N3  UNL     1      15.300  11.067  -1.259  1.00  0.00     0.091 N 
HETATM   16  C9  UNL     1      16.565  10.389  -1.177  1.00  0.00     0.300 C 
HETATM   17  C10 UNL     1      16.531   9.072  -1.937  1.00  0.00     0.266 C 
HETATM   18  N4  UNL     1      16.257   9.261  -3.330  1.00  0.00    -0.071 N 
HETATM   19  C11 UNL     1      15.762   8.038  -3.951  1.00  0.00     0.272 C 
HETATM   20  C12 UNL     1      17.514   9.618  -4.006  1.00  0.00     0.272 C 
HETATM   21  C13 UNL     1      15.314  10.315  -3.536  1.00  0.00     0.266 C 
HETATM   22  C14 UNL     1      14.483  10.507  -2.301  1.00  0.00     0.300 C 
ENDBRANCH  14  15
ENDBRANCH  13  14
ENDBRANCH  12  13
ENDBRANCH  11  12
ENDBRANCH   9  11
ENDBRANCH   1   7
BRANCH   1  23
HETATM   23  C15 UNL     1      10.575   9.253   3.133  1.00  0.00    -0.007 C 
HETATM   24  C16 UNL     1      10.435   9.806   4.543  1.00  0.00     0.017 C 
HETATM   25  C17 UNL     1       8.994   9.841   5.016  1.00  0.00    -0.013 C 
HETATM   26  C18 UNL     1       8.208  10.712   4.105  1.00  0.00     0.009 C 
HETATM   27  C22 UNL     1       8.439   8.431   5.008  1.00  0.00     0.010 C 
HETATM   28  C19 UNL     1       8.276  10.132   2.699  1.00  0.00    -0.013 C 
HETATM   29  C20 UNL     1       7.779   8.711   2.682  1.00  0.00     0.010 C 
HETATM   30  C25 UNL     1       9.707  10.137   2.231  1.00  0.00     0.017 C 
HETATM   31  C21 UNL     1       8.619   7.899   3.631  1.00  0.00    -0.009 C 
HETATM   32  C23 UNL     1      10.082   7.858   3.167  1.00  0.00    -0.004 C 
HETATM   33  C24 UNL     1      10.026   7.141   1.845  1.00  0.00     0.011 C 
ENDBRANCH   1  23
TORSDOF 8
ENDMDL
