MODEL 1
REMARK VINA RESULT: -7.717818505      0.000      0.000
REMARK  11 active torsions:
REMARK  status: ('A' for Active; 'I' for Inactive)
REMARK    1  A    between atoms: C3_3  and  C4_4 
REMARK    2  A    between atoms: C5_5  and  C6_6 
REMARK    3  A    between atoms: C7_7  and  C8_8 
REMARK    4  A    between atoms: C9_9  and  C10_10 
REMARK    5  A    between atoms: C11_11  and  C12_12 
REMARK    6  A    between atoms: C13_13  and  C14_14 
REMARK       I    between atoms: N1_15  and  C15_17 
REMARK    7  A    between atoms: C15_17  and  C16_19 
REMARK    8  A    between atoms: C16_19  and  N2_22 
REMARK       I    between atoms: N2_22  and  C19_24 
REMARK    9  A    between atoms: C19_24  and  C20_26 
REMARK   10  A    between atoms: C20_26  and  N3_27 
REMARK   11  A    between atoms: C20_26  and  C21_31 
REMARK       I    between atoms: N4_35  and  C25_36 
ROOT
HETATM    1  C1  UNL     1      20.637 -11.774  17.297  1.00  0.00     0.013 C 
HETATM    2  C2  UNL     1      20.803 -12.030  18.473  1.00  0.00    -0.105 C 
HETATM    3  C3  UNL     1      21.013 -12.365  19.903  1.00  0.00     0.187 C 
ENDROOT
BRANCH   3   4
HETATM    4  C4  UNL     1      20.057 -13.412  20.270  1.00  0.00    -0.081 C 
HETATM    5  C5  UNL     1      19.264 -14.260  20.596  1.00  0.00    -0.014 C 
BRANCH   5   6
HETATM    6  C6  UNL     1      18.333 -15.250  20.958  1.00  0.00    -0.010 C 
HETATM    7  C7  UNL     1      17.517 -16.081  21.260  1.00  0.00    -0.065 C 
BRANCH   7   8
HETATM    8  C8  UNL     1      16.532 -17.053  21.624  1.00  0.00     0.065 C 
HETATM    9  C9  UNL     1      16.121 -17.929  20.749  1.00  0.00     0.009 C 
BRANCH   9  10
HETATM   10  C10 UNL     1      16.679 -17.906  19.392  1.00  0.00     0.009 C 
HETATM   11  C11 UNL     1      16.048 -17.308  18.399  1.00  0.00     0.065 C 
BRANCH  11  12
HETATM   12  C12 UNL     1      14.790 -16.688  18.730  1.00  0.00    -0.072 C 
HETATM   13  C13 UNL     1      13.754 -16.140  18.988  1.00  0.00    -0.057 C 
BRANCH  13  14
HETATM   14  C14 UNL     1      12.540 -15.455  19.280  1.00  0.00     0.156 C 
HETATM   15  N1  UNL     1      12.194 -14.866  20.338  1.00  0.00    -0.327 N 
HETATM   16  C15 UNL     1      13.012 -14.787  21.480  1.00  0.00     0.256 C 
ATOM     17  H1  UNL     1      11.275 -14.424  20.369  1.00  0.00     0.168 HD
HETATM   18  O1  UNL     1      13.342 -15.741  22.194  1.00  0.00    -0.270 OA
BRANCH  16  19
HETATM   19  C16 UNL     1      13.524 -13.421  21.866  1.00  0.00     0.256 C 
HETATM   20  C17 UNL     1      12.403 -12.499  21.980  1.00  0.00    -0.082 C 
HETATM   21  C18 UNL     1      11.461 -11.752  22.066  1.00  0.00     0.015 C 
BRANCH  19  22
HETATM   22  N2  UNL     1      14.350 -12.962  20.734  1.00  0.00    -0.336 N 
HETATM   23  C19 UNL     1      15.726 -12.634  20.957  1.00  0.00     0.250 C 
HETATM   24  O2  UNL     1      16.153 -12.759  22.145  1.00  0.00    -0.271 OA
ATOM     25  H2  UNL     1      13.945 -12.879  19.802  1.00  0.00     0.164 HD
BRANCH  23  26
HETATM   26  C20 UNL     1      16.625 -12.173  19.884  1.00  0.00     0.280 C 
BRANCH  26  27
HETATM   27  N3  UNL     1      16.891 -10.745  19.982  1.00  0.00    -0.066 N 
ATOM     28  H33 UNL     1      16.525 -10.243  19.173  1.00  0.00     0.275 HD
ATOM     29  H32 UNL     1      16.323 -10.310  20.710  1.00  0.00     0.275 HD
ATOM     30  H31 UNL     1      17.883 -10.555  20.120  1.00  0.00     0.275 HD
ENDBRANCH  26  27
BRANCH  26  31
HETATM   31  C21 UNL     1      15.920 -12.447  18.545  1.00  0.00     0.043 C 
HETATM   32  C22 UNL     1      16.692 -13.590  17.931  1.00  0.00     0.010 C 
HETATM   33  C23 UNL     1      16.029 -14.069  16.671  1.00  0.00     0.020 C 
HETATM   34  C24 UNL     1      15.633 -12.908  15.776  1.00  0.00     0.127 C 
HETATM   35  N4  UNL     1      16.172 -11.655  16.281  1.00  0.00    -0.336 N 
HETATM   36  C25 UNL     1      16.873 -10.772  15.421  1.00  0.00     0.330 C 
HETATM   37  C26 UNL     1      16.005 -11.251  17.655  1.00  0.00     0.134 C 
HETATM   38  N5  UNL     1      17.023 -11.117  14.056  1.00  0.00    -0.040 NA
HETATM   39  O3  UNL     1      17.356  -9.694  15.864  1.00  0.00    -0.251 OA
ENDBRANCH  26  31
ENDBRANCH  23  26
ENDBRANCH  19  22
ENDBRANCH  16  19
ENDBRANCH  13  14
ENDBRANCH  11  12
ENDBRANCH   9  10
ENDBRANCH   7   8
ENDBRANCH   5   6
ENDBRANCH   3   4
TORSDOF 11
ENDMDL
MODEL 2
REMARK VINA RESULT: -7.689718384      2.622      3.571
REMARK  11 active torsions:
REMARK  status: ('A' for Active; 'I' for Inactive)
REMARK    1  A    between atoms: C3_3  and  C4_4 
REMARK    2  A    between atoms: C5_5  and  C6_6 
REMARK    3  A    between atoms: C7_7  and  C8_8 
REMARK    4  A    between atoms: C9_9  and  C10_10 
REMARK    5  A    between atoms: C11_11  and  C12_12 
REMARK    6  A    between atoms: C13_13  and  C14_14 
REMARK       I    between atoms: N1_15  and  C15_17 
REMARK    7  A    between atoms: C15_17  and  C16_19 
REMARK    8  A    between atoms: C16_19  and  N2_22 
REMARK       I    between atoms: N2_22  and  C19_24 
REMARK    9  A    between atoms: C19_24  and  C20_26 
REMARK   10  A    between atoms: C20_26  and  N3_27 
REMARK   11  A    between atoms: C20_26  and  C21_31 
REMARK       I    between atoms: N4_35  and  C25_36 
ROOT
HETATM    1  C1  UNL     1      24.143 -13.469  24.424  1.00  0.00     0.013 C 
HETATM    2  C2  UNL     1      23.135 -13.329  25.087  1.00  0.00    -0.105 C 
HETATM    3  C3  UNL     1      21.898 -13.181  25.892  1.00  0.00     0.187 C 
ENDROOT
BRANCH   3   4
HETATM    4  C4  UNL     1      20.750 -13.315  24.992  1.00  0.00    -0.081 C 
HETATM    5  C5  UNL     1      19.822 -13.438  24.232  1.00  0.00    -0.014 C 
BRANCH   5   6
HETATM    6  C6  UNL     1      18.729 -13.587  23.360  1.00  0.00    -0.010 C 
HETATM    7  C7  UNL     1      17.810 -13.722  22.595  1.00  0.00    -0.065 C 
BRANCH   7   8
HETATM    8  C8  UNL     1      16.730 -13.878  21.669  1.00  0.00     0.065 C 
HETATM    9  C9  UNL     1      16.735 -14.865  20.817  1.00  0.00     0.009 C 
BRANCH   9  10
HETATM   10  C10 UNL     1      17.857 -15.811  20.818  1.00  0.00     0.009 C 
HETATM   11  C11 UNL     1      17.656 -17.116  20.806  1.00  0.00     0.065 C 
BRANCH  11  12
HETATM   12  C12 UNL     1      16.281 -17.545  20.793  1.00  0.00    -0.072 C 
HETATM   13  C13 UNL     1      15.124 -17.867  20.779  1.00  0.00    -0.057 C 
BRANCH  13  14
HETATM   14  C14 UNL     1      13.742 -18.209  20.764  1.00  0.00     0.156 C 
HETATM   15  N1  UNL     1      12.736 -17.457  20.858  1.00  0.00    -0.327 N 
HETATM   16  C15 UNL     1      12.828 -16.061  21.003  1.00  0.00     0.256 C 
ATOM     17  H1  UNL     1      11.809 -17.881  20.827  1.00  0.00     0.168 HD
HETATM   18  O1  UNL     1      13.282 -15.469  21.990  1.00  0.00    -0.270 OA
BRANCH  16  19
HETATM   19  C16 UNL     1      12.323 -15.216  19.859  1.00  0.00     0.256 C 
HETATM   20  C17 UNL     1      12.165 -16.048  18.675  1.00  0.00    -0.082 C 
HETATM   21  C18 UNL     1      12.045 -16.754  17.707  1.00  0.00     0.015 C 
BRANCH  19  22
HETATM   22  N2  UNL     1      13.394 -14.245  19.568  1.00  0.00    -0.336 N 
HETATM   23  C19 UNL     1      13.167 -12.853  19.816  1.00  0.00     0.250 C 
HETATM   24  O2  UNL     1      12.028 -12.538  20.279  1.00  0.00    -0.271 OA
ATOM     25  H2  UNL     1      14.288 -14.562  19.193  1.00  0.00     0.164 HD
BRANCH  23  26
HETATM   26  C20 UNL     1      14.182 -11.816  19.560  1.00  0.00     0.280 C 
BRANCH  26  27
HETATM   27  N3  UNL     1      13.580 -10.584  19.073  1.00  0.00    -0.066 N 
ATOM     28  H33 UNL     1      14.291  -9.899  18.814  1.00  0.00     0.275 HD
ATOM     29  H32 UNL     1      13.148 -10.717  18.158  1.00  0.00     0.275 HD
ATOM     30  H31 UNL     1      12.917 -10.197  19.744  1.00  0.00     0.275 HD
ENDBRANCH  26  27
BRANCH  26  31
HETATM   31  C21 UNL     1      15.129 -12.358  18.475  1.00  0.00     0.043 C 
HETATM   32  C22 UNL     1      16.477 -11.769  18.812  1.00  0.00     0.010 C 
HETATM   33  C23 UNL     1      17.546 -12.326  17.915  1.00  0.00     0.020 C 
HETATM   34  C24 UNL     1      17.104 -12.325  16.461  1.00  0.00     0.127 C 
HETATM   35  N4  UNL     1      15.849 -11.609  16.299  1.00  0.00    -0.336 N 
HETATM   36  C25 UNL     1      15.710 -10.615  15.297  1.00  0.00     0.330 C 
HETATM   37  C26 UNL     1      14.700 -11.887  17.124  1.00  0.00     0.134 C 
HETATM   38  N5  UNL     1      16.804 -10.344  14.442  1.00  0.00    -0.040 NA
HETATM   39  O3  UNL     1      14.626  -9.982  15.169  1.00  0.00    -0.251 OA
ENDBRANCH  26  31
ENDBRANCH  23  26
ENDBRANCH  19  22
ENDBRANCH  16  19
ENDBRANCH  13  14
ENDBRANCH  11  12
ENDBRANCH   9  10
ENDBRANCH   7   8
ENDBRANCH   5   6
ENDBRANCH   3   4
TORSDOF 11
ENDMDL
MODEL 3
REMARK VINA RESULT: -7.462566007      1.684      2.358
REMARK  11 active torsions:
REMARK  status: ('A' for Active; 'I' for Inactive)
REMARK    1  A    between atoms: C3_3  and  C4_4 
REMARK    2  A    between atoms: C5_5  and  C6_6 
REMARK    3  A    between atoms: C7_7  and  C8_8 
REMARK    4  A    between atoms: C9_9  and  C10_10 
REMARK    5  A    between atoms: C11_11  and  C12_12 
REMARK    6  A    between atoms: C13_13  and  C14_14 
REMARK       I    between atoms: N1_15  and  C15_17 
REMARK    7  A    between atoms: C15_17  and  C16_19 
REMARK    8  A    between atoms: C16_19  and  N2_22 
REMARK       I    between atoms: N2_22  and  C19_24 
REMARK    9  A    between atoms: C19_24  and  C20_26 
REMARK   10  A    between atoms: C20_26  and  N3_27 
REMARK   11  A    between atoms: C20_26  and  C21_31 
REMARK       I    between atoms: N4_35  and  C25_36 
ROOT
HETATM    1  C1  UNL     1      20.746 -11.859  17.208  1.00  0.00     0.013 C 
HETATM    2  C2  UNL     1      20.861 -11.855  18.418  1.00  0.00    -0.105 C 
HETATM    3  C3  UNL     1      21.015 -11.872  19.893  1.00  0.00     0.187 C 
ENDROOT
BRANCH   3   4
HETATM    4  C4  UNL     1      20.299 -13.039  20.412  1.00  0.00    -0.081 C 
HETATM    5  C5  UNL     1      19.697 -13.984  20.858  1.00  0.00    -0.014 C 
BRANCH   5   6
HETATM    6  C6  UNL     1      18.991 -15.092  21.361  1.00  0.00    -0.010 C 
HETATM    7  C7  UNL     1      18.376 -16.024  21.809  1.00  0.00    -0.065 C 
BRANCH   7   8
HETATM    8  C8  UNL     1      17.644 -17.123  22.361  1.00  0.00     0.065 C 
HETATM    9  C9  UNL     1      17.345 -18.151  21.616  1.00  0.00     0.009 C 
BRANCH   9  10
HETATM   10  C10 UNL     1      17.764 -18.167  20.210  1.00  0.00     0.009 C 
HETATM   11  C11 UNL     1      16.883 -18.261  19.230  1.00  0.00     0.065 C 
BRANCH  11  12
HETATM   12  C12 UNL     1      15.501 -18.348  19.627  1.00  0.00    -0.072 C 
HETATM   13  C13 UNL     1      14.357 -18.400  19.989  1.00  0.00    -0.057 C 
BRANCH  13  14
HETATM   14  C14 UNL     1      13.012 -18.443  20.452  1.00  0.00     0.156 C 
HETATM   15  N1  UNL     1      12.288 -17.505  20.881  1.00  0.00    -0.327 N 
HETATM   16  C15 UNL     1      12.728 -16.172  20.974  1.00  0.00     0.256 C 
ATOM     17  H1  UNL     1      11.336 -17.722  21.174  1.00  0.00     0.168 HD
HETATM   18  O1  UNL     1      13.607 -15.758  21.740  1.00  0.00    -0.270 OA
BRANCH  16  19
HETATM   19  C16 UNL     1      12.066 -15.164  20.068  1.00  0.00     0.256 C 
HETATM   20  C17 UNL     1      11.617 -15.827  18.852  1.00  0.00    -0.082 C 
HETATM   21  C18 UNL     1      11.256 -16.396  17.853  1.00  0.00     0.015 C 
BRANCH  19  22
HETATM   22  N2  UNL     1      13.124 -14.213  19.678  1.00  0.00    -0.336 N 
HETATM   23  C19 UNL     1      12.977 -12.827  20.004  1.00  0.00     0.250 C 
HETATM   24  O2  UNL     1      11.917 -12.498  20.619  1.00  0.00    -0.271 OA
ATOM     25  H2  UNL     1      13.952 -14.541  19.180  1.00  0.00     0.164 HD
BRANCH  23  26
HETATM   26  C20 UNL     1      13.986 -11.810  19.658  1.00  0.00     0.280 C 
BRANCH  26  27
HETATM   27  N3  UNL     1      13.372 -10.606  19.116  1.00  0.00    -0.066 N 
ATOM     28  H33 UNL     1      13.077  -9.972  19.860  1.00  0.00     0.275 HD
ATOM     29  H32 UNL     1      14.062 -10.008  18.661  1.00  0.00     0.275 HD
ATOM     30  H31 UNL     1      12.600 -10.827  18.488  1.00  0.00     0.275 HD
ENDBRANCH  26  27
BRANCH  26  31
HETATM   31  C21 UNL     1      14.900 -12.418  18.579  1.00  0.00     0.043 C 
HETATM   32  C22 UNL     1      16.295 -12.001  18.978  1.00  0.00     0.010 C 
HETATM   33  C23 UNL     1      17.322 -12.644  18.090  1.00  0.00     0.020 C 
HETATM   34  C24 UNL     1      16.932 -12.539  16.626  1.00  0.00     0.127 C 
HETATM   35  N4  UNL     1      15.773 -11.678  16.457  1.00  0.00    -0.336 N 
HETATM   36  C25 UNL     1      15.782 -10.638  15.492  1.00  0.00     0.330 C 
HETATM   37  C26 UNL     1      14.573 -11.850  17.237  1.00  0.00     0.134 C 
HETATM   38  N5  UNL     1      16.928 -10.464  14.680  1.00  0.00    -0.040 NA
HETATM   39  O3  UNL     1      14.782  -9.880  15.358  1.00  0.00    -0.251 OA
ENDBRANCH  26  31
ENDBRANCH  23  26
ENDBRANCH  19  22
ENDBRANCH  16  19
ENDBRANCH  13  14
ENDBRANCH  11  12
ENDBRANCH   9  10
ENDBRANCH   7   8
ENDBRANCH   5   6
ENDBRANCH   3   4
TORSDOF 11
ENDMDL
MODEL 4
REMARK VINA RESULT: -7.282836568      3.464      6.228
REMARK  11 active torsions:
REMARK  status: ('A' for Active; 'I' for Inactive)
REMARK    1  A    between atoms: C3_3  and  C4_4 
REMARK    2  A    between atoms: C5_5  and  C6_6 
REMARK    3  A    between atoms: C7_7  and  C8_8 
REMARK    4  A    between atoms: C9_9  and  C10_10 
REMARK    5  A    between atoms: C11_11  and  C12_12 
REMARK    6  A    between atoms: C13_13  and  C14_14 
REMARK       I    between atoms: N1_15  and  C15_17 
REMARK    7  A    between atoms: C15_17  and  C16_19 
REMARK    8  A    between atoms: C16_19  and  N2_22 
REMARK       I    between atoms: N2_22  and  C19_24 
REMARK    9  A    between atoms: C19_24  and  C20_26 
REMARK   10  A    between atoms: C20_26  and  N3_27 
REMARK   11  A    between atoms: C20_26  and  C21_31 
REMARK       I    between atoms: N4_35  and  C25_36 
ROOT
HETATM    1  C1  UNL     1      21.031 -11.645  17.111  1.00  0.00     0.013 C 
HETATM    2  C2  UNL     1      20.261 -11.956  17.998  1.00  0.00    -0.105 C 
HETATM    3  C3  UNL     1      19.331 -12.318  19.095  1.00  0.00     0.187 C 
ENDROOT
BRANCH   3   4
HETATM    4  C4  UNL     1      20.128 -12.720  20.255  1.00  0.00    -0.081 C 
HETATM    5  C5  UNL     1      20.766 -13.040  21.227  1.00  0.00    -0.014 C 
BRANCH   5   6
HETATM    6  C6  UNL     1      21.512 -13.432  22.354  1.00  0.00    -0.010 C 
HETATM    7  C7  UNL     1      22.146 -13.791  23.311  1.00  0.00    -0.065 C 
BRANCH   7   8
HETATM    8  C8  UNL     1      22.887 -14.236  24.452  1.00  0.00     0.065 C 
HETATM    9  C9  UNL     1      22.582 -13.800  25.642  1.00  0.00     0.009 C 
BRANCH   9  10
HETATM   10  C10 UNL     1      21.475 -12.850  25.798  1.00  0.00     0.009 C 
HETATM   11  C11 UNL     1      20.220 -13.258  25.848  1.00  0.00     0.065 C 
BRANCH  11  12
HETATM   12  C12 UNL     1      20.012 -14.680  25.739  1.00  0.00    -0.072 C 
HETATM   13  C13 UNL     1      19.824 -15.859  25.613  1.00  0.00    -0.057 C 
BRANCH  13  14
HETATM   14  C14 UNL     1      19.583 -17.249  25.428  1.00  0.00     0.156 C 
HETATM   15  N1  UNL     1      18.804 -17.820  24.619  1.00  0.00    -0.327 N 
HETATM   16  C15 UNL     1      17.992 -17.123  23.707  1.00  0.00     0.256 C 
ATOM     17  H1  UNL     1      18.759 -18.839  24.626  1.00  0.00     0.168 HD
HETATM   18  O1  UNL     1      17.041 -16.390  24.007  1.00  0.00    -0.270 OA
BRANCH  16  19
HETATM   19  C16 UNL     1      18.304 -17.289  22.241  1.00  0.00     0.256 C 
HETATM   20  C17 UNL     1      19.734 -17.107  22.027  1.00  0.00    -0.082 C 
HETATM   21  C18 UNL     1      20.918 -16.950  21.873  1.00  0.00     0.015 C 
BRANCH  19  22
HETATM   22  N2  UNL     1      17.619 -16.180  21.552  1.00  0.00    -0.336 N 
HETATM   23  C19 UNL     1      16.562 -16.472  20.631  1.00  0.00     0.250 C 
HETATM   24  O2  UNL     1      16.280 -17.698  20.462  1.00  0.00    -0.271 OA
ATOM     25  H2  UNL     1      17.895 -15.214  21.729  1.00  0.00     0.164 HD
BRANCH  23  26
HETATM   26  C20 UNL     1      15.819 -15.427  19.904  1.00  0.00     0.280 C 
BRANCH  26  27
HETATM   27  N3  UNL     1      16.699 -14.628  19.065  1.00  0.00    -0.066 N 
ATOM     28  H33 UNL     1      16.517 -13.630  19.179  1.00  0.00     0.275 HD
ATOM     29  H32 UNL     1      17.661 -14.653  19.404  1.00  0.00     0.275 HD
ATOM     30  H31 UNL     1      16.643 -14.907  18.086  1.00  0.00     0.275 HD
ENDBRANCH  26  27
BRANCH  26  31
HETATM   31  C21 UNL     1      15.176 -14.505  20.954  1.00  0.00     0.043 C 
HETATM   32  C22 UNL     1      13.771 -14.273  20.454  1.00  0.00     0.010 C 
HETATM   33  C23 UNL     1      12.966 -13.497  21.457  1.00  0.00     0.020 C 
HETATM   34  C24 UNL     1      13.744 -12.307  21.991  1.00  0.00     0.127 C 
HETATM   35  N4  UNL     1      14.981 -12.119  21.251  1.00  0.00    -0.336 N 
HETATM   36  C25 UNL     1      15.331 -10.844  20.740  1.00  0.00     0.330 C 
HETATM   37  C26 UNL     1      15.905 -13.203  21.022  1.00  0.00     0.134 C 
HETATM   38  N5  UNL     1      14.468  -9.748  20.980  1.00  0.00    -0.040 NA
HETATM   39  O3  UNL     1      16.397 -10.686  20.083  1.00  0.00    -0.251 OA
ENDBRANCH  26  31
ENDBRANCH  23  26
ENDBRANCH  19  22
ENDBRANCH  16  19
ENDBRANCH  13  14
ENDBRANCH  11  12
ENDBRANCH   9  10
ENDBRANCH   7   8
ENDBRANCH   5   6
ENDBRANCH   3   4
TORSDOF 11
ENDMDL
MODEL 5
REMARK VINA RESULT: -7.233278398      3.805      6.481
REMARK  11 active torsions:
REMARK  status: ('A' for Active; 'I' for Inactive)
REMARK    1  A    between atoms: C3_3  and  C4_4 
REMARK    2  A    between atoms: C5_5  and  C6_6 
REMARK    3  A    between atoms: C7_7  and  C8_8 
REMARK    4  A    between atoms: C9_9  and  C10_10 
REMARK    5  A    between atoms: C11_11  and  C12_12 
REMARK    6  A    between atoms: C13_13  and  C14_14 
REMARK       I    between atoms: N1_15  and  C15_17 
REMARK    7  A    between atoms: C15_17  and  C16_19 
REMARK    8  A    between atoms: C16_19  and  N2_22 
REMARK       I    between atoms: N2_22  and  C19_24 
REMARK    9  A    between atoms: C19_24  and  C20_26 
REMARK   10  A    between atoms: C20_26  and  N3_27 
REMARK   11  A    between atoms: C20_26  and  C21_31 
REMARK       I    between atoms: N4_35  and  C25_36 
ROOT
HETATM    1  C1  UNL     1      18.816 -11.979  17.307  1.00  0.00     0.013 C 
HETATM    2  C2  UNL     1      19.838 -11.970  17.964  1.00  0.00    -0.105 C 
HETATM    3  C3  UNL     1      21.083 -11.984  18.770  1.00  0.00     0.187 C 
ENDROOT
BRANCH   3   4
HETATM    4  C4  UNL     1      20.734 -12.364  20.140  1.00  0.00    -0.081 C 
HETATM    5  C5  UNL     1      20.453 -12.703  21.263  1.00  0.00    -0.014 C 
BRANCH   5   6
HETATM    6  C6  UNL     1      20.136 -13.084  22.579  1.00  0.00    -0.010 C 
HETATM    7  C7  UNL     1      19.841 -13.420  23.697  1.00  0.00    -0.065 C 
BRANCH   7   8
HETATM    8  C8  UNL     1      19.470 -13.815  25.021  1.00  0.00     0.065 C 
HETATM    9  C9  UNL     1      20.298 -13.642  26.013  1.00  0.00     0.009 C 
BRANCH   9  10
HETATM   10  C10 UNL     1      21.612 -13.040  25.756  1.00  0.00     0.009 C 
HETATM   11  C11 UNL     1      22.636 -13.768  25.352  1.00  0.00     0.065 C 
BRANCH  11  12
HETATM   12  C12 UNL     1      22.383 -15.177  25.183  1.00  0.00    -0.072 C 
HETATM   13  C13 UNL     1      22.159 -16.343  25.008  1.00  0.00    -0.057 C 
BRANCH  13  14
HETATM   14  C14 UNL     1      21.873 -17.716  24.766  1.00  0.00     0.156 C 
HETATM   15  N1  UNL     1      20.782 -18.257  24.443  1.00  0.00    -0.327 N 
HETATM   16  C15 UNL     1      19.589 -17.535  24.258  1.00  0.00     0.256 C 
ATOM     17  H1  UNL     1      20.762 -19.268  24.309  1.00  0.00     0.168 HD
HETATM   18  O1  UNL     1      18.961 -16.945  25.145  1.00  0.00    -0.270 OA
BRANCH  16  19
HETATM   19  C16 UNL     1      19.027 -17.482  22.859  1.00  0.00     0.256 C 
HETATM   20  C17 UNL     1      20.022 -16.915  21.958  1.00  0.00    -0.082 C 
HETATM   21  C18 UNL     1      20.858 -16.441  21.233  1.00  0.00     0.015 C 
BRANCH  19  22
HETATM   22  N2  UNL     1      17.899 -16.534  22.910  1.00  0.00    -0.336 N 
HETATM   23  C19 UNL     1      16.968 -16.490  21.823  1.00  0.00     0.250 C 
HETATM   24  O2  UNL     1      17.184 -17.288  20.860  1.00  0.00    -0.271 OA
ATOM     25  H2  UNL     1      17.782 -15.916  23.713  1.00  0.00     0.164 HD
BRANCH  23  26
HETATM   26  C20 UNL     1      15.810 -15.579  21.793  1.00  0.00     0.280 C 
BRANCH  26  27
HETATM   27  N3  UNL     1      14.620 -16.240  21.275  1.00  0.00    -0.066 N 
ATOM     28  H33 UNL     1      14.450 -15.989  20.301  1.00  0.00     0.275 HD
ATOM     29  H32 UNL     1      14.772 -17.242  21.158  1.00  0.00     0.275 HD
ATOM     30  H31 UNL     1      13.803 -16.053  21.856  1.00  0.00     0.275 HD
ENDBRANCH  26  27
BRANCH  26  31
HETATM   31  C21 UNL     1      16.167 -14.413  20.856  1.00  0.00     0.043 C 
HETATM   32  C22 UNL     1      16.427 -13.245  21.777  1.00  0.00     0.010 C 
HETATM   33  C23 UNL     1      16.930 -12.057  21.008  1.00  0.00     0.020 C 
HETATM   34  C24 UNL     1      16.102 -11.815  19.758  1.00  0.00     0.127 C 
HETATM   35  N4  UNL     1      14.928 -12.672  19.737  1.00  0.00    -0.336 N 
HETATM   36  C25 UNL     1      13.643 -12.130  19.479  1.00  0.00     0.330 C 
HETATM   37  C26 UNL     1      15.017 -14.095  19.957  1.00  0.00     0.134 C 
HETATM   38  N5  UNL     1      13.522 -10.745  19.219  1.00  0.00    -0.040 NA
HETATM   39  O3  UNL     1      12.623 -12.873  19.478  1.00  0.00    -0.251 OA
ENDBRANCH  26  31
ENDBRANCH  23  26
ENDBRANCH  19  22
ENDBRANCH  16  19
ENDBRANCH  13  14
ENDBRANCH  11  12
ENDBRANCH   9  10
ENDBRANCH   7   8
ENDBRANCH   5   6
ENDBRANCH   3   4
TORSDOF 11
ENDMDL
