MODEL 1
REMARK VINA RESULT: -9.777877209      0.000      0.000
REMARK  5 active torsions:
REMARK  status: ('A' for Active; 'I' for Inactive)
REMARK    1  A    between atoms: N1_4  and  C4_5 
REMARK    2  A    between atoms: C14_15  and  N2_16 
REMARK       I    between atoms: N3_20  and  C18_21 
REMARK    3  A    between atoms: C18_21  and  C19_23 
REMARK    4  A    between atoms: C19_23  and  N4_24 
REMARK    5  A    between atoms: N4_24  and  C20_26 
ROOT
HETATM    1  N2  UNL     1      24.162  11.549  30.635  1.00  0.00     0.093 N 
HETATM    2  C15 UNL     1      24.740  10.700  29.599  1.00  0.00     0.274 C 
HETATM    3  C16 UNL     1      26.247  10.595  29.836  1.00  0.00     0.050 C 
HETATM    4  C17 UNL     1      26.608  10.732  31.267  1.00  0.00     0.127 C 
HETATM    5  N3  UNL     1      27.363  11.946  31.612  1.00  0.00    -0.351 N 
HETATM    6  C18 UNL     1      28.650  11.692  32.060  1.00  0.00     0.237 C 
HETATM    7  O1  UNL     1      29.022  10.463  32.114  1.00  0.00    -0.272 OA
HETATM    8  C26 UNL     1      26.907  13.322  31.561  1.00  0.00     0.127 C 
HETATM    9  C27 UNL     1      25.373  13.297  31.790  1.00  0.00     0.050 C 
HETATM   10  C28 UNL     1      24.780  12.870  30.485  1.00  0.00     0.274 C 
ENDROOT
BRANCH   1  11
HETATM   11  C14 UNL     1      22.746  11.612  30.697  1.00  0.00     0.230 C 
HETATM   12  C2  UNL     1      22.046  11.227  31.945  1.00  0.00     0.043 C 
HETATM   13  C1  UNL     1      22.120  12.085  33.132  1.00  0.00     0.014 C 
HETATM   14  C3  UNL     1      20.577  11.064  31.528  1.00  0.00     0.279 C 
HETATM   15  N1  UNL     1      19.986  12.202  30.927  1.00  0.00     0.093 N 
HETATM   16  C12 UNL     1      20.857  13.327  30.767  1.00  0.00     0.275 C 
HETATM   17  C13 UNL     1      22.261  13.055  30.417  1.00  0.00     0.066 C 
BRANCH  15  18
HETATM   18  C4  UNL     1      18.716  12.447  31.491  1.00  0.00     0.223 C 
HETATM   19  C5  UNL     1      18.569  12.621  32.946  1.00  0.00     0.036 C 
HETATM   20  C6  UNL     1      17.978  11.456  33.672  1.00  0.00     0.002 C 
HETATM   21  C7  UNL     1      16.770  10.847  33.060  1.00  0.00     0.000 C 
HETATM   22  C8  UNL     1      15.708  11.814  32.626  1.00  0.00     0.000 C 
HETATM   23  C9  UNL     1      15.854  12.225  31.163  1.00  0.00     0.000 C 
HETATM   24  C10 UNL     1      16.510  13.546  30.977  1.00  0.00     0.002 C 
HETATM   25  C11 UNL     1      17.988  13.505  30.687  1.00  0.00     0.036 C 
ENDBRANCH  15  18
ENDBRANCH   1  11
BRANCH   6  26
HETATM   26  C19 UNL     1      29.707  12.627  32.511  1.00  0.00     0.217 C 
BRANCH  26  27
HETATM   27  N4  UNL     1      30.306  12.235  33.741  1.00  0.00    -0.409 N 
ATOM     28  H4  UNL     1      30.190  11.293  34.117  1.00  0.00     0.154 HD
BRANCH  27  29
HETATM   29  C20 UNL     1      31.077  13.226  34.421  1.00  0.00     0.077 C 
HETATM   30  C21 UNL     1      30.392  14.566  34.545  1.00  0.00     0.024 C 
HETATM   31  C22 UNL     1      30.826  15.307  35.763  1.00  0.00     0.002 C 
HETATM   32  C23 UNL     1      30.594  14.608  37.063  1.00  0.00     0.000 C 
HETATM   33  C24 UNL     1      30.453  13.118  36.841  1.00  0.00     0.002 C 
HETATM   34  C25 UNL     1      31.457  12.689  35.789  1.00  0.00     0.024 C 
ENDBRANCH  27  29
ENDBRANCH  26  27
ENDBRANCH   6  26
TORSDOF 5
ENDMDL
MODEL 2
REMARK VINA RESULT: -9.674790342      1.717      2.279
REMARK  5 active torsions:
REMARK  status: ('A' for Active; 'I' for Inactive)
REMARK    1  A    between atoms: N1_4  and  C4_5 
REMARK    2  A    between atoms: C14_15  and  N2_16 
REMARK       I    between atoms: N3_20  and  C18_21 
REMARK    3  A    between atoms: C18_21  and  C19_23 
REMARK    4  A    between atoms: C19_23  and  N4_24 
REMARK    5  A    between atoms: N4_24  and  C20_26 
ROOT
HETATM    1  N2  UNL     1      24.589  11.171  31.391  1.00  0.00     0.093 N 
HETATM    2  C15 UNL     1      25.192   9.937  30.897  1.00  0.00     0.274 C 
HETATM    3  C16 UNL     1      26.712  10.048  31.028  1.00  0.00     0.050 C 
HETATM    4  C17 UNL     1      27.123  10.928  32.146  1.00  0.00     0.127 C 
HETATM    5  N3  UNL     1      27.785  12.182  31.751  1.00  0.00    -0.351 N 
HETATM    6  C18 UNL     1      29.108  12.264  32.156  1.00  0.00     0.237 C 
HETATM    7  O1  UNL     1      29.588  11.263  32.804  1.00  0.00    -0.272 OA
HETATM    8  C26 UNL     1      27.209  13.304  31.035  1.00  0.00     0.127 C 
HETATM    9  C27 UNL     1      25.694  13.324  31.372  1.00  0.00     0.050 C 
HETATM   10  C28 UNL     1      25.082  12.250  30.530  1.00  0.00     0.274 C 
ENDROOT
BRANCH   1  11
HETATM   11  C14 UNL     1      23.178  11.184  31.531  1.00  0.00     0.230 C 
HETATM   12  C2  UNL     1      22.556  11.923  32.654  1.00  0.00     0.043 C 
HETATM   13  C1  UNL     1      22.555  13.391  32.667  1.00  0.00     0.014 C 
HETATM   14  C3  UNL     1      21.107  11.416  32.694  1.00  0.00     0.279 C 
HETATM   15  N1  UNL     1      20.373  11.575  31.493  1.00  0.00     0.093 N 
HETATM   16  C12 UNL     1      21.103  12.159  30.408  1.00  0.00     0.275 C 
HETATM   17  C13 UNL     1      22.521  11.788  30.266  1.00  0.00     0.066 C 
BRANCH  15  18
HETATM   18  C4  UNL     1      19.097  12.108  31.770  1.00  0.00     0.223 C 
HETATM   19  C5  UNL     1      18.691  12.390  33.157  1.00  0.00     0.036 C 
HETATM   20  C6  UNL     1      17.729  11.414  33.752  1.00  0.00     0.002 C 
HETATM   21  C7  UNL     1      16.571  11.035  32.902  1.00  0.00     0.000 C 
HETATM   22  C8  UNL     1      15.854  12.175  32.240  1.00  0.00     0.000 C 
HETATM   23  C9  UNL     1      16.384  12.464  30.838  1.00  0.00     0.000 C 
HETATM   24  C10 UNL     1      17.332  13.608  30.783  1.00  0.00     0.002 C 
HETATM   25  C11 UNL     1      18.793  13.247  30.817  1.00  0.00     0.036 C 
ENDBRANCH  15  18
ENDBRANCH   1  11
BRANCH   6  26
HETATM   26  C19 UNL     1      30.099  13.349  31.969  1.00  0.00     0.217 C 
BRANCH  26  27
HETATM   27  N4  UNL     1      30.184  14.220  33.091  1.00  0.00    -0.409 N 
ATOM     28  H4  UNL     1      30.305  13.862  34.039  1.00  0.00     0.154 HD
BRANCH  27  29
HETATM   29  C20 UNL     1      30.092  15.620  32.822  1.00  0.00     0.077 C 
HETATM   30  C21 UNL     1      29.752  15.955  31.389  1.00  0.00     0.024 C 
HETATM   31  C22 UNL     1      29.005  17.239  31.275  1.00  0.00     0.002 C 
HETATM   32  C23 UNL     1      27.716  17.307  32.027  1.00  0.00     0.000 C 
HETATM   33  C24 UNL     1      27.699  16.278  33.136  1.00  0.00     0.002 C 
HETATM   34  C25 UNL     1      29.075  16.228  33.771  1.00  0.00     0.024 C 
ENDBRANCH  27  29
ENDBRANCH  26  27
ENDBRANCH   6  26
TORSDOF 5
ENDMDL
MODEL 3
REMARK VINA RESULT: -9.366819042      1.361      1.541
REMARK  5 active torsions:
REMARK  status: ('A' for Active; 'I' for Inactive)
REMARK    1  A    between atoms: N1_4  and  C4_5 
REMARK    2  A    between atoms: C14_15  and  N2_16 
REMARK       I    between atoms: N3_20  and  C18_21 
REMARK    3  A    between atoms: C18_21  and  C19_23 
REMARK    4  A    between atoms: C19_23  and  N4_24 
REMARK    5  A    between atoms: N4_24  and  C20_26 
ROOT
HETATM    1  N2  UNL     1      24.189  11.616  30.652  1.00  0.00     0.093 N 
HETATM    2  C15 UNL     1      24.782  10.773  29.618  1.00  0.00     0.274 C 
HETATM    3  C16 UNL     1      26.290  10.693  29.857  1.00  0.00     0.050 C 
HETATM    4  C17 UNL     1      26.648  10.840  31.288  1.00  0.00     0.127 C 
HETATM    5  N3  UNL     1      27.383  12.067  31.631  1.00  0.00    -0.351 N 
HETATM    6  C18 UNL     1      28.673  11.834  32.081  1.00  0.00     0.237 C 
HETATM    7  O1  UNL     1      29.065  10.611  32.138  1.00  0.00    -0.272 OA
HETATM    8  C26 UNL     1      26.905  13.435  31.576  1.00  0.00     0.127 C 
HETATM    9  C27 UNL     1      25.371  13.386  31.804  1.00  0.00     0.050 C 
HETATM   10  C28 UNL     1      24.786  12.946  30.499  1.00  0.00     0.274 C 
ENDROOT
BRANCH   1  11
HETATM   11  C14 UNL     1      22.773  11.656  30.713  1.00  0.00     0.230 C 
HETATM   12  C2  UNL     1      22.079  11.285  31.968  1.00  0.00     0.043 C 
HETATM   13  C1  UNL     1      22.138  12.168  33.138  1.00  0.00     0.014 C 
HETATM   14  C3  UNL     1      20.613  11.089  31.554  1.00  0.00     0.279 C 
HETATM   15  N1  UNL     1      20.003  12.204  30.930  1.00  0.00     0.093 N 
HETATM   16  C12 UNL     1      20.855  13.340  30.747  1.00  0.00     0.275 C 
HETATM   17  C13 UNL     1      22.263  13.084  30.403  1.00  0.00     0.066 C 
BRANCH  15  18
HETATM   18  C4  UNL     1      18.729  12.439  31.489  1.00  0.00     0.223 C 
HETATM   19  C5  UNL     1      18.574  12.612  32.943  1.00  0.00     0.036 C 
HETATM   20  C6  UNL     1      17.990  11.442  33.667  1.00  0.00     0.002 C 
HETATM   21  C7  UNL     1      16.789  10.824  33.050  1.00  0.00     0.000 C 
HETATM   22  C8  UNL     1      15.721  11.783  32.611  1.00  0.00     0.000 C 
HETATM   23  C9  UNL     1      15.870  12.194  31.149  1.00  0.00     0.000 C 
HETATM   24  C10 UNL     1      16.517  13.520  30.965  1.00  0.00     0.002 C 
HETATM   25  C11 UNL     1      17.996  13.490  30.682  1.00  0.00     0.036 C 
ENDBRANCH  15  18
ENDBRANCH   1  11
BRANCH   6  26
HETATM   26  C19 UNL     1      29.715  12.787  32.531  1.00  0.00     0.217 C 
BRANCH  26  27
HETATM   27  N4  UNL     1      29.985  13.803  31.572  1.00  0.00    -0.409 N 
ATOM     28  H4  UNL     1      30.132  13.585  30.586  1.00  0.00     0.154 HD
BRANCH  27  29
HETATM   29  C20 UNL     1      30.040  15.144  32.061  1.00  0.00     0.077 C 
HETATM   30  C21 UNL     1      29.442  15.328  33.436  1.00  0.00     0.024 C 
HETATM   31  C22 UNL     1      30.086  16.444  34.184  1.00  0.00     0.002 C 
HETATM   32  C23 UNL     1      31.560  16.315  34.394  1.00  0.00     0.000 C 
HETATM   33  C24 UNL     1      32.156  15.367  33.378  1.00  0.00     0.002 C 
HETATM   34  C25 UNL     1      31.486  15.608  32.040  1.00  0.00     0.024 C 
ENDBRANCH  27  29
ENDBRANCH  26  27
ENDBRANCH   6  26
TORSDOF 5
ENDMDL
MODEL 4
REMARK VINA RESULT: -9.295580126      0.831      1.343
REMARK  5 active torsions:
REMARK  status: ('A' for Active; 'I' for Inactive)
REMARK    1  A    between atoms: N1_4  and  C4_5 
REMARK    2  A    between atoms: C14_15  and  N2_16 
REMARK       I    between atoms: N3_20  and  C18_21 
REMARK    3  A    between atoms: C18_21  and  C19_23 
REMARK    4  A    between atoms: C19_23  and  N4_24 
REMARK    5  A    between atoms: N4_24  and  C20_26 
ROOT
HETATM    1  N2  UNL     1      23.847  11.908  31.246  1.00  0.00     0.093 N 
HETATM    2  C15 UNL     1      24.150  10.872  30.263  1.00  0.00     0.274 C 
HETATM    3  C16 UNL     1      25.667  10.689  30.199  1.00  0.00     0.050 C 
HETATM    4  C17 UNL     1      26.333  11.008  31.483  1.00  0.00     0.127 C 
HETATM    5  N3  UNL     1      27.197  12.199  31.466  1.00  0.00    -0.351 N 
HETATM    6  C18 UNL     1      28.538  11.915  31.674  1.00  0.00     0.237 C 
HETATM    7  O1  UNL     1      28.859  10.683  31.847  1.00  0.00    -0.272 OA
HETATM    8  C26 UNL     1      26.802  13.583  31.288  1.00  0.00     0.127 C 
HETATM    9  C27 UNL     1      25.353  13.710  31.829  1.00  0.00     0.050 C 
HETATM   10  C28 UNL     1      24.475  13.141  30.760  1.00  0.00     0.274 C 
ENDROOT
BRANCH   1  11
HETATM   11  C14 UNL     1      22.482  12.087  31.587  1.00  0.00     0.230 C 
HETATM   12  C2  UNL     1      21.732  13.242  31.040  1.00  0.00     0.043 C 
HETATM   13  C1  UNL     1      21.367  13.284  29.619  1.00  0.00     0.014 C 
HETATM   14  C3  UNL     1      20.457  13.313  31.893  1.00  0.00     0.279 C 
HETATM   15  N1  UNL     1      19.668  12.136  31.907  1.00  0.00     0.093 N 
HETATM   16  C12 UNL     1      20.194  11.042  31.147  1.00  0.00     0.275 C 
HETATM   17  C13 UNL     1      21.654  10.853  31.151  1.00  0.00     0.066 C 
BRANCH  15  18
HETATM   18  C4  UNL     1      18.309  12.459  31.712  1.00  0.00     0.223 C 
HETATM   19  C5  UNL     1      17.409  12.622  32.867  1.00  0.00     0.036 C 
HETATM   20  C6  UNL     1      16.464  11.490  33.106  1.00  0.00     0.002 C 
HETATM   21  C7  UNL     1      15.747  10.973  31.913  1.00  0.00     0.000 C 
HETATM   22  C8  UNL     1      15.136  12.016  31.023  1.00  0.00     0.000 C 
HETATM   23  C9  UNL     1      16.067  12.435  29.889  1.00  0.00     0.000 C 
HETATM   24  C10 UNL     1      16.785  13.711  30.147  1.00  0.00     0.002 C 
HETATM   25  C11 UNL     1      18.181  13.574  30.695  1.00  0.00     0.036 C 
ENDBRANCH  15  18
ENDBRANCH   1  11
BRANCH   6  26
HETATM   26  C19 UNL     1      29.707  12.824  31.741  1.00  0.00     0.217 C 
BRANCH  26  27
HETATM   27  N4  UNL     1      30.609  12.489  32.789  1.00  0.00    -0.409 N 
ATOM     28  H4  UNL     1      30.873  11.522  32.982  1.00  0.00     0.154 HD
BRANCH  27  29
HETATM   29  C20 UNL     1      31.124  13.576  33.560  1.00  0.00     0.077 C 
HETATM   30  C21 UNL     1      30.112  14.654  33.865  1.00  0.00     0.024 C 
HETATM   31  C22 UNL     1      30.406  15.352  35.149  1.00  0.00     0.002 C 
HETATM   32  C23 UNL     1      30.453  14.480  36.362  1.00  0.00     0.000 C 
HETATM   33  C24 UNL     1      30.707  13.042  35.968  1.00  0.00     0.002 C 
HETATM   34  C25 UNL     1      31.720  13.021  34.841  1.00  0.00     0.024 C 
ENDBRANCH  27  29
ENDBRANCH  26  27
ENDBRANCH   6  26
TORSDOF 5
ENDMDL
MODEL 5
REMARK VINA RESULT: -9.124784656      1.743      2.343
REMARK  5 active torsions:
REMARK  status: ('A' for Active; 'I' for Inactive)
REMARK    1  A    between atoms: N1_4  and  C4_5 
REMARK    2  A    between atoms: C14_15  and  N2_16 
REMARK       I    between atoms: N3_20  and  C18_21 
REMARK    3  A    between atoms: C18_21  and  C19_23 
REMARK    4  A    between atoms: C19_23  and  N4_24 
REMARK    5  A    between atoms: N4_24  and  C20_26 
ROOT
HETATM    1  N2  UNL     1      24.609  11.092  31.404  1.00  0.00     0.093 N 
HETATM    2  C15 UNL     1      25.202   9.839  30.946  1.00  0.00     0.274 C 
HETATM    3  C16 UNL     1      26.722   9.941  31.076  1.00  0.00     0.050 C 
HETATM    4  C17 UNL     1      27.139  10.848  32.171  1.00  0.00     0.127 C 
HETATM    5  N3  UNL     1      27.813  12.084  31.742  1.00  0.00    -0.351 N 
HETATM    6  C18 UNL     1      29.136  12.166  32.149  1.00  0.00     0.237 C 
HETATM    7  O1  UNL     1      29.605  11.180  32.826  1.00  0.00    -0.272 OA
HETATM    8  C26 UNL     1      27.248  13.191  30.995  1.00  0.00     0.127 C 
HETATM    9  C27 UNL     1      25.733  13.234  31.327  1.00  0.00     0.050 C 
HETATM   10  C28 UNL     1      25.114  12.142  30.513  1.00  0.00     0.274 C 
ENDROOT
BRANCH   1  11
HETATM   11  C14 UNL     1      23.198  11.122  31.539  1.00  0.00     0.230 C 
HETATM   12  C2  UNL     1      22.580  11.885  32.648  1.00  0.00     0.043 C 
HETATM   13  C1  UNL     1      22.594  13.352  32.638  1.00  0.00     0.014 C 
HETATM   14  C3  UNL     1      21.127  11.393  32.693  1.00  0.00     0.279 C 
HETATM   15  N1  UNL     1      20.397  11.540  31.488  1.00  0.00     0.093 N 
HETATM   16  C12 UNL     1      21.135  12.098  30.395  1.00  0.00     0.275 C 
HETATM   17  C13 UNL     1      22.549  11.711  30.263  1.00  0.00     0.066 C 
BRANCH  15  18
HETATM   18  C4  UNL     1      19.125  12.090  31.752  1.00  0.00     0.223 C 
HETATM   19  C5  UNL     1      18.711  12.377  33.136  1.00  0.00     0.036 C 
HETATM   20  C6  UNL     1      17.730  11.415  33.722  1.00  0.00     0.002 C 
HETATM   21  C7  UNL     1      16.576  11.050  32.862  1.00  0.00     0.000 C 
HETATM   22  C8  UNL     1      15.880  12.199  32.192  1.00  0.00     0.000 C 
HETATM   23  C9  UNL     1      16.427  12.480  30.796  1.00  0.00     0.000 C 
HETATM   24  C10 UNL     1      17.390  13.612  30.748  1.00  0.00     0.002 C 
HETATM   25  C11 UNL     1      18.846  13.231  30.797  1.00  0.00     0.036 C 
ENDBRANCH  15  18
ENDBRANCH   1  11
BRANCH   6  26
HETATM   26  C19 UNL     1      30.136  13.237  31.934  1.00  0.00     0.217 C 
BRANCH  26  27
HETATM   27  N4  UNL     1      30.159  14.193  32.987  1.00  0.00    -0.409 N 
ATOM     28  H4  UNL     1      29.385  14.283  33.647  1.00  0.00     0.154 HD
BRANCH  27  29
HETATM   29  C20 UNL     1      31.320  15.021  33.075  1.00  0.00     0.077 C 
HETATM   30  C21 UNL     1      32.468  14.571  32.203  1.00  0.00     0.024 C 
HETATM   31  C22 UNL     1      33.323  15.712  31.768  1.00  0.00     0.002 C 
HETATM   32  C23 UNL     1      32.624  16.787  31.000  1.00  0.00     0.000 C 
HETATM   33  C24 UNL     1      31.136  16.747  31.273  1.00  0.00     0.002 C 
HETATM   34  C25 UNL     1      30.922  16.448  32.744  1.00  0.00     0.024 C 
ENDBRANCH  27  29
ENDBRANCH  26  27
ENDBRANCH   6  26
TORSDOF 5
ENDMDL
