MODEL 1
REMARK VINA RESULT: -6.979905544      0.000      0.000
REMARK  5 active torsions:
REMARK  status: ('A' for Active; 'I' for Inactive)
REMARK    1  A    between atoms: C5_6  and  C6_7 
REMARK    2  A    between atoms: C6_7  and  C7_8 
REMARK    3  A    between atoms: C6_7  and  C13_14 
REMARK    4  A    between atoms: C16_17  and  O1_18 
REMARK    5  A    between atoms: O1_18  and  C17_19 
ROOT
HETATM    1 CL1  UNL     1      27.655  58.865  -1.261  1.00  0.00    -0.083 Cl
HETATM    2  C1  UNL     1      27.837  59.312   0.423  1.00  0.00     0.056 A 
HETATM    3  C2  UNL     1      28.467  58.522   1.360  1.00  0.00     0.026 A 
HETATM    4  C3  UNL     1      28.577  58.926   2.676  1.00  0.00     0.015 A 
HETATM    5  C4  UNL     1      28.067  60.123   3.103  1.00  0.00    -0.008 A 
HETATM    6  C5  UNL     1      28.259  60.469   4.456  1.00  0.00     0.029 A 
HETATM    7  C16 UNL     1      27.730  61.731   4.745  1.00  0.00     0.154 A 
HETATM    8  N2  UNL     1      27.116  62.510   3.831  1.00  0.00    -0.345 N 
ATOM      9  H2  UNL     1      26.758  63.421   4.120  1.00  0.00     0.167 HD
HETATM   10  C22 UNL     1      26.964  62.133   2.576  1.00  0.00     0.104 A 
HETATM   11  C23 UNL     1      27.440  60.926   2.191  1.00  0.00     0.014 A 
HETATM   12  C24 UNL     1      27.320  60.533   0.859  1.00  0.00     0.068 A 
HETATM   13 CL2  UNL     1      26.514  61.577  -0.290  1.00  0.00    -0.082 Cl
ENDROOT
BRANCH   6  14
HETATM   14  C6  UNL     1      28.792  59.521   5.418  1.00  0.00    -0.056 C 
BRANCH  14  15
HETATM   15  C7  UNL     1      27.836  58.713   6.244  1.00  0.00     0.016 C 
HETATM   16  C8  UNL     1      26.398  58.926   5.827  1.00  0.00     0.009 C 
HETATM   17  C9  UNL     1      25.498  58.307   6.889  1.00  0.00     0.001 C 
HETATM   18  C10 UNL     1      25.511  59.252   8.083  1.00  0.00     0.000 C 
HETATM   19  C11 UNL     1      26.912  59.682   8.385  1.00  0.00     0.001 C 
HETATM   20  C12 UNL     1      27.941  58.786   7.717  1.00  0.00     0.009 C 
ENDBRANCH  14  15
BRANCH  14  21
HETATM   21  C13 UNL     1      30.205  59.598   5.850  1.00  0.00     0.016 A 
HETATM   22  C14 UNL     1      31.225  58.663   5.102  1.00  0.00     0.010 A 
HETATM   23  C15 UNL     1      31.343  60.129   5.118  1.00  0.00     0.010 A 
ENDBRANCH  14  21
ENDBRANCH   6  14
BRANCH   7  24
HETATM   24  O1  UNL     1      27.828  62.204   6.034  1.00  0.00    -0.330 OA
BRANCH  24  25
HETATM   25  C17 UNL     1      26.887  63.067   6.626  1.00  0.00     0.133 C 
HETATM   26  C18 UNL     1      25.468  62.523   6.459  1.00  0.00     0.060 C 
HETATM   27  C19 UNL     1      24.584  63.626   7.045  1.00  0.00     0.235 C 
HETATM   28  N1  UNL     1      24.868  63.756   8.465  1.00  0.00    -0.075 N 
HETATM   29  C20 UNL     1      26.224  64.234   8.668  1.00  0.00     0.235 C 
ATOM     30  H12 UNL     1      24.183  64.345   8.938  1.00  0.00     0.277 HD
ATOM     31  H11 UNL     1      24.692  62.887   8.969  1.00  0.00     0.277 HD
HETATM   32  C21 UNL     1      27.213  63.273   8.069  1.00  0.00     0.060 C 
ENDBRANCH  24  25
ENDBRANCH   7  24
TORSDOF 5
ENDMDL
MODEL 2
REMARK VINA RESULT: -6.934627441      3.691      6.343
REMARK  5 active torsions:
REMARK  status: ('A' for Active; 'I' for Inactive)
REMARK    1  A    between atoms: C5_6  and  C6_7 
REMARK    2  A    between atoms: C6_7  and  C7_8 
REMARK    3  A    between atoms: C6_7  and  C13_14 
REMARK    4  A    between atoms: C16_17  and  O1_18 
REMARK    5  A    between atoms: O1_18  and  C17_19 
ROOT
HETATM    1 CL1  UNL     1      31.801  64.288   9.143  1.00  0.00    -0.083 Cl
HETATM    2  C1  UNL     1      31.001  63.143   8.085  1.00  0.00     0.056 A 
HETATM    3  C2  UNL     1      29.661  62.834   8.166  1.00  0.00     0.026 A 
HETATM    4  C3  UNL     1      29.086  61.919   7.306  1.00  0.00     0.015 A 
HETATM    5  C4  UNL     1      29.821  61.283   6.341  1.00  0.00    -0.008 A 
HETATM    6  C5  UNL     1      29.143  60.392   5.485  1.00  0.00     0.029 A 
HETATM    7  C16 UNL     1      30.001  59.848   4.523  1.00  0.00     0.154 A 
HETATM    8  N2  UNL     1      31.312  60.150   4.437  1.00  0.00    -0.345 N 
ATOM      9  H2  UNL     1      31.872  59.712   3.705  1.00  0.00     0.167 HD
HETATM   10  C22 UNL     1      31.895  60.991   5.269  1.00  0.00     0.104 A 
HETATM   11  C23 UNL     1      31.153  61.574   6.240  1.00  0.00     0.014 A 
HETATM   12  C24 UNL     1      31.749  62.495   7.101  1.00  0.00     0.068 A 
HETATM   13 CL2  UNL     1      33.455  62.852   6.951  1.00  0.00    -0.082 Cl
ENDROOT
BRANCH   6  14
HETATM   14  C6  UNL     1      27.766  59.999   5.728  1.00  0.00    -0.056 C 
BRANCH  14  15
HETATM   15  C7  UNL     1      27.498  58.750   6.514  1.00  0.00     0.016 C 
HETATM   16  C8  UNL     1      26.119  58.190   6.245  1.00  0.00     0.009 C 
HETATM   17  C9  UNL     1      25.833  57.113   7.284  1.00  0.00     0.001 C 
HETATM   18  C10 UNL     1      25.515  57.832   8.587  1.00  0.00     0.000 C 
HETATM   19  C11 UNL     1      26.511  58.923   8.831  1.00  0.00     0.001 C 
HETATM   20  C12 UNL     1      27.752  58.764   7.970  1.00  0.00     0.009 C 
ENDBRANCH  14  15
BRANCH  14  21
HETATM   21  C13 UNL     1      26.663  60.579   4.931  1.00  0.00     0.016 A 
HETATM   22  C14 UNL     1      25.860  61.761   5.589  1.00  0.00     0.010 A 
HETATM   23  C15 UNL     1      26.590  61.897   4.319  1.00  0.00     0.010 A 
ENDBRANCH  14  21
ENDBRANCH   6  14
BRANCH   7  24
HETATM   24  O1  UNL     1      29.485  58.947   3.619  1.00  0.00    -0.330 OA
BRANCH  24  25
HETATM   25  C17 UNL     1      28.992  59.305   2.350  1.00  0.00     0.133 C 
HETATM   26  C18 UNL     1      30.036  59.037   1.265  1.00  0.00     0.060 C 
HETATM   27  C19 UNL     1      29.387  59.586  -0.008  1.00  0.00     0.235 C 
HETATM   28  N1  UNL     1      28.196  58.807  -0.305  1.00  0.00    -0.075 N 
HETATM   29  C20 UNL     1      27.193  59.004   0.726  1.00  0.00     0.235 C 
ATOM     30  H12 UNL     1      27.830  59.012  -1.235  1.00  0.00     0.277 HD
ATOM     31  H11 UNL     1      28.412  57.820  -0.442  1.00  0.00     0.277 HD
HETATM   32  C21 UNL     1      27.724  58.571   2.063  1.00  0.00     0.060 C 
ENDBRANCH  24  25
ENDBRANCH   7  24
TORSDOF 5
ENDMDL
MODEL 3
REMARK VINA RESULT: -6.873658740      0.792      1.204
REMARK  5 active torsions:
REMARK  status: ('A' for Active; 'I' for Inactive)
REMARK    1  A    between atoms: C5_6  and  C6_7 
REMARK    2  A    between atoms: C6_7  and  C7_8 
REMARK    3  A    between atoms: C6_7  and  C13_14 
REMARK    4  A    between atoms: C16_17  and  O1_18 
REMARK    5  A    between atoms: O1_18  and  C17_19 
ROOT
HETATM    1 CL1  UNL     1      27.597  58.855  -0.800  1.00  0.00    -0.083 Cl
HETATM    2  C1  UNL     1      27.797  59.432   0.842  1.00  0.00     0.056 A 
HETATM    3  C2  UNL     1      28.036  58.606   1.920  1.00  0.00     0.026 A 
HETATM    4  C3  UNL     1      28.180  59.119   3.194  1.00  0.00     0.015 A 
HETATM    5  C4  UNL     1      28.093  60.464   3.439  1.00  0.00    -0.008 A 
HETATM    6  C5  UNL     1      28.290  60.899   4.765  1.00  0.00     0.029 A 
HETATM    7  C16 UNL     1      28.218  62.293   4.865  1.00  0.00     0.154 A 
HETATM    8  N2  UNL     1      27.989  63.106   3.814  1.00  0.00    -0.345 N 
ATOM      9  H2  UNL     1      27.953  64.114   3.968  1.00  0.00     0.167 HD
HETATM   10  C22 UNL     1      27.810  62.641   2.593  1.00  0.00     0.104 A 
HETATM   11  C23 UNL     1      27.859  61.303   2.386  1.00  0.00     0.014 A 
HETATM   12  C24 UNL     1      27.710  60.802   1.093  1.00  0.00     0.068 A 
HETATM   13 CL2  UNL     1      27.412  61.897  -0.239  1.00  0.00    -0.082 Cl
ENDROOT
BRANCH   6  14
HETATM   14  C6  UNL     1      28.381  59.962   5.871  1.00  0.00    -0.056 C 
BRANCH  14  15
HETATM   15  C7  UNL     1      27.179  59.751   6.741  1.00  0.00     0.016 C 
HETATM   16  C8  UNL     1      27.541  59.153   8.082  1.00  0.00     0.009 C 
HETATM   17  C9  UNL     1      26.255  58.711   8.768  1.00  0.00     0.001 C 
HETATM   18  C10 UNL     1      25.808  57.428   8.082  1.00  0.00     0.000 C 
HETATM   19  C11 UNL     1      25.901  57.578   6.595  1.00  0.00     0.001 C 
HETATM   20  C12 UNL     1      26.017  59.034   6.176  1.00  0.00     0.009 C 
ENDBRANCH  14  15
BRANCH  14  21
HETATM   21  C13 UNL     1      29.699  59.506   6.367  1.00  0.00     0.016 A 
HETATM   22  C14 UNL     1      30.484  58.490   5.457  1.00  0.00     0.010 A 
HETATM   23  C15 UNL     1      31.017  59.809   5.832  1.00  0.00     0.010 A 
ENDBRANCH  14  21
ENDBRANCH   6  14
BRANCH   7  24
HETATM   24  O1  UNL     1      28.378  62.870   6.105  1.00  0.00    -0.330 OA
BRANCH  24  25
HETATM   25  C17 UNL     1      27.325  63.439   6.846  1.00  0.00     0.133 C 
HETATM   26  C18 UNL     1      25.971  63.066   6.243  1.00  0.00     0.060 C 
HETATM   27  C19 UNL     1      24.967  63.853   7.089  1.00  0.00     0.235 C 
HETATM   28  N1  UNL     1      25.016  63.365   8.458  1.00  0.00    -0.075 N 
HETATM   29  C20 UNL     1      26.305  63.665   9.054  1.00  0.00     0.235 C 
ATOM     30  H12 UNL     1      24.245  63.726   9.019  1.00  0.00     0.277 HD
ATOM     31  H11 UNL     1      24.793  62.372   8.515  1.00  0.00     0.277 HD
HETATM   32  C21 UNL     1      27.410  63.009   8.274  1.00  0.00     0.060 C 
ENDBRANCH  24  25
ENDBRANCH   7  24
TORSDOF 5
ENDMDL
MODEL 4
REMARK VINA RESULT: -6.847994426      3.440      6.071
REMARK  5 active torsions:
REMARK  status: ('A' for Active; 'I' for Inactive)
REMARK    1  A    between atoms: C5_6  and  C6_7 
REMARK    2  A    between atoms: C6_7  and  C7_8 
REMARK    3  A    between atoms: C6_7  and  C13_14 
REMARK    4  A    between atoms: C16_17  and  O1_18 
REMARK    5  A    between atoms: O1_18  and  C17_19 
ROOT
HETATM    1 CL1  UNL     1      23.662  64.923   8.082  1.00  0.00    -0.083 Cl
HETATM    2  C1  UNL     1      25.016  63.892   7.668  1.00  0.00     0.056 A 
HETATM    3  C2  UNL     1      24.936  62.846   6.774  1.00  0.00     0.026 A 
HETATM    4  C3  UNL     1      26.038  62.064   6.490  1.00  0.00     0.015 A 
HETATM    5  C4  UNL     1      27.252  62.294   7.082  1.00  0.00    -0.008 A 
HETATM    6  C5  UNL     1      28.330  61.468   6.703  1.00  0.00     0.029 A 
HETATM    7  C16 UNL     1      29.515  61.839   7.347  1.00  0.00     0.154 A 
HETATM    8  N2  UNL     1      29.600  62.865   8.220  1.00  0.00    -0.345 N 
ATOM      9  H2  UNL     1      30.502  63.075   8.647  1.00  0.00     0.167 HD
HETATM   10  C22 UNL     1      28.555  63.604   8.538  1.00  0.00     0.104 A 
HETATM   11  C23 UNL     1      27.357  63.327   7.970  1.00  0.00     0.014 A 
HETATM   12  C24 UNL     1      26.254  64.126   8.269  1.00  0.00     0.068 A 
HETATM   13 CL2  UNL     1      26.414  65.444   9.409  1.00  0.00    -0.082 Cl
ENDROOT
BRANCH   6  14
HETATM   14  C6  UNL     1      28.135  60.290   5.876  1.00  0.00    -0.056 C 
BRANCH  14  15
HETATM   15  C7  UNL     1      27.810  58.986   6.540  1.00  0.00     0.016 C 
HETATM   16  C8  UNL     1      26.427  58.490   6.181  1.00  0.00     0.009 C 
HETATM   17  C9  UNL     1      26.080  57.335   7.112  1.00  0.00     0.001 C 
HETATM   18  C10 UNL     1      25.738  57.946   8.463  1.00  0.00     0.000 C 
HETATM   19  C11 UNL     1      26.753  58.983   8.832  1.00  0.00     0.001 C 
HETATM   20  C12 UNL     1      28.017  58.865   7.998  1.00  0.00     0.009 C 
ENDBRANCH  14  15
BRANCH  14  21
HETATM   21  C13 UNL     1      28.600  60.269   4.471  1.00  0.00     0.016 A 
HETATM   22  C14 UNL     1      27.535  60.624   3.369  1.00  0.00     0.010 A 
HETATM   23  C15 UNL     1      28.775  61.392   3.563  1.00  0.00     0.010 A 
ENDBRANCH  14  21
ENDBRANCH   6  14
BRANCH   7  24
HETATM   24  O1  UNL     1      30.656  61.115   7.089  1.00  0.00    -0.330 OA
BRANCH  24  25
HETATM   25  C17 UNL     1      31.566  61.428   6.061  1.00  0.00     0.133 C 
HETATM   26  C18 UNL     1      32.693  62.319   6.583  1.00  0.00     0.060 C 
HETATM   27  C19 UNL     1      33.506  62.651   5.329  1.00  0.00     0.235 C 
HETATM   28  N1  UNL     1      34.087  61.426   4.804  1.00  0.00    -0.075 N 
HETATM   29  C20 UNL     1      33.043  60.533   4.333  1.00  0.00     0.235 C 
ATOM     30  H12 UNL     1      34.781  61.613   4.081  1.00  0.00     0.277 HD
ATOM     31  H11 UNL     1      34.696  60.972   5.484  1.00  0.00     0.277 HD
HETATM   32  C21 UNL     1      32.112  60.176   5.458  1.00  0.00     0.060 C 
ENDBRANCH  24  25
ENDBRANCH   7  24
TORSDOF 5
ENDMDL
MODEL 5
REMARK VINA RESULT: -6.784706380      1.483      1.843
REMARK  5 active torsions:
REMARK  status: ('A' for Active; 'I' for Inactive)
REMARK    1  A    between atoms: C5_6  and  C6_7 
REMARK    2  A    between atoms: C6_7  and  C7_8 
REMARK    3  A    between atoms: C6_7  and  C13_14 
REMARK    4  A    between atoms: C16_17  and  O1_18 
REMARK    5  A    between atoms: O1_18  and  C17_19 
ROOT
HETATM    1 CL1  UNL     1      27.266  58.966  -0.947  1.00  0.00    -0.083 Cl
HETATM    2  C1  UNL     1      27.519  59.336   0.746  1.00  0.00     0.056 A 
HETATM    3  C2  UNL     1      28.221  58.524   1.610  1.00  0.00     0.026 A 
HETATM    4  C3  UNL     1      28.384  58.866   2.938  1.00  0.00     0.015 A 
HETATM    5  C4  UNL     1      27.858  60.022   3.450  1.00  0.00    -0.008 A 
HETATM    6  C5  UNL     1      28.107  60.308   4.807  1.00  0.00     0.029 A 
HETATM    7  C16 UNL     1      27.552  61.535   5.186  1.00  0.00     0.154 A 
HETATM    8  N2  UNL     1      26.868  62.336   4.344  1.00  0.00    -0.345 N 
ATOM      9  H2  UNL     1      26.496  63.218   4.696  1.00  0.00     0.167 HD
HETATM   10  C22 UNL     1      26.665  62.016   3.081  1.00  0.00     0.104 A 
HETATM   11  C23 UNL     1      27.160  60.846   2.612  1.00  0.00     0.014 A 
HETATM   12  C24 UNL     1      26.985  60.515   1.269  1.00  0.00     0.068 A 
HETATM   13 CL2  UNL     1      26.088  61.586   0.215  1.00  0.00    -0.082 Cl
ENDROOT
BRANCH   6  14
HETATM   14  C6  UNL     1      28.718  59.332   5.693  1.00  0.00    -0.056 C 
BRANCH  14  15
HETATM   15  C7  UNL     1      27.837  58.520   6.593  1.00  0.00     0.016 C 
HETATM   16  C8  UNL     1      26.401  58.495   6.119  1.00  0.00     0.009 C 
HETATM   17  C9  UNL     1      25.544  57.904   7.231  1.00  0.00     0.001 C 
HETATM   18  C10 UNL     1      25.393  58.984   8.293  1.00  0.00     0.000 C 
HETATM   19  C11 UNL     1      26.719  59.623   8.570  1.00  0.00     0.001 C 
HETATM   20  C12 UNL     1      27.875  58.788   8.046  1.00  0.00     0.009 C 
ENDBRANCH  14  15
BRANCH  14  21
HETATM   21  C13 UNL     1      30.168  59.382   5.984  1.00  0.00     0.016 A 
HETATM   22  C14 UNL     1      31.102  58.493   5.083  1.00  0.00     0.010 A 
HETATM   23  C15 UNL     1      31.231  59.955   5.173  1.00  0.00     0.010 A 
ENDBRANCH  14  21
ENDBRANCH   6  14
BRANCH   7  24
HETATM   24  O1  UNL     1      27.700  61.947   6.491  1.00  0.00    -0.330 OA
BRANCH  24  25
HETATM   25  C17 UNL     1      28.724  62.809   6.929  1.00  0.00     0.133 C 
HETATM   26  C18 UNL     1      28.156  64.169   7.333  1.00  0.00     0.060 C 
HETATM   27  C19 UNL     1      29.398  65.000   7.661  1.00  0.00     0.235 C 
HETATM   28  N1  UNL     1      30.068  64.415   8.812  1.00  0.00    -0.075 N 
HETATM   29  C20 UNL     1      30.589  63.102   8.480  1.00  0.00     0.235 C 
ATOM     30  H12 UNL     1      30.793  65.029   9.183  1.00  0.00     0.277 HD
ATOM     31  H11 UNL     1      29.461  64.387   9.631  1.00  0.00     0.277 HD
HETATM   32  C21 UNL     1      29.473  62.186   8.061  1.00  0.00     0.060 C 
ENDBRANCH  24  25
ENDBRANCH   7  24
TORSDOF 5
ENDMDL
