MODEL 1
REMARK VINA RESULT: -8.291279483      0.000      0.000
REMARK  10 active torsions:
REMARK  status: ('A' for Active; 'I' for Inactive)
REMARK    1  A    between atoms: O1_2  and  C2_3 
REMARK    2  A    between atoms: C2_3  and  O2_4 
REMARK    3  A    between atoms: C2_3  and  C3_6 
REMARK    4  A    between atoms: C5_8  and  O3_9 
REMARK    5  A    between atoms: O3_9  and  C6_10 
REMARK    6  A    between atoms: C14_19  and  O4_20 
REMARK    7  A    between atoms: C15_22  and  C16_23 
REMARK       I    between atoms: C16_23  and  N1_25 
REMARK    8  A    between atoms: N1_25  and  C17_27 
REMARK    9  A    between atoms: C19_29  and  O6_30 
REMARK   10  A    between atoms: C19_29  and  N2_32 
ROOT
HETATM    1  C3  UNL     1       3.274  -0.479  22.021  1.00  0.00     0.043 A 
HETATM    2  C4  UNL     1       3.671  -0.715  20.681  1.00  0.00     0.054 A 
HETATM    3  C5  UNL     1       3.763   0.275  19.757  1.00  0.00     0.079 A 
HETATM    4  C13 UNL     1       3.459   1.545  20.152  1.00  0.00     0.074 A 
HETATM    5  C14 UNL     1       3.071   1.810  21.443  1.00  0.00     0.085 A 
HETATM    6  C15 UNL     1       2.968   0.787  22.423  1.00  0.00     0.080 A 
ENDROOT
BRANCH   6   7
HETATM    7  C16 UNL     1       2.530   1.151  23.740  1.00  0.00     0.259 C 
HETATM    8  O5  UNL     1       3.260   1.515  24.666  1.00  0.00    -0.267 OA
HETATM    9  N1  UNL     1       1.102   1.091  24.040  1.00  0.00    -0.323 N 
ATOM     10  H1  UNL     1       0.452   1.726  23.577  1.00  0.00     0.169 HD
BRANCH   9  11
HETATM   11  C17 UNL     1       0.661   0.207  24.917  1.00  0.00     0.059 C 
HETATM   12  C18 UNL     1       0.144  -1.090  24.477  1.00  0.00     0.073 C 
HETATM   13  C19 UNL     1       0.747   0.610  26.293  1.00  0.00     0.160 C 
BRANCH  13  14
HETATM   14  O6  UNL     1       1.245   1.811  26.519  1.00  0.00    -0.345 OA
ATOM     15  H6  UNL     1       1.052   2.474  25.867  1.00  0.00     0.219 HD
ENDBRANCH  13  14
BRANCH  13  16
HETATM   16  N2  UNL     1       0.385  -0.074  27.443  1.00  0.00    -0.369 N 
HETATM   17  C20 UNL     1      -0.855   0.083  28.147  1.00  0.00     0.151 C 
HETATM   18  C21 UNL     1       1.380  -1.050  27.979  1.00  0.00     0.151 C 
ENDBRANCH  13  16
ENDBRANCH   9  11
ENDBRANCH   6   7
BRANCH   1  19
HETATM   19  C2  UNL     1       3.228  -1.629  22.864  1.00  0.00     0.189 C 
BRANCH  19  20
HETATM   20  O1  UNL     1       3.704  -1.868  24.099  1.00  0.00    -0.335 OA
HETATM   21  C1  UNL     1       3.336  -3.041  24.845  1.00  0.00     0.212 C 
ENDBRANCH  19  20
BRANCH  19  22
HETATM   22  O2  UNL     1       2.602  -2.670  22.358  1.00  0.00    -0.340 OA
ATOM     23  H2  UNL     1       1.985  -3.054  22.969  1.00  0.00     0.220 HD
ENDBRANCH  19  22
ENDBRANCH   1  19
BRANCH   5  24
HETATM   24  O4  UNL     1       2.764   3.089  21.851  1.00  0.00    -0.360 OA
ATOM     25  H4  UNL     1       3.210   3.845  21.488  1.00  0.00     0.217 HD
ENDBRANCH   5  24
BRANCH   3  26
HETATM   26  O3  UNL     1       4.161  -0.048  18.463  1.00  0.00    -0.309 OA
BRANCH  26  27
HETATM   27  C6  UNL     1       3.338  -0.710  17.578  1.00  0.00     0.093 A 
HETATM   28  C7  UNL     1       1.982  -0.814  17.851  1.00  0.00     0.039 A 
HETATM   29  C8  UNL     1       1.163  -1.483  16.950  1.00  0.00     0.009 A 
HETATM   30  C9  UNL     1       1.704  -2.036  15.800  1.00  0.00    -0.061 A 
HETATM   31  C10 UNL     1       0.789  -2.750  14.857  1.00  0.00     0.048 C 
HETATM   32  C11 UNL     1       3.052  -1.908  15.573  1.00  0.00     0.028 A 
HETATM   33  C12 UNL     1       3.904  -1.250  16.442  1.00  0.00     0.045 A 
HETATM   34 BR1  UNL     1       5.776  -1.091  16.094  1.00  0.00    -0.048 Br
ENDBRANCH  26  27
ENDBRANCH   3  26
TORSDOF 10
ENDMDL
MODEL 2
REMARK VINA RESULT: -8.235669282      2.052      3.582
REMARK  10 active torsions:
REMARK  status: ('A' for Active; 'I' for Inactive)
REMARK    1  A    between atoms: O1_2  and  C2_3 
REMARK    2  A    between atoms: C2_3  and  O2_4 
REMARK    3  A    between atoms: C2_3  and  C3_6 
REMARK    4  A    between atoms: C5_8  and  O3_9 
REMARK    5  A    between atoms: O3_9  and  C6_10 
REMARK    6  A    between atoms: C14_19  and  O4_20 
REMARK    7  A    between atoms: C15_22  and  C16_23 
REMARK       I    between atoms: C16_23  and  N1_25 
REMARK    8  A    between atoms: N1_25  and  C17_27 
REMARK    9  A    between atoms: C19_29  and  O6_30 
REMARK   10  A    between atoms: C19_29  and  N2_32 
ROOT
HETATM    1  C3  UNL     1       2.246   0.672  21.826  1.00  0.00     0.043 A 
HETATM    2  C4  UNL     1       2.580   0.782  20.454  1.00  0.00     0.054 A 
HETATM    3  C5  UNL     1       2.994  -0.276  19.711  1.00  0.00     0.079 A 
HETATM    4  C13 UNL     1       3.087  -1.490  20.327  1.00  0.00     0.074 A 
HETATM    5  C14 UNL     1       2.771  -1.633  21.656  1.00  0.00     0.085 A 
HETATM    6  C15 UNL     1       2.336  -0.538  22.449  1.00  0.00     0.080 A 
ENDROOT
BRANCH   6   7
HETATM    7  C16 UNL     1       2.052  -0.774  23.836  1.00  0.00     0.259 C 
HETATM    8  O5  UNL     1       2.861  -0.675  24.762  1.00  0.00    -0.267 OA
HETATM    9  N1  UNL     1       0.698  -1.170  24.211  1.00  0.00    -0.323 N 
ATOM     10  H1  UNL     1      -0.080  -0.520  24.095  1.00  0.00     0.169 HD
BRANCH   9  11
HETATM   11  C17 UNL     1       0.489  -2.378  24.703  1.00  0.00     0.059 C 
HETATM   12  C18 UNL     1       0.801  -2.681  26.101  1.00  0.00     0.073 C 
HETATM   13  C19 UNL     1      -0.070  -3.329  23.783  1.00  0.00     0.160 C 
BRANCH  13  14
HETATM   14  O6  UNL     1      -0.298  -2.891  22.559  1.00  0.00    -0.345 OA
ATOM     15  H6  UNL     1      -0.643  -3.526  21.944  1.00  0.00     0.219 HD
ENDBRANCH  13  14
BRANCH  13  16
HETATM   16  N2  UNL     1      -0.413  -4.657  23.978  1.00  0.00    -0.369 N 
HETATM   17  C20 UNL     1      -1.711  -5.130  24.366  1.00  0.00     0.151 C 
HETATM   18  C21 UNL     1       0.669  -5.664  23.766  1.00  0.00     0.151 C 
ENDBRANCH  13  16
ENDBRANCH   9  11
ENDBRANCH   6   7
BRANCH   1  19
HETATM   19  C2  UNL     1       1.829   1.879  22.461  1.00  0.00     0.189 C 
BRANCH  19  20
HETATM   20  O1  UNL     1       0.648   2.277  22.967  1.00  0.00    -0.335 OA
HETATM   21  C1  UNL     1       0.436   2.429  24.381  1.00  0.00     0.212 C 
ENDBRANCH  19  20
BRANCH  19  22
HETATM   22  O2  UNL     1       2.763   2.797  22.586  1.00  0.00    -0.340 OA
ATOM     23  H2  UNL     1       3.622   2.421  22.738  1.00  0.00     0.220 HD
ENDBRANCH  19  22
ENDBRANCH   1  19
BRANCH   5  24
HETATM   24  O4  UNL     1       2.859  -2.854  22.286  1.00  0.00    -0.360 OA
ATOM     25  H4  UNL     1       2.360  -3.043  23.072  1.00  0.00     0.217 HD
ENDBRANCH   5  24
BRANCH   3  26
HETATM   26  O3  UNL     1       3.302  -0.076  18.368  1.00  0.00    -0.309 OA
BRANCH  26  27
HETATM   27  C6  UNL     1       2.739  -0.826  17.359  1.00  0.00     0.093 A 
HETATM   28  C7  UNL     1       1.368  -1.041  17.349  1.00  0.00     0.039 A 
HETATM   29  C8  UNL     1       0.813  -1.799  16.326  1.00  0.00     0.009 A 
HETATM   30  C9  UNL     1       1.625  -2.328  15.336  1.00  0.00    -0.061 A 
HETATM   31  C10 UNL     1       0.988  -3.140  14.252  1.00  0.00     0.048 C 
HETATM   32  C11 UNL     1       2.976  -2.090  15.388  1.00  0.00     0.028 A 
HETATM   33  C12 UNL     1       3.572  -1.341  16.387  1.00  0.00     0.045 A 
HETATM   34 BR1  UNL     1       5.456  -1.028  16.429  1.00  0.00    -0.048 Br
ENDBRANCH  26  27
ENDBRANCH   3  26
TORSDOF 10
ENDMDL
MODEL 3
REMARK VINA RESULT: -8.152323073      1.826      2.444
REMARK  10 active torsions:
REMARK  status: ('A' for Active; 'I' for Inactive)
REMARK    1  A    between atoms: O1_2  and  C2_3 
REMARK    2  A    between atoms: C2_3  and  O2_4 
REMARK    3  A    between atoms: C2_3  and  C3_6 
REMARK    4  A    between atoms: C5_8  and  O3_9 
REMARK    5  A    between atoms: O3_9  and  C6_10 
REMARK    6  A    between atoms: C14_19  and  O4_20 
REMARK    7  A    between atoms: C15_22  and  C16_23 
REMARK       I    between atoms: C16_23  and  N1_25 
REMARK    8  A    between atoms: N1_25  and  C17_27 
REMARK    9  A    between atoms: C19_29  and  O6_30 
REMARK   10  A    between atoms: C19_29  and  N2_32 
ROOT
HETATM    1  C3  UNL     1       2.614  -1.110  22.039  1.00  0.00     0.043 A 
HETATM    2  C4  UNL     1       3.109  -1.057  20.712  1.00  0.00     0.054 A 
HETATM    3  C5  UNL     1       2.886  -0.003  19.886  1.00  0.00     0.079 A 
HETATM    4  C13 UNL     1       2.153   1.042  20.370  1.00  0.00     0.074 A 
HETATM    5  C14 UNL     1       1.657   1.024  21.651  1.00  0.00     0.085 A 
HETATM    6  C15 UNL     1       1.880  -0.070  22.529  1.00  0.00     0.080 A 
ENDROOT
BRANCH   6   7
HETATM    7  C16 UNL     1       1.303  -0.016  23.842  1.00  0.00     0.259 C 
HETATM    8  O5  UNL     1       1.853   0.435  24.850  1.00  0.00    -0.267 OA
HETATM    9  N1  UNL     1      -0.049  -0.534  24.030  1.00  0.00    -0.323 N 
ATOM     10  H1  UNL     1      -0.844  -0.071  23.590  1.00  0.00     0.169 HD
BRANCH   9  11
HETATM   11  C17 UNL     1      -0.233  -1.608  24.776  1.00  0.00     0.059 C 
HETATM   12  C18 UNL     1      -0.145  -1.530  26.235  1.00  0.00     0.073 C 
HETATM   13  C19 UNL     1      -0.535  -2.813  24.055  1.00  0.00     0.160 C 
BRANCH  13  14
HETATM   14  O6  UNL     1      -0.584  -2.710  22.741  1.00  0.00    -0.345 OA
ATOM     15  H6  UNL     1       0.213  -2.930  22.272  1.00  0.00     0.219 HD
ENDBRANCH  13  14
BRANCH  13  16
HETATM   16  N2  UNL     1      -0.789  -4.091  24.528  1.00  0.00    -0.369 N 
HETATM   17  C20 UNL     1      -1.989  -4.506  25.196  1.00  0.00     0.151 C 
HETATM   18  C21 UNL     1       0.287  -5.105  24.320  1.00  0.00     0.151 C 
ENDBRANCH  13  16
ENDBRANCH   9  11
ENDBRANCH   6   7
BRANCH   1  19
HETATM   19  C2  UNL     1       2.938  -2.289  22.773  1.00  0.00     0.189 C 
BRANCH  19  20
HETATM   20  O1  UNL     1       3.662  -2.493  23.888  1.00  0.00    -0.335 OA
HETATM   21  C1  UNL     1       3.088  -3.062  25.077  1.00  0.00     0.212 C 
ENDBRANCH  19  20
BRANCH  19  22
HETATM   22  O2  UNL     1       2.443  -3.406  22.285  1.00  0.00    -0.340 OA
ATOM     23  H2  UNL     1       1.851  -3.253  21.558  1.00  0.00     0.220 HD
ENDBRANCH  19  22
ENDBRANCH   1  19
BRANCH   5  24
HETATM   24  O4  UNL     1       0.918   2.074  22.149  1.00  0.00    -0.360 OA
ATOM     25  H4  UNL     1       0.215   1.932  22.772  1.00  0.00     0.217 HD
ENDBRANCH   5  24
BRANCH   3  26
HETATM   26  O3  UNL     1       3.410  -0.035  18.598  1.00  0.00    -0.309 OA
BRANCH  26  27
HETATM   27  C6  UNL     1       2.837  -0.768  17.581  1.00  0.00     0.093 A 
HETATM   28  C7  UNL     1       1.467  -0.992  17.588  1.00  0.00     0.039 A 
HETATM   29  C8  UNL     1       0.901  -1.732  16.558  1.00  0.00     0.009 A 
HETATM   30  C9  UNL     1       1.702  -2.236  15.545  1.00  0.00    -0.061 A 
HETATM   31  C10 UNL     1       1.054  -3.029  14.455  1.00  0.00     0.048 C 
HETATM   32  C11 UNL     1       3.052  -1.989  15.581  1.00  0.00     0.028 A 
HETATM   33  C12 UNL     1       3.658  -1.257  16.587  1.00  0.00     0.045 A 
HETATM   34 BR1  UNL     1       5.541  -0.933  16.606  1.00  0.00    -0.048 Br
ENDBRANCH  26  27
ENDBRANCH   3  26
TORSDOF 10
ENDMDL
MODEL 4
REMARK VINA RESULT: -8.104217095      1.673      3.030
REMARK  10 active torsions:
REMARK  status: ('A' for Active; 'I' for Inactive)
REMARK    1  A    between atoms: O1_2  and  C2_3 
REMARK    2  A    between atoms: C2_3  and  O2_4 
REMARK    3  A    between atoms: C2_3  and  C3_6 
REMARK    4  A    between atoms: C5_8  and  O3_9 
REMARK    5  A    between atoms: O3_9  and  C6_10 
REMARK    6  A    between atoms: C14_19  and  O4_20 
REMARK    7  A    between atoms: C15_22  and  C16_23 
REMARK       I    between atoms: C16_23  and  N1_25 
REMARK    8  A    between atoms: N1_25  and  C17_27 
REMARK    9  A    between atoms: C19_29  and  O6_30 
REMARK   10  A    between atoms: C19_29  and  N2_32 
ROOT
HETATM    1  C3  UNL     1       3.314   0.005  22.400  1.00  0.00     0.043 A 
HETATM    2  C4  UNL     1       3.395   0.363  21.031  1.00  0.00     0.054 A 
HETATM    3  C5  UNL     1       3.264  -0.540  20.027  1.00  0.00     0.079 A 
HETATM    4  C13 UNL     1       3.046  -1.844  20.366  1.00  0.00     0.074 A 
HETATM    5  C14 UNL     1       2.962  -2.226  21.684  1.00  0.00     0.085 A 
HETATM    6  C15 UNL     1       3.096  -1.295  22.748  1.00  0.00     0.080 A 
ENDROOT
BRANCH   6   7
HETATM    7  C16 UNL     1       3.021  -1.787  24.094  1.00  0.00     0.259 C 
HETATM    8  O5  UNL     1       3.774  -2.624  24.596  1.00  0.00    -0.267 OA
HETATM    9  N1  UNL     1       1.969  -1.271  24.965  1.00  0.00    -0.323 N 
ATOM     10  H1  UNL     1       1.973  -0.292  25.253  1.00  0.00     0.169 HD
BRANCH   9  11
HETATM   11  C17 UNL     1       1.013  -2.083  25.377  1.00  0.00     0.059 C 
HETATM   12  C18 UNL     1      -0.137  -2.382  24.521  1.00  0.00     0.073 C 
HETATM   13  C19 UNL     1       1.203  -2.642  26.687  1.00  0.00     0.160 C 
BRANCH  13  14
HETATM   14  O6  UNL     1       2.298  -2.275  27.324  1.00  0.00    -0.345 OA
ATOM     15  H6  UNL     1       2.221  -1.512  27.885  1.00  0.00     0.219 HD
ENDBRANCH  13  14
BRANCH  13  16
HETATM   16  N2  UNL     1       0.405  -3.523  27.400  1.00  0.00    -0.369 N 
HETATM   17  C20 UNL     1       0.306  -4.934  27.161  1.00  0.00     0.151 C 
HETATM   18  C21 UNL     1      -0.413  -2.937  28.504  1.00  0.00     0.151 C 
ENDBRANCH  13  16
ENDBRANCH   9  11
ENDBRANCH   6   7
BRANCH   1  19
HETATM   19  C2  UNL     1       3.473   1.076  23.329  1.00  0.00     0.189 C 
BRANCH  19  20
HETATM   20  O1  UNL     1       2.590   1.796  24.043  1.00  0.00    -0.335 OA
HETATM   21  C1  UNL     1       1.251   2.038  23.579  1.00  0.00     0.212 C 
ENDBRANCH  19  20
BRANCH  19  22
HETATM   22  O2  UNL     1       4.717   1.447  23.548  1.00  0.00    -0.340 OA
ATOM     23  H2  UNL     1       4.941   2.248  23.089  1.00  0.00     0.220 HD
ENDBRANCH  19  22
ENDBRANCH   1  19
BRANCH   5  24
HETATM   24  O4  UNL     1       2.740  -3.539  22.036  1.00  0.00    -0.360 OA
ATOM     25  H4  UNL     1       1.880  -3.934  21.954  1.00  0.00     0.217 HD
ENDBRANCH   5  24
BRANCH   3  26
HETATM   26  O3  UNL     1       3.357  -0.100  18.710  1.00  0.00    -0.309 OA
BRANCH  26  27
HETATM   27  C6  UNL     1       2.801  -0.792  17.655  1.00  0.00     0.093 A 
HETATM   28  C7  UNL     1       1.429  -0.996  17.619  1.00  0.00     0.039 A 
HETATM   29  C8  UNL     1       0.880  -1.695  16.552  1.00  0.00     0.009 A 
HETATM   30  C9  UNL     1       1.700  -2.176  15.543  1.00  0.00    -0.061 A 
HETATM   31  C10 UNL     1       1.070  -2.924  14.411  1.00  0.00     0.048 C 
HETATM   32  C11 UNL     1       3.052  -1.950  15.622  1.00  0.00     0.028 A 
HETATM   33  C12 UNL     1       3.641  -1.260  16.667  1.00  0.00     0.045 A 
HETATM   34 BR1  UNL     1       5.527  -0.963  16.745  1.00  0.00    -0.048 Br
ENDBRANCH  26  27
ENDBRANCH   3  26
TORSDOF 10
ENDMDL
MODEL 5
REMARK VINA RESULT: -7.998962618      1.880      2.572
REMARK  10 active torsions:
REMARK  status: ('A' for Active; 'I' for Inactive)
REMARK    1  A    between atoms: O1_2  and  C2_3 
REMARK    2  A    between atoms: C2_3  and  O2_4 
REMARK    3  A    between atoms: C2_3  and  C3_6 
REMARK    4  A    between atoms: C5_8  and  O3_9 
REMARK    5  A    between atoms: O3_9  and  C6_10 
REMARK    6  A    between atoms: C14_19  and  O4_20 
REMARK    7  A    between atoms: C15_22  and  C16_23 
REMARK       I    between atoms: C16_23  and  N1_25 
REMARK    8  A    between atoms: N1_25  and  C17_27 
REMARK    9  A    between atoms: C19_29  and  O6_30 
REMARK   10  A    between atoms: C19_29  and  N2_32 
ROOT
HETATM    1  C3  UNL     1       2.655  -2.219  21.621  1.00  0.00     0.043 A 
HETATM    2  C4  UNL     1       2.761  -1.698  20.307  1.00  0.00     0.054 A 
HETATM    3  C5  UNL     1       3.253  -0.460  20.046  1.00  0.00     0.079 A 
HETATM    4  C13 UNL     1       3.659   0.302  21.104  1.00  0.00     0.074 A 
HETATM    5  C14 UNL     1       3.569  -0.172  22.390  1.00  0.00     0.085 A 
HETATM    6  C15 UNL     1       3.057  -1.465  22.683  1.00  0.00     0.080 A 
ENDROOT
BRANCH   6   7
HETATM    7  C16 UNL     1       2.977  -1.868  24.058  1.00  0.00     0.259 C 
HETATM    8  O5  UNL     1       3.673  -2.732  24.595  1.00  0.00    -0.267 OA
HETATM    9  N1  UNL     1       1.992  -1.217  24.917  1.00  0.00    -0.323 N 
ATOM     10  H1  UNL     1       2.082  -0.226  25.144  1.00  0.00     0.169 HD
BRANCH   9  11
HETATM   11  C17 UNL     1       0.985  -1.922  25.398  1.00  0.00     0.059 C 
HETATM   12  C18 UNL     1      -0.206  -2.177  24.585  1.00  0.00     0.073 C 
HETATM   13  C19 UNL     1       1.162  -2.416  26.735  1.00  0.00     0.160 C 
BRANCH  13  14
HETATM   14  O6  UNL     1       2.299  -2.101  27.326  1.00  0.00    -0.345 OA
ATOM     15  H6  UNL     1       2.855  -2.828  27.580  1.00  0.00     0.219 HD
ENDBRANCH  13  14
BRANCH  13  16
HETATM   16  N2  UNL     1       0.315  -3.184  27.518  1.00  0.00    -0.369 N 
HETATM   17  C20 UNL     1       0.133  -4.602  27.399  1.00  0.00     0.151 C 
HETATM   18  C21 UNL     1      -0.466  -2.460  28.564  1.00  0.00     0.151 C 
ENDBRANCH  13  16
ENDBRANCH   9  11
ENDBRANCH   6   7
BRANCH   1  19
HETATM   19  C2  UNL     1       2.117  -3.536  21.721  1.00  0.00     0.189 C 
BRANCH  19  20
HETATM   20  O1  UNL     1       0.865  -4.015  21.612  1.00  0.00    -0.335 OA
HETATM   21  C1  UNL     1       0.243  -4.243  20.335  1.00  0.00     0.212 C 
ENDBRANCH  19  20
BRANCH  19  22
HETATM   22  O2  UNL     1       2.996  -4.483  21.968  1.00  0.00    -0.340 OA
ATOM     23  H2  UNL     1       3.662  -4.543  21.293  1.00  0.00     0.220 HD
ENDBRANCH  19  22
ENDBRANCH   1  19
BRANCH   5  24
HETATM   24  O4  UNL     1       3.977   0.587  23.464  1.00  0.00    -0.360 OA
ATOM     25  H4  UNL     1       3.672   0.404  24.344  1.00  0.00     0.217 HD
ENDBRANCH   5  24
BRANCH   3  26
HETATM   26  O3  UNL     1       3.322  -0.028  18.725  1.00  0.00    -0.309 OA
BRANCH  26  27
HETATM   27  C6  UNL     1       2.781  -0.747  17.680  1.00  0.00     0.093 A 
HETATM   28  C7  UNL     1       1.410  -0.961  17.635  1.00  0.00     0.039 A 
HETATM   29  C8  UNL     1       0.877  -1.687  16.577  1.00  0.00     0.009 A 
HETATM   30  C9  UNL     1       1.710  -2.185  15.589  1.00  0.00    -0.061 A 
HETATM   31  C10 UNL     1       1.097  -2.962  14.468  1.00  0.00     0.048 C 
HETATM   32  C11 UNL     1       3.060  -1.949  15.677  1.00  0.00     0.028 A 
HETATM   33  C12 UNL     1       3.634  -1.231  16.712  1.00  0.00     0.045 A 
HETATM   34 BR1  UNL     1       5.517  -0.920  16.802  1.00  0.00    -0.048 Br
ENDBRANCH  26  27
ENDBRANCH   3  26
TORSDOF 10
ENDMDL
