MODEL 1
REMARK VINA RESULT: -8.290368417      0.000      0.000
REMARK  1 active torsions:
REMARK  status: ('A' for Active; 'I' for Inactive)
REMARK    1  A    between atoms: C2_2  and  C3_3 
ROOT
HETATM    1  C3  UNL     1      32.936  35.970  38.685  1.00  0.00     0.007 A 
HETATM    2  S1  UNL     1      32.167  37.303  37.953  1.00  0.00    -0.074 SA
HETATM    3  C4  UNL     1      30.579  37.059  38.523  1.00  0.00     0.089 A 
HETATM    4  N1  UNL     1      29.314  37.538  38.505  1.00  0.00    -0.349 N 
ATOM      5  H1  UNL     1      28.983  38.368  38.013  1.00  0.00     0.166 HD
HETATM    6  C5  UNL     1      28.582  36.709  39.261  1.00  0.00     0.070 A 
HETATM    7  C6  UNL     1      29.395  35.716  39.759  1.00  0.00     0.089 A 
HETATM    8  C7  UNL     1      30.692  35.928  39.281  1.00  0.00     0.051 A 
HETATM    9  C8  UNL     1      31.916  35.362  39.366  1.00  0.00     0.062 A 
HETATM   10 CL1  UNL     1      32.314  33.879  40.295  1.00  0.00    -0.082 Cl
HETATM   11  N2  UNL     1      28.622  34.921  40.707  1.00  0.00    -0.280 N 
ATOM     12  H2  UNL     1      28.952  34.105  41.223  1.00  0.00     0.189 HD
HETATM   13  N3  UNL     1      27.311  35.500  40.779  1.00  0.00    -0.220 N 
HETATM   14  N4  UNL     1      26.323  35.440  41.751  1.00  0.00    -0.294 N 
ATOM     15  H4  UNL     1      26.353  34.691  42.441  1.00  0.00     0.187 HD
HETATM   16  C9  UNL     1      25.363  36.310  41.805  1.00  0.00     0.108 C 
HETATM   17  C10 UNL     1      25.325  37.341  40.786  1.00  0.00     0.017 C 
HETATM   18  C11 UNL     1      26.207  37.382  39.780  1.00  0.00     0.009 C 
HETATM   19  C12 UNL     1      27.213  36.362  39.661  1.00  0.00     0.202 C 
ENDROOT
BRANCH   1  20
HETATM   20  C2  UNL     1      34.389  35.592  38.577  1.00  0.00     0.043 C 
HETATM   21  C1  UNL     1      34.953  35.993  37.225  1.00  0.00     0.010 C 
ENDBRANCH   1  20
TORSDOF 1
ENDMDL
MODEL 2
REMARK VINA RESULT: -8.269888477      2.656      6.663
REMARK  1 active torsions:
REMARK  status: ('A' for Active; 'I' for Inactive)
REMARK    1  A    between atoms: C2_2  and  C3_3 
ROOT
HETATM    1  C3  UNL     1      27.059  36.710  40.265  1.00  0.00     0.007 A 
HETATM    2  S1  UNL     1      27.970  35.758  41.347  1.00  0.00    -0.074 SA
HETATM    3  C4  UNL     1      29.403  35.594  40.439  1.00  0.00     0.089 A 
HETATM    4  N1  UNL     1      30.643  35.054  40.421  1.00  0.00    -0.349 N 
ATOM      5  H1  UNL     1      31.073  34.491  41.155  1.00  0.00     0.166 HD
HETATM    6  C5  UNL     1      31.195  35.404  39.252  1.00  0.00     0.070 A 
HETATM    7  C6  UNL     1      30.300  36.172  38.543  1.00  0.00     0.089 A 
HETATM    8  C7  UNL     1      29.130  36.296  39.298  1.00  0.00     0.051 A 
HETATM    9  C8  UNL     1      27.913  36.876  39.208  1.00  0.00     0.062 A 
HETATM   10 CL1  UNL     1      27.323  37.845  37.817  1.00  0.00    -0.082 Cl
HETATM   11  N2  UNL     1      30.972  36.679  37.352  1.00  0.00    -0.280 N 
ATOM     12  H2  UNL     1      30.558  37.264  36.625  1.00  0.00     0.189 HD
HETATM   13  N3  UNL     1      32.325  36.205  37.392  1.00  0.00    -0.220 N 
HETATM   14  N4  UNL     1      33.487  36.663  36.789  1.00  0.00    -0.294 N 
ATOM     15  H4  UNL     1      33.415  37.280  35.980  1.00  0.00     0.187 HD
HETATM   16  C9  UNL     1      34.662  36.330  37.224  1.00  0.00     0.108 C 
HETATM   17  C10 UNL     1      34.733  35.419  38.351  1.00  0.00     0.017 C 
HETATM   18  C11 UNL     1      33.639  34.885  38.906  1.00  0.00     0.009 C 
HETATM   19  C12 UNL     1      32.340  35.176  38.362  1.00  0.00     0.202 C 
ENDROOT
BRANCH   1  20
HETATM   20  C2  UNL     1      25.656  37.218  40.467  1.00  0.00     0.043 C 
HETATM   21  C1  UNL     1      25.158  36.891  41.863  1.00  0.00     0.010 C 
ENDBRANCH   1  20
TORSDOF 1
ENDMDL
MODEL 3
REMARK VINA RESULT: -7.887987972      2.563      6.267
REMARK  1 active torsions:
REMARK  status: ('A' for Active; 'I' for Inactive)
REMARK    1  A    between atoms: C2_2  and  C3_3 
ROOT
HETATM    1  C3  UNL     1      26.792  36.791  39.949  1.00  0.00     0.007 A 
HETATM    2  S1  UNL     1      27.125  37.650  38.515  1.00  0.00    -0.074 SA
HETATM    3  C4  UNL     1      28.815  37.439  38.447  1.00  0.00     0.089 A 
HETATM    4  N1  UNL     1      29.936  37.721  37.744  1.00  0.00    -0.349 N 
ATOM      5  H1  UNL     1      29.994  38.260  36.880  1.00  0.00     0.166 HD
HETATM    6  C5  UNL     1      30.954  37.154  38.404  1.00  0.00     0.070 A 
HETATM    7  C6  UNL     1      30.465  36.508  39.517  1.00  0.00     0.089 A 
HETATM    8  C7  UNL     1      29.080  36.692  39.561  1.00  0.00     0.051 A 
HETATM    9  C8  UNL     1      28.029  36.356  40.341  1.00  0.00     0.062 A 
HETATM   10 CL1  UNL     1      28.122  35.386  41.848  1.00  0.00    -0.082 Cl
HETATM   11  N2  UNL     1      31.557  35.762  40.132  1.00  0.00    -0.280 N 
ATOM     12  H2  UNL     1      31.503  35.200  40.982  1.00  0.00     0.189 HD
HETATM   13  N3  UNL     1      32.722  35.964  39.320  1.00  0.00    -0.220 N 
HETATM   14  N4  UNL     1      33.889  35.228  39.171  1.00  0.00    -0.294 N 
ATOM     15  H4  UNL     1      34.148  34.559  39.896  1.00  0.00     0.187 HD
HETATM   16  C9  UNL     1      34.659  35.368  38.138  1.00  0.00     0.108 C 
HETATM   17  C10 UNL     1      34.286  36.356  37.143  1.00  0.00     0.017 C 
HETATM   18  C11 UNL     1      33.217  37.147  37.291  1.00  0.00     0.009 C 
HETATM   19  C12 UNL     1      32.416  37.063  38.482  1.00  0.00     0.202 C 
ENDROOT
BRANCH   1  20
HETATM   20  C2  UNL     1      25.446  36.590  40.592  1.00  0.00     0.043 C 
HETATM   21  C1  UNL     1      25.342  37.375  41.887  1.00  0.00     0.010 C 
ENDBRANCH   1  20
TORSDOF 1
ENDMDL
MODEL 4
REMARK VINA RESULT: -7.855646446      1.941      2.463
REMARK  1 active torsions:
REMARK  status: ('A' for Active; 'I' for Inactive)
REMARK    1  A    between atoms: C2_2  and  C3_3 
ROOT
HETATM    1  C3  UNL     1      33.544  35.877  38.195  1.00  0.00     0.007 A 
HETATM    2  S1  UNL     1      33.260  34.895  39.558  1.00  0.00    -0.074 SA
HETATM    3  C4  UNL     1      31.674  35.391  39.936  1.00  0.00     0.089 A 
HETATM    4  N1  UNL     1      30.638  35.220  40.789  1.00  0.00    -0.349 N 
ATOM      5  H1  UNL     1      30.601  34.582  41.584  1.00  0.00     0.166 HD
HETATM    6  C5  UNL     1      29.670  36.054  40.386  1.00  0.00     0.070 A 
HETATM    7  C6  UNL     1      30.101  36.739  39.273  1.00  0.00     0.089 A 
HETATM    8  C7  UNL     1      31.402  36.324  38.975  1.00  0.00     0.051 A 
HETATM    9  C8  UNL     1      32.373  36.576  38.071  1.00  0.00     0.062 A 
HETATM   10 CL1  UNL     1      32.256  37.754  36.720  1.00  0.00    -0.082 Cl
HETATM   11  N2  UNL     1      28.983  37.518  38.751  1.00  0.00    -0.280 N 
ATOM     12  H2  UNL     1      29.003  38.140  37.942  1.00  0.00     0.189 HD
HETATM   13  N3  UNL     1      27.848  37.246  39.585  1.00  0.00    -0.220 N 
HETATM   14  N4  UNL     1      26.484  37.362  39.363  1.00  0.00    -0.294 N 
ATOM     15  H4  UNL     1      26.155  37.959  38.604  1.00  0.00     0.187 HD
HETATM   16  C9  UNL     1      25.615  36.735  40.093  1.00  0.00     0.108 C 
HETATM   17  C10 UNL     1      26.111  35.926  41.190  1.00  0.00     0.017 C 
HETATM   18  C11 UNL     1      27.412  35.856  41.493  1.00  0.00     0.009 C 
HETATM   19  C12 UNL     1      28.369  36.629  40.747  1.00  0.00     0.202 C 
ENDROOT
BRANCH   1  20
HETATM   20  C2  UNL     1      34.797  35.930  37.362  1.00  0.00     0.043 C 
HETATM   21  C1  UNL     1      35.972  35.333  38.115  1.00  0.00     0.010 C 
ENDBRANCH   1  20
TORSDOF 1
ENDMDL
MODEL 5
REMARK VINA RESULT: -7.796039744      1.257      1.386
REMARK  1 active torsions:
REMARK  status: ('A' for Active; 'I' for Inactive)
REMARK    1  A    between atoms: C2_2  and  C3_3 
ROOT
HETATM    1  C3  UNL     1      32.149  37.316  37.389  1.00  0.00     0.007 A 
HETATM    2  S1  UNL     1      30.799  37.909  36.534  1.00  0.00    -0.074 SA
HETATM    3  C4  UNL     1      29.563  37.478  37.626  1.00  0.00     0.089 A 
HETATM    4  N1  UNL     1      28.229  37.504  37.849  1.00  0.00    -0.349 N 
ATOM      5  H1  UNL     1      27.516  37.902  37.237  1.00  0.00     0.166 HD
HETATM    6  C5  UNL     1      28.029  36.907  39.031  1.00  0.00     0.070 A 
HETATM    7  C6  UNL     1      29.242  36.515  39.550  1.00  0.00     0.089 A 
HETATM    8  C7  UNL     1      30.245  36.874  38.644  1.00  0.00     0.051 A 
HETATM    9  C8  UNL     1      31.588  36.789  38.522  1.00  0.00     0.062 A 
HETATM   10 CL1  UNL     1      32.697  36.043  39.720  1.00  0.00    -0.082 Cl
HETATM   11  N2  UNL     1      29.024  36.017  40.904  1.00  0.00    -0.280 N 
ATOM     12  H2  UNL     1      29.735  35.642  41.532  1.00  0.00     0.189 HD
HETATM   13  N3  UNL     1      27.625  36.155  41.188  1.00  0.00    -0.220 N 
HETATM   14  N4  UNL     1      26.924  36.231  42.383  1.00  0.00    -0.294 N 
ATOM     15  H4  UNL     1      27.367  35.898  43.239  1.00  0.00     0.187 HD
HETATM   16  C9  UNL     1      25.721  36.712  42.441  1.00  0.00     0.108 C 
HETATM   17  C10 UNL     1      25.102  37.140  41.202  1.00  0.00     0.017 C 
HETATM   18  C11 UNL     1      25.709  37.003  40.017  1.00  0.00     0.009 C 
HETATM   19  C12 UNL     1      27.002  36.379  39.937  1.00  0.00     0.202 C 
ENDROOT
BRANCH   1  20
HETATM   20  C2  UNL     1      33.591  37.376  36.960  1.00  0.00     0.043 C 
HETATM   21  C1  UNL     1      34.244  36.010  37.065  1.00  0.00     0.010 C 
ENDBRANCH   1  20
TORSDOF 1
ENDMDL
