MODEL 1
REMARK VINA RESULT: -8.744111524      0.000      0.000
REMARK  5 active torsions:
REMARK  status: ('A' for Active; 'I' for Inactive)
REMARK    1  A    between atoms: C2_2  and  C8_29 
REMARK    2  A    between atoms: N1_3  and  N2_5 
REMARK    3  A    between atoms: N2_5  and  C3_7 
REMARK    4  A    between atoms: N4_10  and  N5_11 
REMARK    5  A    between atoms: C4_14  and  N6_15 
REMARK       I    between atoms: N6_15  and  C5_17 
REMARK       I    between atoms: C5_17  and  N7_18 
REMARK       I    between atoms: C5_17  and  N8_22 
ROOT
HETATM    1  C3  UNL     1       4.860  -1.328  12.270  1.00  0.00     0.161 A 
HETATM    2  N3  UNL     1       3.586  -1.740  12.247  1.00  0.00    -0.260 N 
ATOM      3  H3  UNL     1       2.797  -1.129  12.033  1.00  0.00     0.191 HD
HETATM    4  N4  UNL     1       3.463  -3.022  12.530  1.00  0.00    -0.183 N 
HETATM    5  C4  UNL     1       4.700  -3.490  12.754  1.00  0.00     0.168 A 
HETATM    6  C6  UNL     1       5.610  -2.436  12.596  1.00  0.00     0.138 A 
HETATM    7  C7  UNL     1       7.045  -2.508  12.747  1.00  0.00     0.107 C 
HETATM    8  N9  UNL     1       8.202  -2.569  12.864  1.00  0.00    -0.191 NA
ENDROOT
BRANCH   1   9
HETATM    9  N2  UNL     1       5.367  -0.012  12.015  1.00  0.00    -0.283 N 
ATOM     10  H2  UNL     1       6.369   0.181  12.043  1.00  0.00     0.188 HD
BRANCH   9  11
HETATM   11  N1  UNL     1       4.451   0.992  11.729  1.00  0.00    -0.297 N 
HETATM   12  C2  UNL     1       4.803   2.101  11.139  1.00  0.00     0.098 C 
HETATM   13  C1  UNL     1       6.208   2.325  10.753  1.00  0.00     0.077 C 
ATOM     14  H1  UNL     1       3.473   0.858  11.987  1.00  0.00     0.187 HD
BRANCH  12  15
HETATM   15  C8  UNL     1       3.822   3.127  10.855  1.00  0.00     0.223 C 
HETATM   16  O1  UNL     1       4.223   4.264  10.506  1.00  0.00    -0.643 OA
HETATM   17  O2  UNL     1       2.476   2.856  10.970  1.00  0.00    -0.643 OA
ENDBRANCH  12  15
ENDBRANCH   9  11
ENDBRANCH   1   9
BRANCH   5  18
HETATM   18  N6  UNL     1       5.067  -4.662  13.060  1.00  0.00    -0.323 N 
HETATM   19  C5  UNL     1       4.476  -5.914  12.739  1.00  0.00     0.481 C 
HETATM   20  N7  UNL     1       4.652  -6.331  11.366  1.00  0.00    -0.033 N 
HETATM   21  N8  UNL     1       4.985  -7.002  13.562  1.00  0.00    -0.033 N 
ATOM     22  H73 UNL     1       4.317  -5.607  10.731  1.00  0.00     0.278 HD
ATOM     23  H72 UNL     1       5.642  -6.334  11.121  1.00  0.00     0.278 HD
ATOM     24  H71 UNL     1       4.229  -7.229  11.135  1.00  0.00     0.278 HD
ATOM     25  H83 UNL     1       6.002  -7.054  13.513  1.00  0.00     0.278 HD
ATOM     26  H82 UNL     1       4.878  -6.791  14.554  1.00  0.00     0.278 HD
ATOM     27  H81 UNL     1       4.561  -7.900  13.331  1.00  0.00     0.278 HD
ATOM     28  H6  UNL     1       5.916  -4.716  13.623  1.00  0.00     0.165 HD
ENDBRANCH   5  18
BRANCH   4  29
HETATM   29  N5  UNL     1       2.248  -3.745  12.583  1.00  0.00    -0.322 N 
ATOM     30  H52 UNL     1       1.659  -3.907  13.400  1.00  0.00     0.179 HD
ATOM     31  H51 UNL     1       1.794  -4.208  11.796  1.00  0.00     0.179 HD
ENDBRANCH   4  29
TORSDOF 5
ENDMDL
MODEL 2
REMARK VINA RESULT: -8.658899223      3.514      6.909
REMARK  5 active torsions:
REMARK  status: ('A' for Active; 'I' for Inactive)
REMARK    1  A    between atoms: C2_2  and  C8_29 
REMARK    2  A    between atoms: N1_3  and  N2_5 
REMARK    3  A    between atoms: N2_5  and  C3_7 
REMARK    4  A    between atoms: N4_10  and  N5_11 
REMARK    5  A    between atoms: C4_14  and  N6_15 
REMARK       I    between atoms: N6_15  and  C5_17 
REMARK       I    between atoms: C5_17  and  N7_18 
REMARK       I    between atoms: C5_17  and  N8_22 
ROOT
HETATM    1  C3  UNL     1       5.942  -1.833  12.034  1.00  0.00     0.161 A 
HETATM    2  N3  UNL     1       6.778  -0.928  11.508  1.00  0.00    -0.260 N 
ATOM      3  H3  UNL     1       7.742  -1.134  11.245  1.00  0.00     0.191 HD
HETATM    4  N4  UNL     1       6.218   0.257  11.367  1.00  0.00    -0.183 N 
HETATM    5  C4  UNL     1       4.959   0.147  11.816  1.00  0.00     0.168 A 
HETATM    6  C6  UNL     1       4.754  -1.171  12.246  1.00  0.00     0.138 A 
HETATM    7  C7  UNL     1       3.536  -1.715  12.800  1.00  0.00     0.107 C 
HETATM    8  N9  UNL     1       2.552  -2.153  13.242  1.00  0.00    -0.191 NA
ENDROOT
BRANCH   1   9
HETATM    9  N2  UNL     1       6.204  -3.211  12.327  1.00  0.00    -0.283 N 
ATOM     10  H2  UNL     1       6.860  -3.477  13.062  1.00  0.00     0.188 HD
BRANCH   9  11
HETATM   11  N1  UNL     1       5.537  -4.172  11.579  1.00  0.00    -0.297 N 
HETATM   12  C2  UNL     1       4.916  -5.174  12.138  1.00  0.00     0.098 C 
HETATM   13  C1  UNL     1       4.904  -5.319  13.605  1.00  0.00     0.077 C 
ATOM     14  H1  UNL     1       5.531  -4.091  10.562  1.00  0.00     0.187 HD
BRANCH  12  15
HETATM   15  C8  UNL     1       4.230  -6.158  11.327  1.00  0.00     0.223 C 
HETATM   16  O1  UNL     1       3.003  -6.011  11.110  1.00  0.00    -0.643 OA
HETATM   17  O2  UNL     1       4.916  -7.234  10.807  1.00  0.00    -0.643 OA
ENDBRANCH  12  15
ENDBRANCH   9  11
ENDBRANCH   1   9
BRANCH   5  18
HETATM   18  N6  UNL     1       4.053   1.028  11.875  1.00  0.00    -0.323 N 
HETATM   19  C5  UNL     1       4.114   2.418  11.584  1.00  0.00     0.481 C 
HETATM   20  N7  UNL     1       4.185   2.738  10.176  1.00  0.00    -0.033 N 
HETATM   21  N8  UNL     1       2.971   3.151  12.110  1.00  0.00    -0.033 N 
ATOM     22  H73 UNL     1       4.969   2.250   9.742  1.00  0.00     0.278 HD
ATOM     23  H72 UNL     1       3.409   2.306   9.675  1.00  0.00     0.278 HD
ATOM     24  H71 UNL     1       4.229   3.735   9.967  1.00  0.00     0.278 HD
ATOM     25  H83 UNL     1       2.094   2.747  11.782  1.00  0.00     0.278 HD
ATOM     26  H82 UNL     1       2.862   2.991  13.111  1.00  0.00     0.278 HD
ATOM     27  H81 UNL     1       3.015   4.149  11.900  1.00  0.00     0.278 HD
ATOM     28  H6  UNL     1       3.139   0.689  12.178  1.00  0.00     0.165 HD
ENDBRANCH   5  18
BRANCH   4  29
HETATM   29  N5  UNL     1       6.845   1.412  10.840  1.00  0.00    -0.322 N 
ATOM     30  H52 UNL     1       7.564   1.451  10.117  1.00  0.00     0.179 HD
ATOM     31  H51 UNL     1       6.656   2.374  11.121  1.00  0.00     0.179 HD
ENDBRANCH   4  29
TORSDOF 5
ENDMDL
MODEL 3
REMARK VINA RESULT: -8.656367062      3.564      6.460
REMARK  5 active torsions:
REMARK  status: ('A' for Active; 'I' for Inactive)
REMARK    1  A    between atoms: C2_2  and  C8_29 
REMARK    2  A    between atoms: N1_3  and  N2_5 
REMARK    3  A    between atoms: N2_5  and  C3_7 
REMARK    4  A    between atoms: N4_10  and  N5_11 
REMARK    5  A    between atoms: C4_14  and  N6_15 
REMARK       I    between atoms: N6_15  and  C5_17 
REMARK       I    between atoms: C5_17  and  N7_18 
REMARK       I    between atoms: C5_17  and  N8_22 
ROOT
HETATM    1  C3  UNL     1       3.841  -1.882  12.978  1.00  0.00     0.161 A 
HETATM    2  N3  UNL     1       3.002  -0.838  12.975  1.00  0.00    -0.260 N 
ATOM      3  H3  UNL     1       2.011  -0.908  13.207  1.00  0.00     0.191 HD
HETATM    4  N4  UNL     1       3.598   0.289  12.640  1.00  0.00    -0.183 N 
HETATM    5  C4  UNL     1       4.885  -0.006  12.408  1.00  0.00     0.168 A 
HETATM    6  C6  UNL     1       5.070  -1.379  12.616  1.00  0.00     0.138 A 
HETATM    7  C7  UNL     1       6.308  -2.112  12.473  1.00  0.00     0.107 C 
HETATM    8  N9  UNL     1       7.307  -2.699  12.363  1.00  0.00    -0.191 NA
ENDROOT
BRANCH   1   9
HETATM    9  N2  UNL     1       3.547  -3.249  13.289  1.00  0.00    -0.283 N 
ATOM     10  H2  UNL     1       3.419  -3.555  14.254  1.00  0.00     0.188 HD
BRANCH   9  11
HETATM   11  N1  UNL     1       3.442  -4.146  12.233  1.00  0.00    -0.297 N 
HETATM   12  C2  UNL     1       4.082  -5.283  12.228  1.00  0.00     0.098 C 
HETATM   13  C1  UNL     1       4.950  -5.657  13.359  1.00  0.00     0.077 C 
ATOM     14  H1  UNL     1       2.848  -3.909  11.440  1.00  0.00     0.187 HD
BRANCH  12  15
HETATM   15  C8  UNL     1       3.950  -6.195  11.110  1.00  0.00     0.223 C 
HETATM   16  O1  UNL     1       2.890  -6.178  10.440  1.00  0.00    -0.643 OA
HETATM   17  O2  UNL     1       4.972  -7.064  10.795  1.00  0.00    -0.643 OA
ENDBRANCH  12  15
ENDBRANCH   9  11
ENDBRANCH   1   9
BRANCH   5  18
HETATM   18  N6  UNL     1       5.830   0.761  12.059  1.00  0.00    -0.323 N 
HETATM   19  C5  UNL     1       6.121   1.327  10.789  1.00  0.00     0.481 C 
HETATM   20  N7  UNL     1       5.242   2.403  10.391  1.00  0.00    -0.033 N 
HETATM   21  N8  UNL     1       7.475   1.857  10.708  1.00  0.00    -0.033 N 
ATOM     22  H73 UNL     1       4.270   2.097  10.428  1.00  0.00     0.278 HD
ATOM     23  H72 UNL     1       5.226   3.130  11.106  1.00  0.00     0.278 HD
ATOM     24  H71 UNL     1       5.451   2.810   9.479  1.00  0.00     0.278 HD
ATOM     25  H83 UNL     1       7.651   2.527  11.457  1.00  0.00     0.278 HD
ATOM     26  H82 UNL     1       8.162   1.146  10.959  1.00  0.00     0.278 HD
ATOM     27  H81 UNL     1       7.684   2.264   9.797  1.00  0.00     0.278 HD
ATOM     28  H6  UNL     1       6.481   1.010  12.804  1.00  0.00     0.165 HD
ENDBRANCH   5  18
BRANCH   4  29
HETATM   29  N5  UNL     1       2.977   1.558  12.549  1.00  0.00    -0.322 N 
ATOM     30  H52 UNL     1       3.337   2.392  12.084  1.00  0.00     0.179 HD
ATOM     31  H51 UNL     1       2.071   1.810  12.945  1.00  0.00     0.179 HD
ENDBRANCH   4  29
TORSDOF 5
ENDMDL
MODEL 4
REMARK VINA RESULT: -8.431609977      3.553      6.782
REMARK  5 active torsions:
REMARK  status: ('A' for Active; 'I' for Inactive)
REMARK    1  A    between atoms: C2_2  and  C8_29 
REMARK    2  A    between atoms: N1_3  and  N2_5 
REMARK    3  A    between atoms: N2_5  and  C3_7 
REMARK    4  A    between atoms: N4_10  and  N5_11 
REMARK    5  A    between atoms: C4_14  and  N6_15 
REMARK       I    between atoms: N6_15  and  C5_17 
REMARK       I    between atoms: C5_17  and  N7_18 
REMARK       I    between atoms: C5_17  and  N8_22 
ROOT
HETATM    1  C3  UNL     1       6.210  -2.536  12.788  1.00  0.00     0.161 A 
HETATM    2  N3  UNL     1       7.521  -2.266  12.746  1.00  0.00    -0.260 N 
ATOM      3  H3  UNL     1       8.242  -2.908  13.075  1.00  0.00     0.191 HD
HETATM    4  N4  UNL     1       7.777  -1.078  12.234  1.00  0.00    -0.183 N 
HETATM    5  C4  UNL     1       6.595  -0.528  11.919  1.00  0.00     0.168 A 
HETATM    6  C6  UNL     1       5.579  -1.431  12.259  1.00  0.00     0.138 A 
HETATM    7  C7  UNL     1       4.159  -1.234  12.088  1.00  0.00     0.107 C 
HETATM    8  N9  UNL     1       3.014  -1.074  11.944  1.00  0.00    -0.191 NA
ENDROOT
BRANCH   1   9
HETATM    9  N2  UNL     1       5.568  -3.720  13.276  1.00  0.00    -0.283 N 
ATOM     10  H2  UNL     1       5.270  -3.795  14.249  1.00  0.00     0.188 HD
BRANCH   9  11
HETATM   11  N1  UNL     1       5.363  -4.763  12.382  1.00  0.00    -0.297 N 
HETATM   12  C2  UNL     1       4.169  -5.111  11.989  1.00  0.00     0.098 C 
HETATM   13  C1  UNL     1       2.981  -4.398  12.492  1.00  0.00     0.077 C 
ATOM     14  H1  UNL     1       6.170  -5.271  12.021  1.00  0.00     0.187 HD
BRANCH  12  15
HETATM   15  C8  UNL     1       3.991  -6.205  11.056  1.00  0.00     0.223 C 
HETATM   16  O1  UNL     1       2.907  -6.293  10.430  1.00  0.00    -0.643 OA
HETATM   17  O2  UNL     1       4.996  -7.127  10.864  1.00  0.00    -0.643 OA
ENDBRANCH  12  15
ENDBRANCH   9  11
ENDBRANCH   1   9
BRANCH   5  18
HETATM   18  N6  UNL     1       6.352   0.603  11.405  1.00  0.00    -0.323 N 
HETATM   19  C5  UNL     1       5.109   1.259  11.193  1.00  0.00     0.481 C 
HETATM   20  N7  UNL     1       4.495   1.790  12.389  1.00  0.00    -0.033 N 
HETATM   21  N8  UNL     1       5.215   2.373  10.262  1.00  0.00    -0.033 N 
ATOM     22  H73 UNL     1       4.393   1.056  13.090  1.00  0.00     0.278 HD
ATOM     23  H72 UNL     1       5.143   2.409  12.875  1.00  0.00     0.278 HD
ATOM     24  H71 UNL     1       3.603   2.261  12.237  1.00  0.00     0.278 HD
ATOM     25  H83 UNL     1       5.932   3.034  10.561  1.00  0.00     0.278 HD
ATOM     26  H82 UNL     1       5.626   2.074   9.378  1.00  0.00     0.278 HD
ATOM     27  H81 UNL     1       4.323   2.844  10.110  1.00  0.00     0.278 HD
ATOM     28  H6  UNL     1       7.173   1.121  11.094  1.00  0.00     0.165 HD
ENDBRANCH   5  18
BRANCH   4  29
HETATM   29  N5  UNL     1       9.062  -0.512  12.058  1.00  0.00    -0.322 N 
ATOM     30  H52 UNL     1       9.633  -0.043  12.761  1.00  0.00     0.179 HD
ATOM     31  H51 UNL     1       9.595  -0.498  11.189  1.00  0.00     0.179 HD
ENDBRANCH   4  29
TORSDOF 5
ENDMDL
MODEL 5
REMARK VINA RESULT: -8.024699954      3.352      6.921
REMARK  5 active torsions:
REMARK  status: ('A' for Active; 'I' for Inactive)
REMARK    1  A    between atoms: C2_2  and  C8_29 
REMARK    2  A    between atoms: N1_3  and  N2_5 
REMARK    3  A    between atoms: N2_5  and  C3_7 
REMARK    4  A    between atoms: N4_10  and  N5_11 
REMARK    5  A    between atoms: C4_14  and  N6_15 
REMARK       I    between atoms: N6_15  and  C5_17 
REMARK       I    between atoms: C5_17  and  N7_18 
REMARK       I    between atoms: C5_17  and  N8_22 
ROOT
HETATM    1  C3  UNL     1       5.733  -0.874  12.289  1.00  0.00     0.161 A 
HETATM    2  N3  UNL     1       6.842  -0.566  11.604  1.00  0.00    -0.260 N 
ATOM      3  H3  UNL     1       7.611  -1.217  11.447  1.00  0.00     0.191 HD
HETATM    4  N4  UNL     1       6.831   0.674  11.154  1.00  0.00    -0.183 N 
HETATM    5  C4  UNL     1       5.672   1.220  11.552  1.00  0.00     0.168 A 
HETATM    6  C6  UNL     1       4.953   0.260  12.275  1.00  0.00     0.138 A 
HETATM    7  C7  UNL     1       3.653   0.435  12.882  1.00  0.00     0.107 C 
HETATM    8  N9  UNL     1       2.604   0.576  13.366  1.00  0.00    -0.191 NA
ENDROOT
BRANCH   1   9
HETATM    9  N2  UNL     1       5.402  -2.118  12.918  1.00  0.00    -0.283 N 
ATOM     10  H2  UNL     1       5.840  -2.398  13.796  1.00  0.00     0.188 HD
BRANCH   9  11
HETATM   11  N1  UNL     1       4.466  -2.932  12.293  1.00  0.00    -0.297 N 
HETATM   12  C2  UNL     1       4.344  -4.197  12.589  1.00  0.00     0.098 C 
HETATM   13  C1  UNL     1       5.210  -4.811  13.612  1.00  0.00     0.077 C 
ATOM     14  H1  UNL     1       3.856  -2.530  11.582  1.00  0.00     0.187 HD
BRANCH  12  15
HETATM   15  C8  UNL     1       3.357  -5.017  11.917  1.00  0.00     0.223 C 
HETATM   16  O1  UNL     1       2.168  -4.618  11.875  1.00  0.00    -0.643 OA
HETATM   17  O2  UNL     1       3.722  -6.212  11.337  1.00  0.00    -0.643 OA
ENDBRANCH  12  15
ENDBRANCH   9  11
ENDBRANCH   1   9
BRANCH   5  18
HETATM   18  N6  UNL     1       5.231   2.389  11.352  1.00  0.00    -0.323 N 
HETATM   19  C5  UNL     1       4.195   2.836  10.487  1.00  0.00     0.481 C 
HETATM   20  N7  UNL     1       2.857   2.521  10.933  1.00  0.00    -0.033 N 
HETATM   21  N8  UNL     1       4.225   4.276  10.275  1.00  0.00    -0.033 N 
ATOM     22  H73 UNL     1       2.768   1.520  11.104  1.00  0.00     0.278 HD
ATOM     23  H72 UNL     1       2.706   2.876  11.877  1.00  0.00     0.278 HD
ATOM     24  H71 UNL     1       2.114   2.842  10.312  1.00  0.00     0.278 HD
ATOM     25  H83 UNL     1       4.202   4.778  11.163  1.00  0.00     0.278 HD
ATOM     26  H82 UNL     1       5.139   4.579   9.939  1.00  0.00     0.278 HD
ATOM     27  H81 UNL     1       3.482   4.597   9.655  1.00  0.00     0.278 HD
ATOM     28  H6  UNL     1       5.688   3.123  11.895  1.00  0.00     0.165 HD
ENDBRANCH   5  18
BRANCH   4  29
HETATM   29  N5  UNL     1       7.857   1.290  10.398  1.00  0.00    -0.322 N 
ATOM     30  H52 UNL     1       7.969   1.280   9.385  1.00  0.00     0.179 HD
ATOM     31  H51 UNL     1       8.632   1.833  10.776  1.00  0.00     0.179 HD
ENDBRANCH   4  29
TORSDOF 5
ENDMDL
