MODEL 1
REMARK VINA RESULT: -8.937945723      0.000      0.000
REMARK  5 active torsions:
REMARK  status: ('A' for Active; 'I' for Inactive)
REMARK    1  A    between atoms: N1_2  and  C2_3 
REMARK    2  A    between atoms: N1_2  and  C7_12 
REMARK    3  A    between atoms: C2_3  and  C3_4 
REMARK    4  A    between atoms: C10_15  and  N3_16 
REMARK    5  A    between atoms: N3_16  and  C11_18 
ROOT
HETATM    1  C7  UNL     1      26.326   0.941   4.377  1.00  0.00     0.121 C 
HETATM    2  C8  UNL     1      27.393   1.785   3.641  1.00  0.00     0.030 C 
HETATM    3  C9  UNL     1      28.580   1.799   4.634  1.00  0.00     0.031 C 
HETATM    4  C10 UNL     1      29.287   0.478   4.582  1.00  0.00     0.111 C 
HETATM    5  C18 UNL     1      28.309  -0.556   4.131  1.00  0.00     0.004 C 
HETATM    6  C19 UNL     1      28.766  -1.564   3.400  1.00  0.00     0.196 C 
HETATM    7  F2  UNL     1      30.068  -1.679   3.061  1.00  0.00    -0.219 F 
HETATM    8  C20 UNL     1      26.876  -0.422   4.505  1.00  0.00     0.226 C 
HETATM    9  F3  UNL     1      26.829  -0.832   5.853  1.00  0.00    -0.242 F 
ENDROOT
BRANCH   4  10
HETATM   10  N3  UNL     1      29.870   0.113   5.793  1.00  0.00    -0.403 N 
ATOM     11  H3  UNL     1      29.652  -0.811   6.168  1.00  0.00     0.154 HD
BRANCH  10  12
HETATM   12  C11 UNL     1      30.732   0.927   6.524  1.00  0.00     0.139 C 
HETATM   13  C12 UNL     1      32.211   0.807   6.366  1.00  0.00     0.207 C 
HETATM   14  O1  UNL     1      32.622   0.172   7.562  1.00  0.00    -0.333 OA
HETATM   15  C13 UNL     1      31.683   0.414   8.546  1.00  0.00     0.150 A 
HETATM   16  N4  UNL     1      31.797   0.252   9.903  1.00  0.00    -0.345 N 
HETATM   17  C17 UNL     1      30.513   0.873   7.995  1.00  0.00     0.019 A 
HETATM   18  C14 UNL     1      30.778   0.536  10.725  1.00  0.00     0.114 A 
ATOM     19  H4  UNL     1      32.675  -0.090  10.295  1.00  0.00     0.167 HD
HETATM   20  C15 UNL     1      29.603   1.000  10.145  1.00  0.00     0.050 A 
HETATM   21 CL1  UNL     1      28.255   1.374  11.230  1.00  0.00    -0.083 Cl
HETATM   22  C16 UNL     1      29.464   1.171   8.789  1.00  0.00     0.039 A 
ENDBRANCH  10  12
ENDBRANCH   4  10
BRANCH   1  23
HETATM   23  N1  UNL     1      25.043   1.144   3.838  1.00  0.00    -0.389 N 
HETATM   24  C1  UNL     1      25.159   1.362   2.394  1.00  0.00     0.149 C 
BRANCH  23  25
HETATM   25  C2  UNL     1      24.078   1.909   4.489  1.00  0.00     0.067 C 
BRANCH  25  26
HETATM   26  C3  UNL     1      24.225   3.395   4.439  1.00  0.00     0.085 C 
HETATM   27  C4  UNL     1      23.051   4.230   4.748  1.00  0.00     0.245 C 
HETATM   28  N2  UNL     1      23.692   5.566   4.661  1.00  0.00    -0.072 N 
HETATM   29  C5  UNL     1      24.919   5.405   5.434  1.00  0.00     0.270 C 
ATOM     30  H22 UNL     1      23.833   5.906   3.710  1.00  0.00     0.277 HD
ATOM     31  H21 UNL     1      23.100   6.340   4.963  1.00  0.00     0.277 HD
HETATM   32  C6  UNL     1      25.264   3.931   5.398  1.00  0.00     0.206 C 
HETATM   33  F1  UNL     1      25.064   3.398   6.674  1.00  0.00    -0.247 F 
ENDBRANCH  25  26
ENDBRANCH  23  25
ENDBRANCH   1  23
TORSDOF 5
ENDMDL
MODEL 2
REMARK VINA RESULT: -8.466826641      3.107      7.263
REMARK  5 active torsions:
REMARK  status: ('A' for Active; 'I' for Inactive)
REMARK    1  A    between atoms: N1_2  and  C2_3 
REMARK    2  A    between atoms: N1_2  and  C7_12 
REMARK    3  A    between atoms: C2_3  and  C3_4 
REMARK    4  A    between atoms: C10_15  and  N3_16 
REMARK    5  A    between atoms: N3_16  and  C11_18 
ROOT
HETATM    1  C7  UNL     1      29.796   1.042   6.340  1.00  0.00     0.121 C 
HETATM    2  C8  UNL     1      30.456   1.117   4.942  1.00  0.00     0.030 C 
HETATM    3  C9  UNL     1      29.264   0.909   3.977  1.00  0.00     0.031 C 
HETATM    4  C10 UNL     1      28.463   2.174   3.897  1.00  0.00     0.111 C 
HETATM    5  C18 UNL     1      28.665   2.934   5.166  1.00  0.00     0.004 C 
HETATM    6  C19 UNL     1      28.650   4.259   5.105  1.00  0.00     0.196 C 
HETATM    7  F2  UNL     1      28.459   4.925   3.946  1.00  0.00    -0.219 F 
HETATM    8  C20 UNL     1      28.877   2.193   6.438  1.00  0.00     0.226 C 
HETATM    9  F3  UNL     1      27.591   1.747   6.801  1.00  0.00    -0.242 F 
ENDROOT
BRANCH   4  10
HETATM   10  N3  UNL     1      27.108   1.959   3.659  1.00  0.00    -0.403 N 
ATOM     11  H3  UNL     1      26.804   1.855   2.691  1.00  0.00     0.154 HD
BRANCH  10  12
HETATM   12  C11 UNL     1      26.142   1.876   4.659  1.00  0.00     0.139 C 
HETATM   13  C12 UNL     1      25.267   0.674   4.777  1.00  0.00     0.207 C 
HETATM   14  O1  UNL     1      24.010   1.129   4.312  1.00  0.00    -0.333 OA
HETATM   15  C13 UNL     1      23.944   2.500   4.467  1.00  0.00     0.150 A 
HETATM   16  N4  UNL     1      22.843   3.319   4.430  1.00  0.00    -0.345 N 
HETATM   17  C17 UNL     1      25.194   3.024   4.681  1.00  0.00     0.019 A 
HETATM   18  C14 UNL     1      22.955   4.643   4.600  1.00  0.00     0.114 A 
ATOM     19  H4  UNL     1      21.922   2.911   4.269  1.00  0.00     0.167 HD
HETATM   20  C15 UNL     1      24.231   5.151   4.816  1.00  0.00     0.050 A 
HETATM   21 CL1  UNL     1      24.381   6.901   5.040  1.00  0.00    -0.083 Cl
HETATM   22  C16 UNL     1      25.349   4.353   4.858  1.00  0.00     0.039 A 
ENDBRANCH  10  12
ENDBRANCH   4  10
BRANCH   1  23
HETATM   23  N1  UNL     1      30.746   0.800   7.348  1.00  0.00    -0.389 N 
HETATM   24  C1  UNL     1      32.084   0.781   6.751  1.00  0.00     0.149 C 
BRANCH  23  25
HETATM   25  C2  UNL     1      30.526  -0.122   8.368  1.00  0.00     0.067 C 
BRANCH  25  26
HETATM   26  C3  UNL     1      30.281   0.413   9.742  1.00  0.00     0.085 C 
HETATM   27  C4  UNL     1      29.049   1.180   9.991  1.00  0.00     0.245 C 
HETATM   28  N2  UNL     1      29.209   1.402  11.450  1.00  0.00    -0.072 N 
HETATM   29  C5  UNL     1      29.574   0.084  11.956  1.00  0.00     0.270 C 
ATOM     30  H22 UNL     1      29.863   2.146  11.695  1.00  0.00     0.277 HD
ATOM     31  H21 UNL     1      28.397   1.821  11.905  1.00  0.00     0.277 HD
HETATM   32  C6  UNL     1      30.213  -0.662  10.803  1.00  0.00     0.206 C 
HETATM   33  F1  UNL     1      29.347  -1.683  10.403  1.00  0.00    -0.247 F 
ENDBRANCH  25  26
ENDBRANCH  23  25
ENDBRANCH   1  23
TORSDOF 5
ENDMDL
MODEL 3
REMARK VINA RESULT: -8.278870682      0.882      1.013
REMARK  5 active torsions:
REMARK  status: ('A' for Active; 'I' for Inactive)
REMARK    1  A    between atoms: N1_2  and  C2_3 
REMARK    2  A    between atoms: N1_2  and  C7_12 
REMARK    3  A    between atoms: C2_3  and  C3_4 
REMARK    4  A    between atoms: C10_15  and  N3_16 
REMARK    5  A    between atoms: N3_16  and  C11_18 
ROOT
HETATM    1  C7  UNL     1      26.486   1.035   4.355  1.00  0.00     0.121 C 
HETATM    2  C8  UNL     1      27.607   1.751   3.564  1.00  0.00     0.030 C 
HETATM    3  C9  UNL     1      28.800   1.737   4.549  1.00  0.00     0.031 C 
HETATM    4  C10 UNL     1      29.407   0.366   4.576  1.00  0.00     0.111 C 
HETATM    5  C18 UNL     1      28.352  -0.617   4.193  1.00  0.00     0.004 C 
HETATM    6  C19 UNL     1      28.726  -1.700   3.524  1.00  0.00     0.196 C 
HETATM    7  F2  UNL     1      30.013  -1.931   3.187  1.00  0.00    -0.219 F 
HETATM    8  C20 UNL     1      26.936  -0.355   4.565  1.00  0.00     0.226 C 
HETATM    9  F3  UNL     1      26.870  -0.676   5.936  1.00  0.00    -0.242 F 
ENDROOT
BRANCH   4  10
HETATM   10  N3  UNL     1      29.972   0.033   5.804  1.00  0.00    -0.403 N 
ATOM     11  H3  UNL     1      29.762  -0.887   6.192  1.00  0.00     0.154 HD
BRANCH  10  12
HETATM   12  C11 UNL     1      30.806   0.875   6.536  1.00  0.00     0.139 C 
HETATM   13  C12 UNL     1      32.289   0.773   6.416  1.00  0.00     0.207 C 
HETATM   14  O1  UNL     1      32.681   0.171   7.635  1.00  0.00    -0.333 OA
HETATM   15  C13 UNL     1      31.716   0.421   8.591  1.00  0.00     0.150 A 
HETATM   16  N4  UNL     1      31.800   0.291   9.954  1.00  0.00    -0.345 N 
HETATM   17  C17 UNL     1      30.553   0.851   8.003  1.00  0.00     0.019 A 
HETATM   18  C14 UNL     1      30.758   0.578  10.746  1.00  0.00     0.114 A 
ATOM     19  H4  UNL     1      32.673  -0.031  10.373  1.00  0.00     0.167 HD
HETATM   20  C15 UNL     1      29.591   1.012  10.128  1.00  0.00     0.050 A 
HETATM   21 CL1  UNL     1      28.212   1.391  11.173  1.00  0.00    -0.083 Cl
HETATM   22  C16 UNL     1      29.481   1.151   8.766  1.00  0.00     0.039 A 
ENDBRANCH  10  12
ENDBRANCH   4  10
BRANCH   1  23
HETATM   23  N1  UNL     1      25.217   1.300   3.810  1.00  0.00    -0.389 N 
HETATM   24  C1  UNL     1      25.332   1.388   2.352  1.00  0.00     0.149 C 
BRANCH  23  25
HETATM   25  C2  UNL     1      24.329   2.193   4.402  1.00  0.00     0.067 C 
BRANCH  25  26
HETATM   26  C3  UNL     1      24.873   3.506   4.865  1.00  0.00     0.085 C 
HETATM   27  C4  UNL     1      25.755   4.262   3.959  1.00  0.00     0.245 C 
HETATM   28  N2  UNL     1      25.949   5.476   4.791  1.00  0.00    -0.072 N 
HETATM   29  C5  UNL     1      24.597   5.809   5.226  1.00  0.00     0.270 C 
ATOM     30  H22 UNL     1      26.623   5.367   5.549  1.00  0.00     0.277 HD
ATOM     31  H21 UNL     1      26.441   6.237   4.321  1.00  0.00     0.277 HD
HETATM   32  C6  UNL     1      23.802   4.520   5.195  1.00  0.00     0.206 C 
HETATM   33  F1  UNL     1      22.873   4.599   4.152  1.00  0.00    -0.247 F 
ENDBRANCH  25  26
ENDBRANCH  23  25
ENDBRANCH   1  23
TORSDOF 5
ENDMDL
MODEL 4
REMARK VINA RESULT: -8.235814394      3.392      7.253
REMARK  5 active torsions:
REMARK  status: ('A' for Active; 'I' for Inactive)
REMARK    1  A    between atoms: N1_2  and  C2_3 
REMARK    2  A    between atoms: N1_2  and  C7_12 
REMARK    3  A    between atoms: C2_3  and  C3_4 
REMARK    4  A    between atoms: C10_15  and  N3_16 
REMARK    5  A    between atoms: N3_16  and  C11_18 
ROOT
HETATM    1  C7  UNL     1      30.474   1.435   7.296  1.00  0.00     0.121 C 
HETATM    2  C8  UNL     1      28.941   1.241   7.383  1.00  0.00     0.030 C 
HETATM    3  C9  UNL     1      28.384   2.521   6.716  1.00  0.00     0.031 C 
HETATM    4  C10 UNL     1      28.524   2.408   5.228  1.00  0.00     0.111 C 
HETATM    5  C18 UNL     1      29.659   1.482   4.937  1.00  0.00     0.004 C 
HETATM    6  C19 UNL     1      29.580   0.727   3.849  1.00  0.00     0.196 C 
HETATM    7  F2  UNL     1      28.520   0.773   3.014  1.00  0.00    -0.219 F 
HETATM    8  C20 UNL     1      30.822   1.435   5.863  1.00  0.00     0.226 C 
HETATM    9  F3  UNL     1      31.564   2.592   5.550  1.00  0.00    -0.242 F 
ENDROOT
BRANCH   4  10
HETATM   10  N3  UNL     1      28.709   3.633   4.593  1.00  0.00    -0.403 N 
ATOM     11  H3  UNL     1      29.660   3.997   4.526  1.00  0.00     0.154 HD
BRANCH  10  12
HETATM   12  C11 UNL     1      27.680   4.393   4.043  1.00  0.00     0.139 C 
HETATM   13  C12 UNL     1      27.441   5.795   4.497  1.00  0.00     0.207 C 
HETATM   14  O1  UNL     1      26.262   5.696   5.274  1.00  0.00    -0.333 OA
HETATM   15  C13 UNL     1      25.551   4.583   4.873  1.00  0.00     0.150 A 
HETATM   16  N4  UNL     1      24.243   4.258   5.129  1.00  0.00    -0.345 N 
HETATM   17  C17 UNL     1      26.341   3.747   4.123  1.00  0.00     0.019 A 
HETATM   18  C14 UNL     1      23.702   3.126   4.660  1.00  0.00     0.114 A 
ATOM     19  H4  UNL     1      23.670   4.891   5.688  1.00  0.00     0.167 HD
HETATM   20  C15 UNL     1      24.521   2.296   3.904  1.00  0.00     0.050 A 
HETATM   21 CL1  UNL     1      23.808   0.798   3.284  1.00  0.00    -0.083 Cl
HETATM   22  C16 UNL     1      25.834   2.598   3.633  1.00  0.00     0.039 A 
ENDBRANCH  10  12
ENDBRANCH   4  10
BRANCH   1  23
HETATM   23  N1  UNL     1      31.154   0.595   8.196  1.00  0.00    -0.389 N 
HETATM   24  C1  UNL     1      32.366   0.084   7.551  1.00  0.00     0.149 C 
BRANCH  23  25
HETATM   25  C2  UNL     1      30.484  -0.303   9.022  1.00  0.00     0.067 C 
BRANCH  25  26
HETATM   26  C3  UNL     1      29.830   0.243  10.250  1.00  0.00     0.085 C 
HETATM   27  C4  UNL     1      29.280  -0.703  11.236  1.00  0.00     0.245 C 
HETATM   28  N2  UNL     1      28.843   0.271  12.268  1.00  0.00    -0.072 N 
HETATM   29  C5  UNL     1      29.993   1.158  12.405  1.00  0.00     0.270 C 
ATOM     30  H22 UNL     1      27.965   0.746  12.056  1.00  0.00     0.277 HD
ATOM     31  H21 UNL     1      28.527  -0.151  13.141  1.00  0.00     0.277 HD
HETATM   32  C6  UNL     1      30.750   1.094  11.095  1.00  0.00     0.206 C 
HETATM   33  F1  UNL     1      31.958   0.427  11.316  1.00  0.00    -0.247 F 
ENDBRANCH  25  26
ENDBRANCH  23  25
ENDBRANCH   1  23
TORSDOF 5
ENDMDL
MODEL 5
REMARK VINA RESULT: -8.101079408      3.208      7.143
REMARK  5 active torsions:
REMARK  status: ('A' for Active; 'I' for Inactive)
REMARK    1  A    between atoms: N1_2  and  C2_3 
REMARK    2  A    between atoms: N1_2  and  C7_12 
REMARK    3  A    between atoms: C2_3  and  C3_4 
REMARK    4  A    between atoms: C10_15  and  N3_16 
REMARK    5  A    between atoms: N3_16  and  C11_18 
ROOT
HETATM    1  C7  UNL     1      30.273   1.464   7.514  1.00  0.00     0.121 C 
HETATM    2  C8  UNL     1      28.748   1.213   7.434  1.00  0.00     0.030 C 
HETATM    3  C9  UNL     1      28.221   2.467   6.697  1.00  0.00     0.031 C 
HETATM    4  C10 UNL     1      28.528   2.350   5.234  1.00  0.00     0.111 C 
HETATM    5  C18 UNL     1      29.721   1.465   5.079  1.00  0.00     0.004 C 
HETATM    6  C19 UNL     1      29.790   0.700   3.997  1.00  0.00     0.196 C 
HETATM    7  F2  UNL     1      28.827   0.702   3.050  1.00  0.00    -0.219 F 
HETATM    8  C20 UNL     1      30.776   1.467   6.127  1.00  0.00     0.226 C 
HETATM    9  F3  UNL     1      31.505   2.649   5.886  1.00  0.00    -0.242 F 
ENDROOT
BRANCH   4  10
HETATM   10  N3  UNL     1      28.738   3.577   4.610  1.00  0.00    -0.403 N 
ATOM     11  H3  UNL     1      29.693   3.933   4.567  1.00  0.00     0.154 HD
BRANCH  10  12
HETATM   12  C11 UNL     1      27.727   4.349   4.043  1.00  0.00     0.139 C 
HETATM   13  C12 UNL     1      27.505   5.758   4.482  1.00  0.00     0.207 C 
HETATM   14  O1  UNL     1      26.316   5.684   5.246  1.00  0.00    -0.333 OA
HETATM   15  C13 UNL     1      25.592   4.579   4.844  1.00  0.00     0.150 A 
HETATM   16  N4  UNL     1      24.276   4.277   5.088  1.00  0.00    -0.345 N 
HETATM   17  C17 UNL     1      26.378   3.725   4.111  1.00  0.00     0.019 A 
HETATM   18  C14 UNL     1      23.723   3.150   4.621  1.00  0.00     0.114 A 
ATOM     19  H4  UNL     1      23.707   4.923   5.635  1.00  0.00     0.167 HD
HETATM   20  C15 UNL     1      24.538   2.301   3.881  1.00  0.00     0.050 A 
HETATM   21 CL1  UNL     1      23.809   0.809   3.264  1.00  0.00    -0.083 Cl
HETATM   22  C16 UNL     1      25.858   2.580   3.623  1.00  0.00     0.039 A 
ENDBRANCH  10  12
ENDBRANCH   4  10
BRANCH   1  23
HETATM   23  N1  UNL     1      30.880   0.655   8.492  1.00  0.00    -0.389 N 
HETATM   24  C1  UNL     1      32.147   0.140   7.967  1.00  0.00     0.149 C 
BRANCH  23  25
HETATM   25  C2  UNL     1      30.148  -0.228   9.282  1.00  0.00     0.067 C 
BRANCH  25  26
HETATM   26  C3  UNL     1      30.034   0.082  10.739  1.00  0.00     0.085 C 
HETATM   27  C4  UNL     1      30.848   1.177  11.294  1.00  0.00     0.245 C 
HETATM   28  N2  UNL     1      30.338   1.157  12.688  1.00  0.00    -0.072 N 
HETATM   29  C5  UNL     1      28.891   1.100  12.519  1.00  0.00     0.270 C 
ATOM     30  H22 UNL     1      30.726   0.415  13.270  1.00  0.00     0.277 HD
ATOM     31  H21 UNL     1      30.666   1.929  13.269  1.00  0.00     0.277 HD
HETATM   32  C6  UNL     1      28.636   0.470  11.165  1.00  0.00     0.206 C 
HETATM   33  F1  UNL     1      28.125   1.451  10.310  1.00  0.00    -0.247 F 
ENDBRANCH  25  26
ENDBRANCH  23  25
ENDBRANCH   1  23
TORSDOF 5
ENDMDL
