MODEL 1
REMARK VINA RESULT: -7.952012383      0.000      0.000
REMARK  6 active torsions:
REMARK  status: ('A' for Active; 'I' for Inactive)
REMARK    1  A    between atoms: C1_2  and  C2_4 
REMARK       I    between atoms: N1_8  and  C6_9 
REMARK    2  A    between atoms: C6_9  and  C7_11 
REMARK    3  A    between atoms: N3_16  and  C9_17 
REMARK    4  A    between atoms: C9_17  and  C10_18 
REMARK    5  A    between atoms: C16_26  and  C17_27 
REMARK    6  A    between atoms: C17_27  and  O4_28 
ROOT
HETATM    1  C7  UNL     1      28.216   1.565   5.467  1.00  0.00     0.098 A 
HETATM    2  C8  UNL     1      27.720   0.283   5.539  1.00  0.00     0.136 A 
HETATM    3 CL1  UNL     1      26.407  -0.439   4.631  1.00  0.00    -0.062 Cl
HETATM    4  N2  UNL     1      28.458  -0.340   6.471  1.00  0.00    -0.287 N 
ATOM      5  H2  UNL     1      28.334  -1.311   6.756  1.00  0.00     0.188 HD
HETATM    6  N3  UNL     1      29.381   0.494   6.977  1.00  0.00    -0.292 N 
HETATM    7  C16 UNL     1      29.271   1.682   6.387  1.00  0.00     0.070 A 
ENDROOT
BRANCH   1   8
HETATM    8  C6  UNL     1      27.699   2.585   4.574  1.00  0.00     0.259 C 
HETATM    9  N1  UNL     1      26.559   3.377   4.939  1.00  0.00    -0.333 N 
HETATM   10  C2  UNL     1      25.916   4.421   4.189  1.00  0.00     0.188 C 
HETATM   11  C5  UNL     1      25.835   3.246   6.186  1.00  0.00     0.127 C 
HETATM   12  C3  UNL     1      24.446   4.276   4.503  1.00  0.00     0.038 C 
HETATM   13  C4  UNL     1      24.418   3.524   5.808  1.00  0.00     0.022 C 
HETATM   14  O3  UNL     1      28.218   2.820   3.453  1.00  0.00    -0.267 OA
BRANCH  10  15
HETATM   15  C1  UNL     1      26.381   5.736   4.688  1.00  0.00     0.196 C 
HETATM   16  O1  UNL     1      27.586   6.080   4.767  1.00  0.00    -0.646 OA
HETATM   17  O2  UNL     1      25.430   6.659   5.096  1.00  0.00    -0.646 OA
ENDBRANCH  10  15
ENDBRANCH   1   8
BRANCH   7  18
HETATM   18  C17 UNL     1      30.007   2.938   6.542  1.00  0.00     0.224 C 
BRANCH  18  19
HETATM   19  O4  UNL     1      31.210   2.962   5.865  1.00  0.00    -0.395 OA
ATOM     20  H4  UNL     1      31.885   3.465   6.305  1.00  0.00     0.209 HD
ENDBRANCH  18  19
ENDBRANCH   7  18
BRANCH   6  21
HETATM   21  C9  UNL     1      30.304   0.058   7.992  1.00  0.00     0.153 C 
BRANCH  21  22
HETATM   22  C10 UNL     1      30.573   1.085   9.068  1.00  0.00     0.006 C 
HETATM   23  C11 UNL     1      31.551   0.543  10.091  1.00  0.00     0.012 C 
HETATM   24  C12 UNL     1      30.907  -0.300  11.140  1.00  0.00     0.079 C 
HETATM   25  C13 UNL     1      29.643   0.273  11.712  1.00  0.00     0.243 C 
HETATM   26  F1  UNL     1      29.891   1.423  12.448  1.00  0.00    -0.206 F 
HETATM   27  F2  UNL     1      29.043  -0.699  12.489  1.00  0.00    -0.206 F 
HETATM   28  C14 UNL     1      28.659   0.648  10.624  1.00  0.00     0.079 C 
HETATM   29  C15 UNL     1      29.332   1.622   9.709  1.00  0.00     0.012 C 
ENDBRANCH  21  22
ENDBRANCH   6  21
TORSDOF 6
ENDMDL
MODEL 2
REMARK VINA RESULT: -7.675141282      0.665      1.367
REMARK  6 active torsions:
REMARK  status: ('A' for Active; 'I' for Inactive)
REMARK    1  A    between atoms: C1_2  and  C2_4 
REMARK       I    between atoms: N1_8  and  C6_9 
REMARK    2  A    between atoms: C6_9  and  C7_11 
REMARK    3  A    between atoms: N3_16  and  C9_17 
REMARK    4  A    between atoms: C9_17  and  C10_18 
REMARK    5  A    between atoms: C16_26  and  C17_27 
REMARK    6  A    between atoms: C17_27  and  O4_28 
ROOT
HETATM    1  C7  UNL     1      28.260   1.584   5.415  1.00  0.00     0.098 A 
HETATM    2  C8  UNL     1      27.829   0.276   5.446  1.00  0.00     0.136 A 
HETATM    3 CL1  UNL     1      26.575  -0.488   4.490  1.00  0.00    -0.062 Cl
HETATM    4  N2  UNL     1      28.577  -0.331   6.380  1.00  0.00    -0.287 N 
ATOM      5  H2  UNL     1      28.498  -1.314   6.639  1.00  0.00     0.188 HD
HETATM    6  N3  UNL     1      29.445   0.537   6.926  1.00  0.00    -0.292 N 
HETATM    7  C16 UNL     1      29.287   1.731   6.362  1.00  0.00     0.070 A 
ENDROOT
BRANCH   1   8
HETATM    8  C6  UNL     1      27.711   2.598   4.534  1.00  0.00     0.259 C 
HETATM    9  N1  UNL     1      26.562   3.368   4.921  1.00  0.00    -0.333 N 
HETATM   10  C2  UNL     1      25.889   4.403   4.185  1.00  0.00     0.188 C 
HETATM   11  C5  UNL     1      25.861   3.219   6.179  1.00  0.00     0.127 C 
HETATM   12  C3  UNL     1      24.427   4.231   4.521  1.00  0.00     0.038 C 
HETATM   13  C4  UNL     1      24.433   3.473   5.823  1.00  0.00     0.022 C 
HETATM   14  O3  UNL     1      28.208   2.846   3.407  1.00  0.00    -0.267 OA
BRANCH  10  15
HETATM   15  C1  UNL     1      26.339   5.724   4.682  1.00  0.00     0.196 C 
HETATM   16  O1  UNL     1      27.540   6.085   4.756  1.00  0.00    -0.646 OA
HETATM   17  O2  UNL     1      25.377   6.634   5.096  1.00  0.00    -0.646 OA
ENDBRANCH  10  15
ENDBRANCH   1   8
BRANCH   7  18
HETATM   18  C17 UNL     1      29.953   3.019   6.564  1.00  0.00     0.224 C 
BRANCH  18  19
HETATM   19  O4  UNL     1      31.172   3.119   5.921  1.00  0.00    -0.395 OA
ATOM     20  H4  UNL     1      31.169   3.727   5.192  1.00  0.00     0.209 HD
ENDBRANCH  18  19
ENDBRANCH   7  18
BRANCH   6  21
HETATM   21  C9  UNL     1      30.367   0.123   7.952  1.00  0.00     0.153 C 
BRANCH  21  22
HETATM   22  C10 UNL     1      29.707  -0.292   9.247  1.00  0.00     0.006 C 
HETATM   23  C11 UNL     1      28.895   0.851   9.823  1.00  0.00     0.012 C 
HETATM   24  C12 UNL     1      29.709   1.817  10.617  1.00  0.00     0.079 C 
HETATM   25  C13 UNL     1      30.676   1.180  11.573  1.00  0.00     0.243 C 
HETATM   26  F1  UNL     1      30.018   0.520  12.600  1.00  0.00    -0.206 F 
HETATM   27  F2  UNL     1      31.509   2.168  12.063  1.00  0.00    -0.206 F 
HETATM   28  C14 UNL     1      31.553   0.158  10.880  1.00  0.00     0.079 C 
HETATM   29  C15 UNL     1      30.660  -0.864  10.249  1.00  0.00     0.012 C 
ENDBRANCH  21  22
ENDBRANCH   6  21
TORSDOF 6
ENDMDL
MODEL 3
REMARK VINA RESULT: -7.129060588      1.054      1.265
REMARK  6 active torsions:
REMARK  status: ('A' for Active; 'I' for Inactive)
REMARK    1  A    between atoms: C1_2  and  C2_4 
REMARK       I    between atoms: N1_8  and  C6_9 
REMARK    2  A    between atoms: C6_9  and  C7_11 
REMARK    3  A    between atoms: N3_16  and  C9_17 
REMARK    4  A    between atoms: C9_17  and  C10_18 
REMARK    5  A    between atoms: C16_26  and  C17_27 
REMARK    6  A    between atoms: C17_27  and  O4_28 
ROOT
HETATM    1  C7  UNL     1      27.421   1.900   4.960  1.00  0.00     0.098 A 
HETATM    2  C8  UNL     1      26.924   0.616   4.945  1.00  0.00     0.136 A 
HETATM    3 CL1  UNL     1      25.518  -0.006   4.105  1.00  0.00    -0.062 Cl
HETATM    4  N2  UNL     1      27.749  -0.102   5.722  1.00  0.00    -0.287 N 
ATOM      5  H2  UNL     1      27.647  -1.099   5.912  1.00  0.00     0.188 HD
HETATM    6  N3  UNL     1      28.727   0.675   6.216  1.00  0.00    -0.292 N 
HETATM    7  C16 UNL     1      28.567   1.919   5.772  1.00  0.00     0.070 A 
ENDROOT
BRANCH   1   8
HETATM    8  C6  UNL     1      26.823   3.009   4.240  1.00  0.00     0.259 C 
HETATM    9  N1  UNL     1      25.713   3.734   4.792  1.00  0.00    -0.333 N 
HETATM   10  C2  UNL     1      25.002   4.848   4.228  1.00  0.00     0.188 C 
HETATM   11  C5  UNL     1      25.101   3.446   6.072  1.00  0.00     0.127 C 
HETATM   12  C3  UNL     1      23.566   4.644   4.646  1.00  0.00     0.038 C 
HETATM   13  C4  UNL     1      23.655   3.744   5.850  1.00  0.00     0.022 C 
HETATM   14  O3  UNL     1      27.242   3.382   3.116  1.00  0.00    -0.267 OA
BRANCH  10  15
HETATM   15  C1  UNL     1      25.501   6.103   4.838  1.00  0.00     0.196 C 
HETATM   16  O1  UNL     1      24.766   7.014   5.292  1.00  0.00    -0.646 OA
HETATM   17  O2  UNL     1      26.872   6.295   4.918  1.00  0.00    -0.646 OA
ENDBRANCH  10  15
ENDBRANCH   1   8
BRANCH   7  18
HETATM   18  C17 UNL     1      29.326   3.153   5.984  1.00  0.00     0.224 C 
BRANCH  18  19
HETATM   19  O4  UNL     1      29.106   4.112   5.015  1.00  0.00    -0.395 OA
ATOM     20  H4  UNL     1      29.467   4.963   5.232  1.00  0.00     0.209 HD
ENDBRANCH  18  19
ENDBRANCH   7  18
BRANCH   6  21
HETATM   21  C9  UNL     1      29.747   0.134   7.076  1.00  0.00     0.153 C 
BRANCH  21  22
HETATM   22  C10 UNL     1      30.362   1.143   8.019  1.00  0.00     0.006 C 
HETATM   23  C11 UNL     1      31.570   0.553   8.718  1.00  0.00     0.012 C 
HETATM   24  C12 UNL     1      31.223  -0.265   9.916  1.00  0.00     0.079 C 
HETATM   25  C13 UNL     1      30.206   0.361  10.826  1.00  0.00     0.243 C 
HETATM   26  F1  UNL     1      30.708   1.495  11.448  1.00  0.00    -0.206 F 
HETATM   27  F2  UNL     1      29.816  -0.587  11.752  1.00  0.00    -0.206 F 
HETATM   28  C14 UNL     1      28.966   0.785  10.068  1.00  0.00     0.079 C 
HETATM   29  C15 UNL     1      29.386   1.732   8.988  1.00  0.00     0.012 C 
ENDBRANCH  21  22
ENDBRANCH   6  21
TORSDOF 6
ENDMDL
MODEL 4
REMARK VINA RESULT: -5.967851706      1.939      2.677
REMARK  6 active torsions:
REMARK  status: ('A' for Active; 'I' for Inactive)
REMARK    1  A    between atoms: C1_2  and  C2_4 
REMARK       I    between atoms: N1_8  and  C6_9 
REMARK    2  A    between atoms: C6_9  and  C7_11 
REMARK    3  A    between atoms: N3_16  and  C9_17 
REMARK    4  A    between atoms: C9_17  and  C10_18 
REMARK    5  A    between atoms: C16_26  and  C17_27 
REMARK    6  A    between atoms: C17_27  and  O4_28 
ROOT
HETATM    1  C7  UNL     1      27.455   2.816   4.000  1.00  0.00     0.098 A 
HETATM    2  C8  UNL     1      27.389   1.495   3.618  1.00  0.00     0.136 A 
HETATM    3 CL1  UNL     1      26.198   0.705   2.604  1.00  0.00    -0.062 Cl
HETATM    4  N2  UNL     1      28.449   0.899   4.185  1.00  0.00    -0.287 N 
ATOM      5  H2  UNL     1      28.680  -0.090   4.087  1.00  0.00     0.188 HD
HETATM    6  N3  UNL     1      29.162   1.785   4.898  1.00  0.00    -0.292 N 
HETATM    7  C16 UNL     1      28.588   2.982   4.814  1.00  0.00     0.070 A 
ENDROOT
BRANCH   1   8
HETATM    8  C6  UNL     1      26.490   3.824   3.603  1.00  0.00     0.259 C 
HETATM    9  N1  UNL     1      25.424   4.212   4.483  1.00  0.00    -0.333 N 
HETATM   10  C2  UNL     1      24.387   5.183   4.260  1.00  0.00     0.188 C 
HETATM   11  C5  UNL     1      25.209   3.660   5.804  1.00  0.00     0.127 C 
HETATM   12  C3  UNL     1      23.166   4.610   4.937  1.00  0.00     0.038 C 
HETATM   13  C4  UNL     1      23.722   3.636   5.943  1.00  0.00     0.022 C 
HETATM   14  O3  UNL     1      26.542   4.398   2.486  1.00  0.00    -0.267 OA
BRANCH  10  15
HETATM   15  C1  UNL     1      24.755   6.450   4.935  1.00  0.00     0.196 C 
HETATM   16  O1  UNL     1      23.959   7.397   5.151  1.00  0.00    -0.646 OA
HETATM   17  O2  UNL     1      26.065   6.611   5.363  1.00  0.00    -0.646 OA
ENDBRANCH  10  15
ENDBRANCH   1   8
BRANCH   7  18
HETATM   18  C17 UNL     1      28.931   4.289   5.379  1.00  0.00     0.224 C 
BRANCH  18  19
HETATM   19  O4  UNL     1      28.695   5.343   4.519  1.00  0.00    -0.395 OA
ATOM     20  H4  UNL     1      29.456   5.891   4.368  1.00  0.00     0.209 HD
ENDBRANCH  18  19
ENDBRANCH   7  18
BRANCH   6  21
HETATM   21  C9  UNL     1      30.357   1.390   5.599  1.00  0.00     0.153 C 
BRANCH  21  22
HETATM   22  C10 UNL     1      30.222   0.099   6.373  1.00  0.00     0.006 C 
HETATM   23  C11 UNL     1      29.083   0.189   7.368  1.00  0.00     0.012 C 
HETATM   24  C12 UNL     1      29.465   0.848   8.651  1.00  0.00     0.079 C 
HETATM   25  C13 UNL     1      30.773   0.387   9.224  1.00  0.00     0.243 C 
HETATM   26  F1  UNL     1      30.708  -0.934   9.644  1.00  0.00    -0.206 F 
HETATM   27  F2  UNL     1      31.106   1.229  10.268  1.00  0.00    -0.206 F 
HETATM   28  C14 UNL     1      31.890   0.473   8.205  1.00  0.00     0.079 C 
HETATM   29  C15 UNL     1      31.496  -0.349   7.019  1.00  0.00     0.012 C 
ENDBRANCH  21  22
ENDBRANCH   6  21
TORSDOF 6
ENDMDL
MODEL 5
REMARK VINA RESULT: -5.544746627      3.779      7.226
REMARK  6 active torsions:
REMARK  status: ('A' for Active; 'I' for Inactive)
REMARK    1  A    between atoms: C1_2  and  C2_4 
REMARK       I    between atoms: N1_8  and  C6_9 
REMARK    2  A    between atoms: C6_9  and  C7_11 
REMARK    3  A    between atoms: N3_16  and  C9_17 
REMARK    4  A    between atoms: C9_17  and  C10_18 
REMARK    5  A    between atoms: C16_26  and  C17_27 
REMARK    6  A    between atoms: C17_27  and  O4_28 
ROOT
HETATM    1  C7  UNL     1      29.019   1.028   6.339  1.00  0.00     0.098 A 
HETATM    2  C8  UNL     1      27.939   0.580   5.612  1.00  0.00     0.136 A 
HETATM    3 CL1  UNL     1      27.229  -1.022   5.575  1.00  0.00    -0.062 Cl
HETATM    4  N2  UNL     1      27.511   1.639   4.907  1.00  0.00    -0.287 N 
ATOM      5  H2  UNL     1      26.718   1.628   4.267  1.00  0.00     0.188 HD
HETATM    6  N3  UNL     1      28.274   2.714   5.163  1.00  0.00    -0.292 N 
HETATM    7  C16 UNL     1      29.217   2.386   6.042  1.00  0.00     0.070 A 
ENDROOT
BRANCH   1   8
HETATM    8  C6  UNL     1      29.788   0.195   7.245  1.00  0.00     0.259 C 
HETATM    9  N1  UNL     1      29.775   0.437   8.660  1.00  0.00    -0.333 N 
HETATM   10  C2  UNL     1      30.468  -0.277   9.697  1.00  0.00     0.188 C 
HETATM   11  C5  UNL     1      29.023   1.493   9.304  1.00  0.00     0.127 C 
HETATM   12  C3  UNL     1      30.854   0.778  10.705  1.00  0.00     0.038 C 
HETATM   13  C4  UNL     1      29.897   1.911  10.441  1.00  0.00     0.022 C 
HETATM   14  O3  UNL     1      30.493  -0.764   6.839  1.00  0.00    -0.267 OA
BRANCH  10  15
HETATM   15  C1  UNL     1      29.532  -1.229  10.341  1.00  0.00     0.196 C 
HETATM   16  O1  UNL     1      29.225  -2.352   9.870  1.00  0.00    -0.646 OA
HETATM   17  O2  UNL     1      28.950  -0.865  11.546  1.00  0.00    -0.646 OA
ENDBRANCH  10  15
ENDBRANCH   1   8
BRANCH   7  18
HETATM   18  C17 UNL     1      30.299   3.150   6.667  1.00  0.00     0.224 C 
BRANCH  18  19
HETATM   19  O4  UNL     1      31.511   3.028   6.016  1.00  0.00    -0.395 OA
ATOM     20  H4  UNL     1      32.261   3.188   6.576  1.00  0.00     0.209 HD
ENDBRANCH  18  19
ENDBRANCH   7  18
BRANCH   6  21
HETATM   21  C9  UNL     1      28.011   3.982   4.533  1.00  0.00     0.153 C 
BRANCH  21  22
HETATM   22  C10 UNL     1      26.726   4.024   3.738  1.00  0.00     0.006 C 
HETATM   23  C11 UNL     1      26.577   5.358   3.034  1.00  0.00     0.012 C 
HETATM   24  C12 UNL     1      26.005   6.428   3.903  1.00  0.00     0.079 C 
HETATM   25  C13 UNL     1      24.816   6.003   4.715  1.00  0.00     0.243 C 
HETATM   26  F1  UNL     1      23.718   5.735   3.911  1.00  0.00    -0.206 F 
HETATM   27  F2  UNL     1      24.537   7.003   5.627  1.00  0.00    -0.206 F 
HETATM   28  C14 UNL     1      25.103   4.743   5.506  1.00  0.00     0.079 C 
HETATM   29  C15 UNL     1      25.512   3.676   4.540  1.00  0.00     0.012 C 
ENDBRANCH  21  22
ENDBRANCH   6  21
TORSDOF 6
ENDMDL
