MODEL 1
REMARK VINA RESULT: -5.569465480      0.000      0.000
REMARK  7 active torsions:
REMARK  status: ('A' for Active; 'I' for Inactive)
REMARK    1  A    between atoms: C2_2  and  C4_4 
REMARK    2  A    between atoms: C2_2  and  C5_7 
REMARK    3  A    between atoms: C4_4  and  O1_5 
REMARK    4  A    between atoms: C5_7  and  N1_8 
REMARK    5  A    between atoms: C8_11  and  C9_12 
REMARK    6  A    between atoms: C9_12  and  C10_13 
REMARK    7  A    between atoms: C11_14  and  C12_15 
ROOT
HETATM    1  N1  UNL     1      41.558  37.888  -3.965  1.00  0.00     0.089 N 
HETATM    2  C6  UNL     1      40.500  37.746  -4.979  1.00  0.00     0.272 C 
HETATM    3  C7  UNL     1      39.221  37.216  -4.487  1.00  0.00     0.035 C 
HETATM    4  C8  UNL     1      38.643  38.196  -3.471  1.00  0.00    -0.008 C 
HETATM    5  C13 UNL     1      39.676  38.327  -2.412  1.00  0.00     0.035 C 
HETATM    6  C14 UNL     1      41.050  38.741  -2.934  1.00  0.00     0.272 C 
ENDROOT
BRANCH   4   7
HETATM    7  C9  UNL     1      38.320  39.530  -4.114  1.00  0.00     0.031 C 
BRANCH   7   8
HETATM    8  C10 UNL     1      38.132  40.527  -3.047  1.00  0.00    -0.023 C 
HETATM    9  C11 UNL     1      37.473  41.633  -3.090  1.00  0.00     0.040 C 
BRANCH   9  10
HETATM   10  C12 UNL     1      36.747  42.175  -4.205  1.00  0.00     0.109 C 
HETATM   11  N2  UNL     1      35.424  42.034  -4.255  1.00  0.00    -0.388 N 
ATOM     12  H22 UNL     1      35.041  41.531  -3.453  1.00  0.00     0.157 HD
ATOM     13  H21 UNL     1      34.908  42.419  -5.046  1.00  0.00     0.157 HD
HETATM   14  N3  UNL     1      37.275  42.869  -5.312  1.00  0.00    -0.083 NA
ENDBRANCH   9  10
ENDBRANCH   7   8
ENDBRANCH   4   7
BRANCH   1  15
HETATM   15  C5  UNL     1      42.624  38.527  -4.684  1.00  0.00     0.283 C 
BRANCH  15  16
HETATM   16  C2  UNL     1      44.022  38.292  -4.336  1.00  0.00     0.000 C 
HETATM   17  C1  UNL     1      44.262  37.175  -3.378  1.00  0.00     0.019 C 
HETATM   18  C3  UNL     1      44.917  38.117  -5.568  1.00  0.00     0.019 C 
BRANCH  16  19
HETATM   19  C4  UNL     1      44.628  39.547  -3.648  1.00  0.00     0.174 C 
BRANCH  19  20
HETATM   20  O1  UNL     1      45.726  39.994  -4.337  1.00  0.00    -0.400 OA
ATOM     21  H1  UNL     1      45.763  40.944  -4.332  1.00  0.00     0.209 HD
ENDBRANCH  19  20
ENDBRANCH  16  19
ENDBRANCH  15  16
ENDBRANCH   1  15
TORSDOF 7
ENDMDL
MODEL 2
REMARK VINA RESULT: -5.551225146      3.424      7.138
REMARK  7 active torsions:
REMARK  status: ('A' for Active; 'I' for Inactive)
REMARK    1  A    between atoms: C2_2  and  C4_4 
REMARK    2  A    between atoms: C2_2  and  C5_7 
REMARK    3  A    between atoms: C4_4  and  O1_5 
REMARK    4  A    between atoms: C5_7  and  N1_8 
REMARK    5  A    between atoms: C8_11  and  C9_12 
REMARK    6  A    between atoms: C9_12  and  C10_13 
REMARK    7  A    between atoms: C11_14  and  C12_15 
ROOT
HETATM    1  N1  UNL     1      37.579  40.730  -2.480  1.00  0.00     0.089 N 
HETATM    2  C6  UNL     1      38.066  39.771  -1.474  1.00  0.00     0.272 C 
HETATM    3  C7  UNL     1      38.097  38.366  -1.904  1.00  0.00     0.035 C 
HETATM    4  C8  UNL     1      39.080  38.231  -3.063  1.00  0.00    -0.008 C 
HETATM    5  C13 UNL     1      38.588  39.161  -4.112  1.00  0.00     0.035 C 
HETATM    6  C14 UNL     1      38.415  40.601  -3.634  1.00  0.00     0.272 C 
ENDROOT
BRANCH   4   7
HETATM    7  C9  UNL     1      40.494  38.565  -2.630  1.00  0.00     0.031 C 
BRANCH   7   8
HETATM    8  C10 UNL     1      41.407  37.569  -3.214  1.00  0.00    -0.023 C 
HETATM    9  C11 UNL     1      42.670  37.675  -3.439  1.00  0.00     0.040 C 
BRANCH   9  10
HETATM   10  C12 UNL     1      43.515  38.807  -3.173  1.00  0.00     0.109 C 
HETATM   11  N2  UNL     1      44.274  38.813  -2.080  1.00  0.00    -0.388 N 
ATOM     12  H22 UNL     1      44.177  37.968  -1.516  1.00  0.00     0.157 HD
ATOM     13  H21 UNL     1      44.874  39.616  -1.891  1.00  0.00     0.157 HD
HETATM   14  N3  UNL     1      43.649  39.973  -3.952  1.00  0.00    -0.083 NA
ENDBRANCH   9  10
ENDBRANCH   7   8
ENDBRANCH   4   7
BRANCH   1  15
HETATM   15  C5  UNL     1      37.769  42.003  -1.844  1.00  0.00     0.283 C 
BRANCH  15  16
HETATM   16  C2  UNL     1      36.736  42.591  -0.998  1.00  0.00     0.000 C 
HETATM   17  C1  UNL     1      35.333  42.249  -1.372  1.00  0.00     0.019 C 
HETATM   18  C3  UNL     1      36.957  42.303   0.491  1.00  0.00     0.019 C 
BRANCH  16  19
HETATM   19  C4  UNL     1      36.801  44.142  -1.060  1.00  0.00     0.174 C 
BRANCH  19  20
HETATM   20  O1  UNL     1      35.733  44.645  -1.759  1.00  0.00    -0.400 OA
ATOM     21  H1  UNL     1      35.961  45.468  -2.174  1.00  0.00     0.209 HD
ENDBRANCH  19  20
ENDBRANCH  16  19
ENDBRANCH  15  16
ENDBRANCH   1  15
TORSDOF 7
ENDMDL
MODEL 3
REMARK VINA RESULT: -5.537339811      6.255      7.803
REMARK  7 active torsions:
REMARK  status: ('A' for Active; 'I' for Inactive)
REMARK    1  A    between atoms: C2_2  and  C4_4 
REMARK    2  A    between atoms: C2_2  and  C5_7 
REMARK    3  A    between atoms: C4_4  and  O1_5 
REMARK    4  A    between atoms: C5_7  and  N1_8 
REMARK    5  A    between atoms: C8_11  and  C9_12 
REMARK    6  A    between atoms: C9_12  and  C10_13 
REMARK    7  A    between atoms: C11_14  and  C12_15 
ROOT
HETATM    1  N1  UNL     1      35.181  37.953  -9.169  1.00  0.00     0.089 N 
HETATM    2  C6  UNL     1      34.747  38.587 -10.425  1.00  0.00     0.272 C 
HETATM    3  C7  UNL     1      33.330  38.968 -10.485  1.00  0.00     0.035 C 
HETATM    4  C8  UNL     1      33.062  40.024  -9.417  1.00  0.00    -0.008 C 
HETATM    5  C13 UNL     1      33.453  39.395  -8.129  1.00  0.00     0.035 C 
HETATM    6  C14 UNL     1      34.885  38.865  -8.106  1.00  0.00     0.272 C 
ENDROOT
BRANCH   4   7
HETATM    7  C9  UNL     1      33.846  41.293  -9.687  1.00  0.00     0.031 C 
BRANCH   7   8
HETATM    8  C10 UNL     1      33.169  42.412  -9.011  1.00  0.00    -0.023 C 
HETATM    9  C11 UNL     1      33.481  42.985  -7.900  1.00  0.00     0.040 C 
BRANCH   9  10
HETATM   10  C12 UNL     1      34.584  42.672  -7.034  1.00  0.00     0.109 C 
HETATM   11  N2  UNL     1      34.346  42.327  -5.771  1.00  0.00    -0.388 N 
ATOM     12  H22 UNL     1      33.353  42.316  -5.536  1.00  0.00     0.157 HD
ATOM     13  H21 UNL     1      35.129  42.104  -5.156  1.00  0.00     0.157 HD
HETATM   14  N3  UNL     1      35.955  42.686  -7.359  1.00  0.00    -0.083 NA
ENDBRANCH   9  10
ENDBRANCH   7   8
ENDBRANCH   4   7
BRANCH   1  15
HETATM   15  C5  UNL     1      36.598  37.805  -9.342  1.00  0.00     0.283 C 
BRANCH  15  16
HETATM   16  C2  UNL     1      37.229  36.489  -9.337  1.00  0.00     0.000 C 
HETATM   17  C1  UNL     1      38.240  36.270  -8.264  1.00  0.00     0.019 C 
HETATM   18  C3  UNL     1      36.210  35.344  -9.327  1.00  0.00     0.019 C 
BRANCH  16  19
HETATM   19  C4  UNL     1      37.997  36.251 -10.667  1.00  0.00     0.174 C 
BRANCH  19  20
HETATM   20  O1  UNL     1      38.425  37.440 -11.200  1.00  0.00    -0.400 OA
ATOM     21  H1  UNL     1      38.566  37.358 -12.135  1.00  0.00     0.209 HD
ENDBRANCH  19  20
ENDBRANCH  16  19
ENDBRANCH  15  16
ENDBRANCH   1  15
TORSDOF 7
ENDMDL
MODEL 4
REMARK VINA RESULT: -5.483771184      3.261      6.867
REMARK  7 active torsions:
REMARK  status: ('A' for Active; 'I' for Inactive)
REMARK    1  A    between atoms: C2_2  and  C4_4 
REMARK    2  A    between atoms: C2_2  and  C5_7 
REMARK    3  A    between atoms: C4_4  and  O1_5 
REMARK    4  A    between atoms: C5_7  and  N1_8 
REMARK    5  A    between atoms: C8_11  and  C9_12 
REMARK    6  A    between atoms: C9_12  and  C10_13 
REMARK    7  A    between atoms: C11_14  and  C12_15 
ROOT
HETATM    1  N1  UNL     1      37.959  40.280  -2.817  1.00  0.00     0.089 N 
HETATM    2  C6  UNL     1      38.010  39.323  -1.699  1.00  0.00     0.272 C 
HETATM    3  C7  UNL     1      38.042  37.905  -2.081  1.00  0.00     0.035 C 
HETATM    4  C8  UNL     1      39.323  37.639  -2.865  1.00  0.00    -0.008 C 
HETATM    5  C13 UNL     1      39.279  38.564  -4.026  1.00  0.00     0.035 C 
HETATM    6  C14 UNL     1      39.101  40.032  -3.644  1.00  0.00     0.272 C 
ENDROOT
BRANCH   4   7
HETATM    7  C9  UNL     1      40.552  37.867  -2.008  1.00  0.00     0.031 C 
BRANCH   7   8
HETATM    8  C10 UNL     1      41.637  37.008  -2.512  1.00  0.00    -0.023 C 
HETATM    9  C11 UNL     1      42.802  37.355  -2.936  1.00  0.00     0.040 C 
BRANCH   9  10
HETATM   10  C12 UNL     1      43.342  38.684  -3.022  1.00  0.00     0.109 C 
HETATM   11  N2  UNL     1      44.256  39.077  -2.139  1.00  0.00    -0.388 N 
ATOM     12  H22 UNL     1      44.496  38.356  -1.457  1.00  0.00     0.157 HD
ATOM     13  H21 UNL     1      44.640  40.020  -2.200  1.00  0.00     0.157 HD
HETATM   14  N3  UNL     1      43.011  39.679  -3.963  1.00  0.00    -0.083 NA
ENDBRANCH   9  10
ENDBRANCH   7   8
ENDBRANCH   4   7
BRANCH   1  15
HETATM   15  C5  UNL     1      38.058  41.556  -2.169  1.00  0.00     0.283 C 
BRANCH  15  16
HETATM   16  C2  UNL     1      37.047  42.589  -2.368  1.00  0.00     0.000 C 
HETATM   17  C1  UNL     1      37.502  43.986  -2.109  1.00  0.00     0.019 C 
HETATM   18  C3  UNL     1      36.384  42.510  -3.748  1.00  0.00     0.019 C 
BRANCH  16  19
HETATM   19  C4  UNL     1      35.850  42.371  -1.400  1.00  0.00     0.174 C 
BRANCH  19  20
HETATM   20  O1  UNL     1      34.788  41.810  -2.062  1.00  0.00    -0.400 OA
ATOM     21  H1  UNL     1      35.059  41.031  -2.533  1.00  0.00     0.209 HD
ENDBRANCH  19  20
ENDBRANCH  16  19
ENDBRANCH  15  16
ENDBRANCH   1  15
TORSDOF 7
ENDMDL
MODEL 5
REMARK VINA RESULT: -5.480034498      3.390      7.113
REMARK  7 active torsions:
REMARK  status: ('A' for Active; 'I' for Inactive)
REMARK    1  A    between atoms: C2_2  and  C4_4 
REMARK    2  A    between atoms: C2_2  and  C5_7 
REMARK    3  A    between atoms: C4_4  and  O1_5 
REMARK    4  A    between atoms: C5_7  and  N1_8 
REMARK    5  A    between atoms: C8_11  and  C9_12 
REMARK    6  A    between atoms: C9_12  and  C10_13 
REMARK    7  A    between atoms: C11_14  and  C12_15 
ROOT
HETATM    1  N1  UNL     1      37.585  40.628  -2.445  1.00  0.00     0.089 N 
HETATM    2  C6  UNL     1      38.102  39.686  -1.438  1.00  0.00     0.272 C 
HETATM    3  C7  UNL     1      38.140  38.277  -1.852  1.00  0.00     0.035 C 
HETATM    4  C8  UNL     1      39.101  38.138  -3.028  1.00  0.00    -0.008 C 
HETATM    5  C13 UNL     1      38.579  39.050  -4.078  1.00  0.00     0.035 C 
HETATM    6  C14 UNL     1      38.400  40.493  -3.614  1.00  0.00     0.272 C 
ENDROOT
BRANCH   4   7
HETATM    7  C9  UNL     1      40.519  38.492  -2.626  1.00  0.00     0.031 C 
BRANCH   7   8
HETATM    8  C10 UNL     1      41.439  37.554  -3.289  1.00  0.00    -0.023 C 
HETATM    9  C11 UNL     1      42.696  37.699  -3.531  1.00  0.00     0.040 C 
BRANCH   9  10
HETATM   10  C12 UNL     1      43.524  38.828  -3.207  1.00  0.00     0.109 C 
HETATM   11  N2  UNL     1      44.260  38.803  -2.099  1.00  0.00    -0.388 N 
ATOM     12  H22 UNL     1      44.158  37.938  -1.566  1.00  0.00     0.157 HD
ATOM     13  H21 UNL     1      44.848  39.604  -1.869  1.00  0.00     0.157 HD
HETATM   14  N3  UNL     1      43.665  40.022  -3.943  1.00  0.00    -0.083 NA
ENDBRANCH   9  10
ENDBRANCH   7   8
ENDBRANCH   4   7
BRANCH   1  15
HETATM   15  C5  UNL     1      37.773  41.910  -1.828  1.00  0.00     0.283 C 
BRANCH  15  16
HETATM   16  C2  UNL     1      36.744  42.504  -0.982  1.00  0.00     0.000 C 
HETATM   17  C1  UNL     1      36.938  42.318   0.485  1.00  0.00     0.019 C 
HETATM   18  C3  UNL     1      36.511  43.988  -1.287  1.00  0.00     0.019 C 
BRANCH  16  19
HETATM   19  C4  UNL     1      35.358  41.870  -1.287  1.00  0.00     0.174 C 
BRANCH  19  20
HETATM   20  O1  UNL     1      34.930  42.221  -2.542  1.00  0.00    -0.400 OA
ATOM     21  H1  UNL     1      33.988  42.342  -2.554  1.00  0.00     0.209 HD
ENDBRANCH  19  20
ENDBRANCH  16  19
ENDBRANCH  15  16
ENDBRANCH   1  15
TORSDOF 7
ENDMDL
