MODEL 1
REMARK VINA RESULT: -7.381227420      0.000      0.000
REMARK  8 active torsions:
REMARK  status: ('A' for Active; 'I' for Inactive)
REMARK    1  A    between atoms: O1_1  and  C1_3 
REMARK    2  A    between atoms: C1_3  and  O2_4 
REMARK    3  A    between atoms: C1_3  and  C2_6 
REMARK    4  A    between atoms: C3_7  and  O3_8 
REMARK    5  A    between atoms: O3_8  and  C4_9 
REMARK    6  A    between atoms: C4_9  and  C5_10 
REMARK    7  A    between atoms: C12_19  and  O4_20 
REMARK    8  A    between atoms: O4_20  and  C13_21 
ROOT
HETATM    1  C2  UNL     1      17.092   4.527  12.154  1.00  0.00     0.060 A 
HETATM    2  C3  UNL     1      16.937   4.654  13.551  1.00  0.00     0.154 A 
HETATM    3  N1  UNL     1      17.723   5.624  14.001  1.00  0.00    -0.339 N 
ATOM      4  H1  UNL     1      17.806   5.924  14.972  1.00  0.00     0.168 HD
HETATM    5  C10 UNL     1      18.384   6.137  12.964  1.00  0.00     0.025 A 
HETATM    6  C11 UNL     1      18.014   5.472  11.783  1.00  0.00     0.034 A 
HETATM    7  C12 UNL     1      18.701   5.965  10.578  1.00  0.00     0.298 C 
HETATM    8  O5  UNL     1      18.596   7.348  10.449  1.00  0.00    -0.356 OA
HETATM    9  C14 UNL     1      18.861   8.054  11.592  1.00  0.00     0.177 C 
HETATM   10  C15 UNL     1      19.397   7.215  12.732  1.00  0.00     0.084 C 
ENDROOT
BRANCH   2  11
HETATM   11  O3  UNL     1      16.078   3.849  14.234  1.00  0.00    -0.335 OA
BRANCH  11  12
HETATM   12  C4  UNL     1      16.234   3.193  15.446  1.00  0.00     0.182 C 
BRANCH  12  13
HETATM   13  C5  UNL     1      15.998   4.107  16.587  1.00  0.00     0.010 C 
HETATM   14  C6  UNL     1      14.955   5.182  16.267  1.00  0.00     0.007 C 
HETATM   15  C7  UNL     1      14.728   5.768  17.649  1.00  0.00     0.000 C 
HETATM   16  C8  UNL     1      14.953   4.606  18.623  1.00  0.00     0.000 C 
HETATM   17  C9  UNL     1      15.272   3.410  17.745  1.00  0.00     0.007 C 
ENDBRANCH  12  13
ENDBRANCH  11  12
ENDBRANCH   2  11
BRANCH   1  18
HETATM   18  C1  UNL     1      16.417   3.578  11.263  1.00  0.00     0.293 C 
BRANCH  18  19
HETATM   19  O1  UNL     1      15.046   3.749  11.166  1.00  0.00    -0.367 OA
ATOM     20  H1  UNL     1      14.841   3.665  10.242  1.00  0.00     0.213 HD
ENDBRANCH  18  19
BRANCH  18  21
HETATM   21  O2  UNL     1      16.604   2.291  11.822  1.00  0.00    -0.367 OA
ATOM     22  H2  UNL     1      15.878   1.766  11.508  1.00  0.00     0.213 HD
ENDBRANCH  18  21
ENDBRANCH   1  18
BRANCH   7  23
HETATM   23  O4  UNL     1      18.364   5.371   9.403  1.00  0.00    -0.343 OA
BRANCH  23  24
HETATM   24  C13 UNL     1      19.022   5.988   8.349  1.00  0.00     0.285 C 
HETATM   25 CL1  UNL     1      17.840   6.695   7.197  1.00  0.00    -0.102 Cl
ENDBRANCH  23  24
ENDBRANCH   7  23
TORSDOF 8
ENDMDL
MODEL 2
REMARK VINA RESULT: -7.248187251      1.515      1.571
REMARK  8 active torsions:
REMARK  status: ('A' for Active; 'I' for Inactive)
REMARK    1  A    between atoms: O1_1  and  C1_3 
REMARK    2  A    between atoms: C1_3  and  O2_4 
REMARK    3  A    between atoms: C1_3  and  C2_6 
REMARK    4  A    between atoms: C3_7  and  O3_8 
REMARK    5  A    between atoms: O3_8  and  C4_9 
REMARK    6  A    between atoms: C4_9  and  C5_10 
REMARK    7  A    between atoms: C12_19  and  O4_20 
REMARK    8  A    between atoms: O4_20  and  C13_21 
ROOT
HETATM    1  C2  UNL     1      16.912   5.430  12.468  1.00  0.00     0.060 A 
HETATM    2  C3  UNL     1      17.018   5.533  13.871  1.00  0.00     0.154 A 
HETATM    3  N1  UNL     1      17.111   6.809  14.220  1.00  0.00    -0.339 N 
ATOM      4  H1  UNL     1      17.198   7.164  15.172  1.00  0.00     0.168 HD
HETATM    5  C10 UNL     1      17.071   7.547  13.111  1.00  0.00     0.025 A 
HETATM    6  C11 UNL     1      16.946   6.714  11.986  1.00  0.00     0.034 A 
HETATM    7  C12 UNL     1      16.901   7.439  10.705  1.00  0.00     0.298 C 
HETATM    8  O5  UNL     1      15.940   8.448  10.713  1.00  0.00    -0.356 OA
HETATM    9  C14 UNL     1      15.951   9.245  11.827  1.00  0.00     0.177 C 
HETATM   10  C15 UNL     1      17.120   9.000  12.755  1.00  0.00     0.084 C 
ENDROOT
BRANCH   2  11
HETATM   11  O3  UNL     1      17.013   4.420  14.655  1.00  0.00    -0.335 OA
BRANCH  11  12
HETATM   12  C4  UNL     1      15.984   3.834  15.376  1.00  0.00     0.182 C 
BRANCH  12  13
HETATM   13  C5  UNL     1      15.839   4.457  16.711  1.00  0.00     0.010 C 
HETATM   14  C6  UNL     1      14.794   5.577  16.721  1.00  0.00     0.007 C 
HETATM   15  C7  UNL     1      14.670   5.826  18.215  1.00  0.00     0.000 C 
HETATM   16  C8  UNL     1      14.940   4.469  18.874  1.00  0.00     0.000 C 
HETATM   17  C9  UNL     1      15.180   3.510  17.723  1.00  0.00     0.007 C 
ENDBRANCH  12  13
ENDBRANCH  11  12
ENDBRANCH   2  11
BRANCH   1  18
HETATM   18  C1  UNL     1      16.795   4.207  11.667  1.00  0.00     0.293 C 
BRANCH  18  19
HETATM   19  O1  UNL     1      15.520   3.670  11.613  1.00  0.00    -0.367 OA
ATOM     20  H1  UNL     1      15.143   3.982  10.798  1.00  0.00     0.213 HD
ENDBRANCH  18  19
BRANCH  18  21
HETATM   21  O2  UNL     1      17.596   3.228  12.302  1.00  0.00    -0.367 OA
ATOM     22  H2  UNL     1      18.382   3.681  12.584  1.00  0.00     0.213 HD
ENDBRANCH  18  21
ENDBRANCH   1  18
BRANCH   7  23
HETATM   23  O4  UNL     1      16.759   6.683   9.586  1.00  0.00    -0.343 OA
BRANCH  23  24
HETATM   24  C13 UNL     1      17.994   6.477   8.987  1.00  0.00     0.285 C 
HETATM   25 CL1  UNL     1      17.880   6.714   7.211  1.00  0.00    -0.102 Cl
ENDBRANCH  23  24
ENDBRANCH   7  23
TORSDOF 8
ENDMDL
MODEL 3
REMARK VINA RESULT: -7.198165949      3.047      5.751
REMARK  8 active torsions:
REMARK  status: ('A' for Active; 'I' for Inactive)
REMARK    1  A    between atoms: O1_1  and  C1_3 
REMARK    2  A    between atoms: C1_3  and  O2_4 
REMARK    3  A    between atoms: C1_3  and  C2_6 
REMARK    4  A    between atoms: C3_7  and  O3_8 
REMARK    5  A    between atoms: O3_8  and  C4_9 
REMARK    6  A    between atoms: C4_9  and  C5_10 
REMARK    7  A    between atoms: C12_19  and  O4_20 
REMARK    8  A    between atoms: O4_20  and  C13_21 
ROOT
HETATM    1  C2  UNL     1      16.677   6.041  14.553  1.00  0.00     0.060 A 
HETATM    2  C3  UNL     1      16.066   6.925  15.468  1.00  0.00     0.154 A 
HETATM    3  N1  UNL     1      15.300   6.241  16.308  1.00  0.00    -0.339 N 
ATOM      4  H1  UNL     1      14.746   6.634  17.067  1.00  0.00     0.168 HD
HETATM    5  C10 UNL     1      15.382   4.950  15.985  1.00  0.00     0.025 A 
HETATM    6  C11 UNL     1      16.240   4.784  14.885  1.00  0.00     0.034 A 
HETATM    7  C12 UNL     1      16.389   3.387  14.447  1.00  0.00     0.298 C 
HETATM    8  O5  UNL     1      16.731   2.545  15.503  1.00  0.00    -0.356 OA
HETATM    9  C14 UNL     1      15.987   2.716  16.639  1.00  0.00     0.177 C 
HETATM   10  C15 UNL     1      14.812   3.656  16.479  1.00  0.00     0.084 C 
ENDROOT
BRANCH   2  11
HETATM   11  O3  UNL     1      16.300   8.265  15.407  1.00  0.00    -0.335 OA
BRANCH  11  12
HETATM   12  C4  UNL     1      17.112   9.071  16.190  1.00  0.00     0.182 C 
BRANCH  12  13
HETATM   13  C5  UNL     1      18.361   9.430  15.480  1.00  0.00     0.010 C 
HETATM   14  C6  UNL     1      18.110   9.821  14.021  1.00  0.00     0.007 C 
HETATM   15  C7  UNL     1      19.471  10.381  13.646  1.00  0.00     0.000 C 
HETATM   16  C8  UNL     1      20.032  10.980  14.941  1.00  0.00     0.000 C 
HETATM   17  C9  UNL     1      18.951  10.755  15.982  1.00  0.00     0.007 C 
ENDBRANCH  12  13
ENDBRANCH  11  12
ENDBRANCH   2  11
BRANCH   1  18
HETATM   18  C1  UNL     1      17.593   6.380  13.459  1.00  0.00     0.293 C 
BRANCH  18  19
HETATM   19  O1  UNL     1      17.201   5.919  12.213  1.00  0.00    -0.367 OA
ATOM     20  H1  UNL     1      17.724   6.402  11.584  1.00  0.00     0.213 HD
ENDBRANCH  18  19
BRANCH  18  21
HETATM   21  O2  UNL     1      18.819   5.733  13.740  1.00  0.00    -0.367 OA
ATOM     22  H2  UNL     1      19.027   5.953  14.640  1.00  0.00     0.213 HD
ENDBRANCH  18  21
ENDBRANCH   1  18
BRANCH   7  23
HETATM   23  O4  UNL     1      17.225   3.167  13.399  1.00  0.00    -0.343 OA
BRANCH  23  24
HETATM   24  C13 UNL     1      16.694   2.199  12.558  1.00  0.00     0.285 C 
HETATM   25 CL1  UNL     1      15.930   2.963  11.123  1.00  0.00    -0.102 Cl
ENDBRANCH  23  24
ENDBRANCH   7  23
TORSDOF 8
ENDMDL
MODEL 4
REMARK VINA RESULT: -7.145000556      2.106      2.526
REMARK  8 active torsions:
REMARK  status: ('A' for Active; 'I' for Inactive)
REMARK    1  A    between atoms: O1_1  and  C1_3 
REMARK    2  A    between atoms: C1_3  and  O2_4 
REMARK    3  A    between atoms: C1_3  and  C2_6 
REMARK    4  A    between atoms: C3_7  and  O3_8 
REMARK    5  A    between atoms: O3_8  and  C4_9 
REMARK    6  A    between atoms: C4_9  and  C5_10 
REMARK    7  A    between atoms: C12_19  and  O4_20 
REMARK    8  A    between atoms: O4_20  and  C13_21 
ROOT
HETATM    1  C2  UNL     1      16.635   5.914  13.101  1.00  0.00     0.060 A 
HETATM    2  C3  UNL     1      16.406   6.617  14.303  1.00  0.00     0.154 A 
HETATM    3  N1  UNL     1      16.264   7.911  14.044  1.00  0.00    -0.339 N 
ATOM      4  H1  UNL     1      16.090   8.643  14.732  1.00  0.00     0.168 HD
HETATM    5  C10 UNL     1      16.389   8.086  12.729  1.00  0.00     0.025 A 
HETATM    6  C11 UNL     1      16.623   6.852  12.100  1.00  0.00     0.034 A 
HETATM    7  C12 UNL     1      16.784   6.944  10.640  1.00  0.00     0.298 C 
HETATM    8  O5  UNL     1      15.732   7.638  10.045  1.00  0.00    -0.356 OA
HETATM    9  C14 UNL     1      15.395   8.812  10.662  1.00  0.00     0.177 C 
HETATM   10  C15 UNL     1      16.344   9.231  11.764  1.00  0.00     0.084 C 
ENDROOT
BRANCH   2  11
HETATM   11  O3  UNL     1      16.357   5.964  15.496  1.00  0.00    -0.335 OA
BRANCH  11  12
HETATM   12  C4  UNL     1      15.455   6.072  16.543  1.00  0.00     0.182 C 
BRANCH  12  13
HETATM   13  C5  UNL     1      15.176   4.752  17.154  1.00  0.00     0.010 C 
HETATM   14  C6  UNL     1      13.869   4.138  16.643  1.00  0.00     0.007 C 
HETATM   15  C7  UNL     1      13.985   2.733  17.206  1.00  0.00     0.000 C 
HETATM   16  C8  UNL     1      15.488   2.433  17.237  1.00  0.00     0.000 C 
HETATM   17  C9  UNL     1      16.151   3.672  16.666  1.00  0.00     0.007 C 
ENDBRANCH  12  13
ENDBRANCH  11  12
ENDBRANCH   2  11
BRANCH   1  18
HETATM   18  C1  UNL     1      16.850   4.473  12.937  1.00  0.00     0.293 C 
BRANCH  18  19
HETATM   19  O1  UNL     1      18.047   4.132  12.330  1.00  0.00    -0.367 OA
ATOM     20  H1  UNL     1      18.272   4.866  11.772  1.00  0.00     0.213 HD
ENDBRANCH  18  19
BRANCH  18  21
HETATM   21  O2  UNL     1      15.834   4.007  12.069  1.00  0.00    -0.367 OA
ATOM     22  H2  UNL     1      15.013   4.271  12.467  1.00  0.00     0.213 HD
ENDBRANCH  18  21
ENDBRANCH   1  18
BRANCH   7  23
HETATM   23  O4  UNL     1      16.991   5.776   9.979  1.00  0.00    -0.343 OA
BRANCH  23  24
HETATM   24  C13 UNL     1      18.118   5.874   9.175  1.00  0.00     0.285 C 
HETATM   25 CL1  UNL     1      19.555   6.317  10.156  1.00  0.00    -0.102 Cl
ENDBRANCH  23  24
ENDBRANCH   7  23
TORSDOF 8
ENDMDL
MODEL 5
REMARK VINA RESULT: -7.094062850      2.077      2.553
REMARK  8 active torsions:
REMARK  status: ('A' for Active; 'I' for Inactive)
REMARK    1  A    between atoms: O1_1  and  C1_3 
REMARK    2  A    between atoms: C1_3  and  O2_4 
REMARK    3  A    between atoms: C1_3  and  C2_6 
REMARK    4  A    between atoms: C3_7  and  O3_8 
REMARK    5  A    between atoms: O3_8  and  C4_9 
REMARK    6  A    between atoms: C4_9  and  C5_10 
REMARK    7  A    between atoms: C12_19  and  O4_20 
REMARK    8  A    between atoms: O4_20  and  C13_21 
ROOT
HETATM    1  C2  UNL     1      16.675   6.274  12.884  1.00  0.00     0.060 A 
HETATM    2  C3  UNL     1      16.420   7.072  14.018  1.00  0.00     0.154 A 
HETATM    3  N1  UNL     1      16.215   8.328  13.644  1.00  0.00    -0.339 N 
ATOM      4  H1  UNL     1      16.010   9.111  14.264  1.00  0.00     0.168 HD
HETATM    5  C10 UNL     1      16.324   8.389  12.317  1.00  0.00     0.025 A 
HETATM    6  C11 UNL     1      16.613   7.114  11.802  1.00  0.00     0.034 A 
HETATM    7  C12 UNL     1      16.760   7.080  10.337  1.00  0.00     0.298 C 
HETATM    8  O5  UNL     1      15.674   7.666   9.692  1.00  0.00    -0.356 OA
HETATM    9  C14 UNL     1      15.285   8.875  10.203  1.00  0.00     0.177 C 
HETATM   10  C15 UNL     1      16.219   9.437  11.253  1.00  0.00     0.084 C 
ENDROOT
BRANCH   2  11
HETATM   11  O3  UNL     1      16.408   6.529  15.267  1.00  0.00    -0.335 OA
BRANCH  11  12
HETATM   12  C4  UNL     1      15.455   6.605  16.270  1.00  0.00     0.182 C 
BRANCH  12  13
HETATM   13  C5  UNL     1      15.039   5.257  16.723  1.00  0.00     0.010 C 
HETATM   14  C6  UNL     1      16.097   4.191  16.423  1.00  0.00     0.007 C 
HETATM   15  C7  UNL     1      15.540   3.019  17.213  1.00  0.00     0.000 C 
HETATM   16  C8  UNL     1      14.814   3.647  18.408  1.00  0.00     0.000 C 
HETATM   17  C9  UNL     1      15.015   5.143  18.253  1.00  0.00     0.007 C 
ENDBRANCH  12  13
ENDBRANCH  11  12
ENDBRANCH   2  11
BRANCH   1  18
HETATM   18  C1  UNL     1      16.957   4.835  12.849  1.00  0.00     0.293 C 
BRANCH  18  19
HETATM   19  O1  UNL     1      18.168   4.497  12.270  1.00  0.00    -0.367 OA
ATOM     20  H1  UNL     1      17.976   4.314  11.358  1.00  0.00     0.213 HD
ENDBRANCH  18  19
BRANCH  18  21
HETATM   21  O2  UNL     1      15.963   4.246  12.031  1.00  0.00    -0.367 OA
ATOM     22  H2  UNL     1      15.465   4.969  11.670  1.00  0.00     0.213 HD
ENDBRANCH  18  21
ENDBRANCH   1  18
BRANCH   7  23
HETATM   23  O4  UNL     1      17.020   5.867   9.783  1.00  0.00    -0.343 OA
BRANCH  23  24
HETATM   24  C13 UNL     1      18.238   5.894   9.120  1.00  0.00     0.285 C 
HETATM   25 CL1  UNL     1      18.051   6.625   7.490  1.00  0.00    -0.102 Cl
ENDBRANCH  23  24
ENDBRANCH   7  23
TORSDOF 8
ENDMDL
