MODEL 1
REMARK VINA RESULT: -7.178679812      0.000      0.000
REMARK  6 active torsions:
REMARK  status: ('A' for Active; 'I' for Inactive)
REMARK    1  A    between atoms: C3_5  and  S1_6 
REMARK    2  A    between atoms: S1_6  and  C4_7 
REMARK    3  A    between atoms: C11_20  and  C12_21 
REMARK    4  A    between atoms: N4_22  and  C13_24 
REMARK    5  A    between atoms: C13_24  and  C14_25 
REMARK    6  A    between atoms: C14_25  and  O2_26 
ROOT
HETATM    1  C1  UNL     1      19.971   9.135  12.999  1.00  0.00     0.069 C 
HETATM    2  C2  UNL     1      19.225   7.866  13.161  1.00  0.00     0.024 A 
HETATM    3  N1  UNL     1      18.130   7.797  13.975  1.00  0.00    -0.340 N 
ATOM      4  H1  UNL     1      17.825   8.632  14.476  1.00  0.00     0.168 HD
HETATM    5  C3  UNL     1      17.452   6.654  14.127  1.00  0.00     0.149 A 
HETATM    6  N3  UNL     1      17.861   5.564  13.463  1.00  0.00    -0.303 N 
ATOM      7  H3  UNL     1      17.341   4.695  13.580  1.00  0.00     0.171 HD
HETATM    8  C10 UNL     1      18.919   5.572  12.656  1.00  0.00     0.260 A 
HETATM    9  O1  UNL     1      19.249   4.524  12.066  1.00  0.00    -0.267 OA
HETATM   10  C11 UNL     1      19.644   6.757  12.483  1.00  0.00     0.069 A 
ENDROOT
BRANCH   5  11
HETATM   11  S1  UNL     1      16.043   6.653  15.205  1.00  0.00    -0.060 SA
BRANCH  11  12
HETATM   12  C4  UNL     1      16.054   5.235  16.337  1.00  0.00     0.254 C 
HETATM   13  C5  UNL     1      15.074   5.477  17.445  1.00  0.00     0.044 C 
HETATM   14  C6  UNL     1      14.771   4.249  18.254  1.00  0.00     0.003 C 
HETATM   15  C7  UNL     1      14.153   3.141  17.465  1.00  0.00     0.002 C 
HETATM   16  C8  UNL     1      15.195   2.159  16.946  1.00  0.00     0.027 C 
HETATM   17  C9  UNL     1      16.365   2.889  16.334  1.00  0.00     0.233 C 
HETATM   18  N2  UNL     1      15.852   4.031  15.608  1.00  0.00    -0.062 N 
ATOM     19  H22 UNL     1      14.872   3.906  15.354  1.00  0.00     0.278 HD
ATOM     20  H21 UNL     1      16.249   4.088  14.670  1.00  0.00     0.278 HD
ENDBRANCH  11  12
ENDBRANCH   5  11
BRANCH  10  21
HETATM   21  C12 UNL     1      20.784   6.684  11.589  1.00  0.00     0.102 C 
HETATM   22  N4  UNL     1      21.705   5.806  11.664  1.00  0.00    -0.396 N 
ATOM     23  H4  UNL     1      21.638   5.106  12.404  1.00  0.00     0.158 HD
BRANCH  22  24
HETATM   24  C13 UNL     1      22.839   5.737  10.770  1.00  0.00     0.145 C 
BRANCH  24  25
HETATM   25  C14 UNL     1      23.978   6.630  11.226  1.00  0.00     0.183 C 
BRANCH  25  26
HETATM   26  O2  UNL     1      24.577   6.035  12.337  1.00  0.00    -0.399 OA
ATOM     27  H2  UNL     1      25.210   6.648  12.694  1.00  0.00     0.209 HD
ENDBRANCH  25  26
ENDBRANCH  24  25
ENDBRANCH  22  24
ENDBRANCH  10  21
TORSDOF 6
ENDMDL
MODEL 2
REMARK VINA RESULT: -6.803282393      1.453      1.544
REMARK  6 active torsions:
REMARK  status: ('A' for Active; 'I' for Inactive)
REMARK    1  A    between atoms: C3_5  and  S1_6 
REMARK    2  A    between atoms: S1_6  and  C4_7 
REMARK    3  A    between atoms: C11_20  and  C12_21 
REMARK    4  A    between atoms: N4_22  and  C13_24 
REMARK    5  A    between atoms: C13_24  and  C14_25 
REMARK    6  A    between atoms: C14_25  and  O2_26 
ROOT
HETATM    1  C1  UNL     1      18.947   8.636  10.669  1.00  0.00     0.069 C 
HETATM    2  C2  UNL     1      18.670   7.457  11.521  1.00  0.00     0.024 A 
HETATM    3  N1  UNL     1      17.581   7.429  12.344  1.00  0.00    -0.340 N 
ATOM      4  H1  UNL     1      16.952   8.232  12.370  1.00  0.00     0.168 HD
HETATM    5  C3  UNL     1      17.325   6.368  13.118  1.00  0.00     0.149 A 
HETATM    6  N3  UNL     1      18.158   5.318  13.074  1.00  0.00    -0.303 N 
ATOM      7  H3  UNL     1      17.959   4.510  13.664  1.00  0.00     0.171 HD
HETATM    8  C10 UNL     1      19.233   5.288  12.291  1.00  0.00     0.260 A 
HETATM    9  O1  UNL     1      19.969   4.281  12.296  1.00  0.00    -0.267 OA
HETATM   10  C11 UNL     1      19.520   6.389  11.474  1.00  0.00     0.069 A 
ENDROOT
BRANCH   5  11
HETATM   11  S1  UNL     1      15.889   6.416  14.159  1.00  0.00    -0.060 SA
BRANCH  11  12
HETATM   12  C4  UNL     1      16.059   5.330  15.602  1.00  0.00     0.254 C 
HETATM   13  C5  UNL     1      15.199   5.847  16.715  1.00  0.00     0.044 C 
HETATM   14  C6  UNL     1      15.017   4.864  17.835  1.00  0.00     0.003 C 
HETATM   15  C7  UNL     1      14.346   3.594  17.425  1.00  0.00     0.002 C 
HETATM   16  C8  UNL     1      15.350   2.509  17.056  1.00  0.00     0.027 C 
HETATM   17  C9  UNL     1      16.427   3.058  16.153  1.00  0.00     0.233 C 
HETATM   18  N2  UNL     1      15.810   3.981  15.226  1.00  0.00    -0.062 N 
ATOM     19  H22 UNL     1      14.812   3.798  15.123  1.00  0.00     0.278 HD
ATOM     20  H21 UNL     1      16.101   3.798  14.265  1.00  0.00     0.278 HD
ENDBRANCH  11  12
ENDBRANCH   5  11
BRANCH  10  21
HETATM   21  C12 UNL     1      20.710   6.281  10.651  1.00  0.00     0.102 C 
HETATM   22  N4  UNL     1      21.862   5.956  11.088  1.00  0.00    -0.396 N 
ATOM     23  H4  UNL     1      21.957   5.758  12.085  1.00  0.00     0.158 HD
BRANCH  22  24
HETATM   24  C13 UNL     1      23.045   5.849  10.264  1.00  0.00     0.145 C 
BRANCH  24  25
HETATM   25  C14 UNL     1      22.710   5.471   8.833  1.00  0.00     0.183 C 
BRANCH  25  26
HETATM   26  O2  UNL     1      23.090   4.142   8.637  1.00  0.00    -0.399 OA
ATOM     27  H2  UNL     1      23.579   3.860   9.401  1.00  0.00     0.209 HD
ENDBRANCH  25  26
ENDBRANCH  24  25
ENDBRANCH  22  24
ENDBRANCH  10  21
TORSDOF 6
ENDMDL
MODEL 3
REMARK VINA RESULT: -6.650689067      2.961      3.691
REMARK  6 active torsions:
REMARK  status: ('A' for Active; 'I' for Inactive)
REMARK    1  A    between atoms: C3_5  and  S1_6 
REMARK    2  A    between atoms: S1_6  and  C4_7 
REMARK    3  A    between atoms: C11_20  and  C12_21 
REMARK    4  A    between atoms: N4_22  and  C13_24 
REMARK    5  A    between atoms: C13_24  and  C14_25 
REMARK    6  A    between atoms: C14_25  and  O2_26 
ROOT
HETATM    1  C1  UNL     1      19.300   7.209  13.007  1.00  0.00     0.069 C 
HETATM    2  C2  UNL     1      18.368   6.123  12.624  1.00  0.00     0.024 A 
HETATM    3  N1  UNL     1      17.920   5.228  13.553  1.00  0.00    -0.340 N 
ATOM      4  H1  UNL     1      18.231   5.310  14.520  1.00  0.00     0.168 HD
HETATM    5  C3  UNL     1      17.078   4.243  13.214  1.00  0.00     0.149 A 
HETATM    6  N3  UNL     1      16.674   4.146  11.939  1.00  0.00    -0.303 N 
ATOM      7  H3  UNL     1      16.032   3.395  11.685  1.00  0.00     0.171 HD
HETATM    8  C10 UNL     1      17.077   4.990  10.993  1.00  0.00     0.260 A 
HETATM    9  O1  UNL     1      16.665   4.845   9.825  1.00  0.00    -0.267 OA
HETATM   10  C11 UNL     1      17.958   6.026  11.325  1.00  0.00     0.069 A 
ENDROOT
BRANCH   5  11
HETATM   11  S1  UNL     1      16.546   3.123  14.482  1.00  0.00    -0.060 SA
BRANCH  11  12
HETATM   12  C4  UNL     1      15.350   3.892  15.609  1.00  0.00     0.254 C 
HETATM   13  C5  UNL     1      14.932   2.893  16.645  1.00  0.00     0.044 C 
HETATM   14  C6  UNL     1      14.198   3.504  17.803  1.00  0.00     0.003 C 
HETATM   15  C7  UNL     1      15.001   4.502  18.572  1.00  0.00     0.002 C 
HETATM   16  C8  UNL     1      14.769   5.924  18.080  1.00  0.00     0.027 C 
HETATM   17  C9  UNL     1      14.825   5.989  16.573  1.00  0.00     0.233 C 
HETATM   18  N2  UNL     1      15.881   5.107  16.125  1.00  0.00    -0.062 N 
ATOM     19  H22 UNL     1      16.565   4.935  16.861  1.00  0.00     0.278 HD
ATOM     20  H21 UNL     1      16.492   5.566  15.450  1.00  0.00     0.278 HD
ENDBRANCH  11  12
ENDBRANCH   5  11
BRANCH  10  21
HETATM   21  C12 UNL     1      18.352   6.903  10.239  1.00  0.00     0.102 C 
HETATM   22  N4  UNL     1      18.806   6.502   9.117  1.00  0.00    -0.396 N 
ATOM     23  H4  UNL     1      18.901   5.496   8.971  1.00  0.00     0.158 HD
BRANCH  22  24
HETATM   24  C13 UNL     1      19.197   7.380   8.037  1.00  0.00     0.145 C 
BRANCH  24  25
HETATM   25  C14 UNL     1      18.414   7.104   6.766  1.00  0.00     0.183 C 
BRANCH  25  26
HETATM   26  O2  UNL     1      17.304   6.329   7.102  1.00  0.00    -0.399 OA
ATOM     27  H2  UNL     1      16.536   6.889   7.081  1.00  0.00     0.209 HD
ENDBRANCH  25  26
ENDBRANCH  24  25
ENDBRANCH  22  24
ENDBRANCH  10  21
TORSDOF 6
ENDMDL
MODEL 4
REMARK VINA RESULT: -6.593846328      3.551      7.635
REMARK  6 active torsions:
REMARK  status: ('A' for Active; 'I' for Inactive)
REMARK    1  A    between atoms: C3_5  and  S1_6 
REMARK    2  A    between atoms: S1_6  and  C4_7 
REMARK    3  A    between atoms: C11_20  and  C12_21 
REMARK    4  A    between atoms: N4_22  and  C13_24 
REMARK    5  A    between atoms: C13_24  and  C14_25 
REMARK    6  A    between atoms: C14_25  and  O2_26 
ROOT
HETATM    1  C1  UNL     1      15.348   7.060  16.403  1.00  0.00     0.069 C 
HETATM    2  C2  UNL     1      16.319   7.068  15.284  1.00  0.00     0.024 A 
HETATM    3  N1  UNL     1      16.857   8.240  14.834  1.00  0.00    -0.340 N 
ATOM      4  H1  UNL     1      16.586   9.118  15.275  1.00  0.00     0.168 HD
HETATM    5  C3  UNL     1      17.734   8.254  13.823  1.00  0.00     0.149 A 
HETATM    6  N3  UNL     1      18.084   7.093  13.252  1.00  0.00    -0.303 N 
ATOM      7  H3  UNL     1      18.754   7.108  12.483  1.00  0.00     0.171 HD
HETATM    8  C10 UNL     1      17.593   5.923  13.649  1.00  0.00     0.260 A 
HETATM    9  O1  UNL     1      17.959   4.877  13.076  1.00  0.00    -0.267 OA
HETATM   10  C11 UNL     1      16.673   5.884  14.704  1.00  0.00     0.069 A 
ENDROOT
BRANCH   5  11
HETATM   11  S1  UNL     1      18.383   9.821  13.301  1.00  0.00    -0.060 SA
BRANCH  11  12
HETATM   12  C4  UNL     1      17.571  10.424  11.795  1.00  0.00     0.254 C 
HETATM   13  C5  UNL     1      16.157   9.928  11.761  1.00  0.00     0.044 C 
HETATM   14  C6  UNL     1      15.306  10.618  10.735  1.00  0.00     0.003 C 
HETATM   15  C7  UNL     1      15.163  12.089  10.956  1.00  0.00     0.002 C 
HETATM   16  C8  UNL     1      16.198  12.887  10.175  1.00  0.00     0.027 C 
HETATM   17  C9  UNL     1      17.572  12.284  10.330  1.00  0.00     0.233 C 
HETATM   18  N2  UNL     1      17.715  11.837  11.699  1.00  0.00    -0.062 N 
ATOM     19  H22 UNL     1      17.070  12.322  12.322  1.00  0.00     0.278 HD
ATOM     20  H21 UNL     1      18.594  12.154  12.108  1.00  0.00     0.278 HD
ENDBRANCH  11  12
ENDBRANCH   5  11
BRANCH  10  21
HETATM   21  C12 UNL     1      16.184   4.571  15.077  1.00  0.00     0.102 C 
HETATM   22  N4  UNL     1      16.865   3.700  15.712  1.00  0.00    -0.396 N 
ATOM     23  H4  UNL     1      17.820   3.941  15.976  1.00  0.00     0.158 HD
BRANCH  22  24
HETATM   24  C13 UNL     1      16.372   2.392  16.081  1.00  0.00     0.145 C 
BRANCH  24  25
HETATM   25  C14 UNL     1      15.378   2.460  17.225  1.00  0.00     0.183 C 
BRANCH  25  26
HETATM   26  O2  UNL     1      14.127   2.082  16.734  1.00  0.00    -0.399 OA
ATOM     27  H2  UNL     1      14.225   1.863  15.815  1.00  0.00     0.209 HD
ENDBRANCH  25  26
ENDBRANCH  24  25
ENDBRANCH  22  24
ENDBRANCH  10  21
TORSDOF 6
ENDMDL
MODEL 5
REMARK VINA RESULT: -6.590757211      1.384      1.922
REMARK  6 active torsions:
REMARK  status: ('A' for Active; 'I' for Inactive)
REMARK    1  A    between atoms: C3_5  and  S1_6 
REMARK    2  A    between atoms: S1_6  and  C4_7 
REMARK    3  A    between atoms: C11_20  and  C12_21 
REMARK    4  A    between atoms: N4_22  and  C13_24 
REMARK    5  A    between atoms: C13_24  and  C14_25 
REMARK    6  A    between atoms: C14_25  and  O2_26 
ROOT
HETATM    1  C1  UNL     1      18.618   5.584  11.232  1.00  0.00     0.069 C 
HETATM    2  C2  UNL     1      18.391   6.499  12.374  1.00  0.00     0.024 A 
HETATM    3  N1  UNL     1      17.302   6.349  13.184  1.00  0.00    -0.340 N 
ATOM      4  H1  UNL     1      16.638   5.597  12.998  1.00  0.00     0.168 HD
HETATM    5  C3  UNL     1      17.090   7.173  14.217  1.00  0.00     0.149 A 
HETATM    6  N3  UNL     1      17.970   8.157  14.453  1.00  0.00    -0.303 N 
ATOM      7  H3  UNL     1      17.805   8.782  15.242  1.00  0.00     0.171 HD
HETATM    8  C10 UNL     1      19.048   8.349  13.699  1.00  0.00     0.260 A 
HETATM    9  O1  UNL     1      19.829   9.284  13.971  1.00  0.00    -0.267 OA
HETATM   10  C11 UNL     1      19.289   7.500  12.612  1.00  0.00     0.069 A 
ENDROOT
BRANCH   5  11
HETATM   11  S1  UNL     1      15.649   6.908  15.218  1.00  0.00    -0.060 SA
BRANCH  11  12
HETATM   12  C4  UNL     1      15.843   5.484  16.324  1.00  0.00     0.254 C 
HETATM   13  C5  UNL     1      14.884   5.611  17.469  1.00  0.00     0.044 C 
HETATM   14  C6  UNL     1      14.735   4.348  18.267  1.00  0.00     0.003 C 
HETATM   15  C7  UNL     1      14.203   3.193  17.482  1.00  0.00     0.002 C 
HETATM   16  C8  UNL     1      15.319   2.328  16.911  1.00  0.00     0.027 C 
HETATM   17  C9  UNL     1      16.387   3.180  16.271  1.00  0.00     0.233 C 
HETATM   18  N2  UNL     1      15.737   4.274  15.582  1.00  0.00    -0.062 N 
ATOM     19  H22 UNL     1      14.766   4.054  15.360  1.00  0.00     0.278 HD
ATOM     20  H21 UNL     1      16.092   4.384  14.632  1.00  0.00     0.278 HD
ENDBRANCH  11  12
ENDBRANCH   5  11
BRANCH  10  21
HETATM   21  C12 UNL     1      20.484   7.776  11.838  1.00  0.00     0.102 C 
HETATM   22  N4  UNL     1      21.654   7.377  12.150  1.00  0.00    -0.396 N 
ATOM     23  H4  UNL     1      21.759   6.825  13.002  1.00  0.00     0.158 HD
BRANCH  22  24
HETATM   24  C13 UNL     1      22.842   7.655  11.375  1.00  0.00     0.145 C 
BRANCH  24  25
HETATM   25  C14 UNL     1      23.559   6.385  10.956  1.00  0.00     0.183 C 
BRANCH  25  26
HETATM   26  O2  UNL     1      24.309   5.933  12.043  1.00  0.00    -0.399 OA
ATOM     27  H2  UNL     1      25.196   6.259  11.945  1.00  0.00     0.209 HD
ENDBRANCH  25  26
ENDBRANCH  24  25
ENDBRANCH  22  24
ENDBRANCH  10  21
TORSDOF 6
ENDMDL
