MODEL 1
REMARK VINA RESULT: -6.517903243      0.000      0.000
REMARK  6 active torsions:
REMARK  status: ('A' for Active; 'I' for Inactive)
REMARK    1  A    between atoms: C3_3  and  C4_4 
REMARK    2  A    between atoms: C4_4  and  C5_5 
REMARK    3  A    between atoms: C5_5  and  N1_6 
REMARK    4  A    between atoms: N1_6  and  C7_8 
REMARK    5  A    between atoms: C7_8  and  C8_9 
REMARK    6  A    between atoms: C10_13  and  C11_14 
ROOT
HETATM    1  C1  UNL     1      37.727  45.018  -1.034  1.00  0.00     0.012 C 
HETATM    2  C2  UNL     1      37.036  44.028  -1.153  1.00  0.00    -0.117 C 
HETATM    3  C3  UNL     1      36.201  42.822  -1.295  1.00  0.00     0.098 C 
ENDROOT
BRANCH   3   4
HETATM    4  C4  UNL     1      37.112  41.628  -1.466  1.00  0.00     0.057 C 
BRANCH   4   5
HETATM    5  C5  UNL     1      38.245  41.979  -2.409  1.00  0.00     0.064 C 
BRANCH   5   6
HETATM    6  N1  UNL     1      38.059  41.540  -3.726  1.00  0.00    -0.372 N 
HETATM    7  C6  UNL     1      38.188  40.188  -4.059  1.00  0.00     0.154 C 
BRANCH   6   8
HETATM    8  C7  UNL     1      37.978  42.524  -4.715  1.00  0.00     0.120 C 
BRANCH   8   9
HETATM    9  C8  UNL     1      36.656  42.448  -5.409  1.00  0.00     0.064 A 
HETATM   10  C9  UNL     1      35.397  42.340  -4.851  1.00  0.00     0.120 A 
HETATM   11  N2  UNL     1      34.484  42.299  -5.837  1.00  0.00    -0.353 N 
HETATM   12  C10 UNL     1      35.141  42.380  -7.029  1.00  0.00     0.087 A 
ATOM     13  H2  UNL     1      33.474  42.221  -5.715  1.00  0.00     0.166 HD
HETATM   14  N4  UNL     1      36.444  42.469  -6.739  1.00  0.00    -0.343 N 
ATOM     15  H4  UNL     1      37.184  42.544  -7.437  1.00  0.00     0.167 HD
BRANCH  12  16
HETATM   16  C11 UNL     1      34.471  42.364  -8.362  1.00  0.00     0.071 C 
HETATM   17  C12 UNL     1      34.387  40.925  -8.838  1.00  0.00     0.015 C 
HETATM   18  C13 UNL     1      33.689  41.005 -10.203  1.00  0.00     0.020 C 
HETATM   19  C14 UNL     1      32.269  41.453  -9.873  1.00  0.00     0.113 C 
HETATM   20  N3  UNL     1      32.243  42.773  -9.329  1.00  0.00    -0.420 N 
HETATM   21  C15 UNL     1      33.148  43.021  -8.247  1.00  0.00     0.126 C 
ATOM     22  H3  UNL     1      31.619  43.495  -9.689  1.00  0.00     0.153 HD
ENDBRANCH  12  16
ENDBRANCH   8   9
ENDBRANCH   6   8
ENDBRANCH   5   6
ENDBRANCH   4   5
ENDBRANCH   3   4
TORSDOF 6
ENDMDL
MODEL 2
REMARK VINA RESULT: -6.363595314      0.808      1.168
REMARK  6 active torsions:
REMARK  status: ('A' for Active; 'I' for Inactive)
REMARK    1  A    between atoms: C3_3  and  C4_4 
REMARK    2  A    between atoms: C4_4  and  C5_5 
REMARK    3  A    between atoms: C5_5  and  N1_6 
REMARK    4  A    between atoms: N1_6  and  C7_8 
REMARK    5  A    between atoms: C7_8  and  C8_9 
REMARK    6  A    between atoms: C10_13  and  C11_14 
ROOT
HETATM    1  C1  UNL     1      37.319  41.978   0.860  1.00  0.00     0.012 C 
HETATM    2  C2  UNL     1      37.662  42.847   0.088  1.00  0.00    -0.117 C 
HETATM    3  C3  UNL     1      38.075  43.903  -0.855  1.00  0.00     0.098 C 
ENDROOT
BRANCH   3   4
HETATM    4  C4  UNL     1      37.693  43.471  -2.252  1.00  0.00     0.057 C 
BRANCH   4   5
HETATM    5  C5  UNL     1      38.083  42.022  -2.465  1.00  0.00     0.064 C 
BRANCH   5   6
HETATM    6  N1  UNL     1      37.982  41.585  -3.791  1.00  0.00    -0.372 N 
HETATM    7  C6  UNL     1      38.226  40.250  -4.131  1.00  0.00     0.154 C 
BRANCH   6   8
HETATM    8  C7  UNL     1      37.865  42.570  -4.775  1.00  0.00     0.120 C 
BRANCH   8   9
HETATM    9  C8  UNL     1      36.555  42.438  -5.483  1.00  0.00     0.064 A 
HETATM   10  C9  UNL     1      35.293  42.293  -4.937  1.00  0.00     0.120 A 
HETATM   11  N2  UNL     1      34.394  42.206  -5.933  1.00  0.00    -0.353 N 
HETATM   12  C10 UNL     1      35.063  42.295  -7.119  1.00  0.00     0.087 A 
ATOM     13  H2  UNL     1      33.386  42.094  -5.822  1.00  0.00     0.166 HD
HETATM   14  N4  UNL     1      36.357  42.434  -6.815  1.00  0.00    -0.343 N 
ATOM     15  H4  UNL     1      37.102  42.525  -7.505  1.00  0.00     0.167 HD
BRANCH  12  16
HETATM   16  C11 UNL     1      34.409  42.237  -8.459  1.00  0.00     0.071 C 
HETATM   17  C12 UNL     1      34.244  40.778  -8.848  1.00  0.00     0.015 C 
HETATM   18  C13 UNL     1      33.569  40.816 -10.226  1.00  0.00     0.020 C 
HETATM   19  C14 UNL     1      32.175  41.367  -9.946  1.00  0.00     0.113 C 
HETATM   20  N3  UNL     1      32.222  42.717  -9.484  1.00  0.00    -0.420 N 
HETATM   21  C15 UNL     1      33.127  42.977  -8.405  1.00  0.00     0.126 C 
ATOM     22  H3  UNL     1      31.646  43.451  -9.896  1.00  0.00     0.153 HD
ENDBRANCH  12  16
ENDBRANCH   8   9
ENDBRANCH   6   8
ENDBRANCH   5   6
ENDBRANCH   4   5
ENDBRANCH   3   4
TORSDOF 6
ENDMDL
MODEL 3
REMARK VINA RESULT: -6.323685257      1.273      1.578
REMARK  6 active torsions:
REMARK  status: ('A' for Active; 'I' for Inactive)
REMARK    1  A    between atoms: C3_3  and  C4_4 
REMARK    2  A    between atoms: C4_4  and  C5_5 
REMARK    3  A    between atoms: C5_5  and  N1_6 
REMARK    4  A    between atoms: N1_6  and  C7_8 
REMARK    5  A    between atoms: C7_8  and  C8_9 
REMARK    6  A    between atoms: C10_13  and  C11_14 
ROOT
HETATM    1  C1  UNL     1      37.896  44.947  -1.388  1.00  0.00     0.012 C 
HETATM    2  C2  UNL     1      37.370  43.941  -0.960  1.00  0.00    -0.117 C 
HETATM    3  C3  UNL     1      36.736  42.715  -0.443  1.00  0.00     0.098 C 
ENDROOT
BRANCH   3   4
HETATM    4  C4  UNL     1      36.944  41.608  -1.450  1.00  0.00     0.057 C 
BRANCH   4   5
HETATM    5  C5  UNL     1      36.205  41.936  -2.733  1.00  0.00     0.064 C 
BRANCH   5   6
HETATM    6  N1  UNL     1      36.956  41.743  -3.898  1.00  0.00    -0.372 N 
HETATM    7  C6  UNL     1      37.985  40.796  -3.944  1.00  0.00     0.154 C 
BRANCH   6   8
HETATM    8  C7  UNL     1      36.797  42.686  -4.917  1.00  0.00     0.120 C 
BRANCH   8   9
HETATM    9  C8  UNL     1      35.786  42.205  -5.909  1.00  0.00     0.064 A 
HETATM   10  C9  UNL     1      35.436  40.905  -6.219  1.00  0.00     0.120 A 
HETATM   11  N2  UNL     1      34.486  40.924  -7.169  1.00  0.00    -0.353 N 
HETATM   12  C10 UNL     1      34.217  42.225  -7.477  1.00  0.00     0.087 A 
ATOM     13  H2  UNL     1      34.042  40.106  -7.589  1.00  0.00     0.166 HD
HETATM   14  N4  UNL     1      35.013  42.970  -6.703  1.00  0.00    -0.343 N 
ATOM     15  H4  UNL     1      35.032  43.989  -6.713  1.00  0.00     0.167 HD
BRANCH  12  16
HETATM   16  C11 UNL     1      33.215  42.658  -8.495  1.00  0.00     0.071 C 
HETATM   17  C12 UNL     1      33.937  43.458  -9.565  1.00  0.00     0.015 C 
HETATM   18  C13 UNL     1      32.838  43.858 -10.560  1.00  0.00     0.020 C 
HETATM   19  C14 UNL     1      32.409  42.540 -11.196  1.00  0.00     0.113 C 
HETATM   20  N3  UNL     1      31.795  41.669 -10.246  1.00  0.00    -0.420 N 
HETATM   21  C15 UNL     1      32.517  41.465  -9.026  1.00  0.00     0.126 C 
ATOM     22  H3  UNL     1      30.897  41.220 -10.425  1.00  0.00     0.153 HD
ENDBRANCH  12  16
ENDBRANCH   8   9
ENDBRANCH   6   8
ENDBRANCH   5   6
ENDBRANCH   4   5
ENDBRANCH   3   4
TORSDOF 6
ENDMDL
MODEL 4
REMARK VINA RESULT: -6.283177873      1.882      7.252
REMARK  6 active torsions:
REMARK  status: ('A' for Active; 'I' for Inactive)
REMARK    1  A    between atoms: C3_3  and  C4_4 
REMARK    2  A    between atoms: C4_4  and  C5_5 
REMARK    3  A    between atoms: C5_5  and  N1_6 
REMARK    4  A    between atoms: N1_6  and  C7_8 
REMARK    5  A    between atoms: C7_8  and  C8_9 
REMARK    6  A    between atoms: C10_13  and  C11_14 
ROOT
HETATM    1  C1  UNL     1      33.596  43.859 -10.409  1.00  0.00     0.012 C 
HETATM    2  C2  UNL     1      33.435  42.690 -10.687  1.00  0.00    -0.117 C 
HETATM    3  C3  UNL     1      33.240  41.267 -11.020  1.00  0.00     0.098 C 
ENDROOT
BRANCH   3   4
HETATM    4  C4  UNL     1      34.083  40.436 -10.080  1.00  0.00     0.057 C 
BRANCH   4   5
HETATM    5  C5  UNL     1      33.357  40.259  -8.762  1.00  0.00     0.064 C 
BRANCH   5   6
HETATM    6  N1  UNL     1      34.143  39.720  -7.736  1.00  0.00    -0.372 N 
HETATM    7  C6  UNL     1      33.571  38.948  -6.719  1.00  0.00     0.154 C 
BRANCH   6   8
HETATM    8  C7  UNL     1      35.460  40.178  -7.641  1.00  0.00     0.120 C 
BRANCH   8   9
HETATM    9  C8  UNL     1      35.604  41.086  -6.462  1.00  0.00     0.064 A 
HETATM   10  C9  UNL     1      35.118  42.369  -6.300  1.00  0.00     0.120 A 
HETATM   11  N2  UNL     1      35.479  42.823  -5.087  1.00  0.00    -0.353 N 
HETATM   12  C10 UNL     1      36.195  41.845  -4.462  1.00  0.00     0.087 A 
ATOM     13  H2  UNL     1      35.257  43.741  -4.701  1.00  0.00     0.166 HD
HETATM   14  N4  UNL     1      36.251  40.814  -5.313  1.00  0.00    -0.343 N 
ATOM     15  H4  UNL     1      36.726  39.933  -5.116  1.00  0.00     0.167 HD
BRANCH  12  16
HETATM   16  C11 UNL     1      36.774  41.971  -3.093  1.00  0.00     0.071 C 
HETATM   17  C12 UNL     1      37.614  43.236  -3.044  1.00  0.00     0.015 C 
HETATM   18  C13 UNL     1      38.164  43.282  -1.612  1.00  0.00     0.020 C 
HETATM   19  C14 UNL     1      36.934  43.526  -0.744  1.00  0.00     0.113 C 
HETATM   20  N3  UNL     1      36.027  42.425  -0.791  1.00  0.00    -0.420 N 
HETATM   21  C15 UNL     1      35.676  41.959  -2.099  1.00  0.00     0.126 C 
ATOM     22  H3  UNL     1      35.651  41.997   0.055  1.00  0.00     0.153 HD
ENDBRANCH  12  16
ENDBRANCH   8   9
ENDBRANCH   6   8
ENDBRANCH   5   6
ENDBRANCH   4   5
ENDBRANCH   3   4
TORSDOF 6
ENDMDL
MODEL 5
REMARK VINA RESULT: -6.233235000      2.269      2.669
REMARK  6 active torsions:
REMARK  status: ('A' for Active; 'I' for Inactive)
REMARK    1  A    between atoms: C3_3  and  C4_4 
REMARK    2  A    between atoms: C4_4  and  C5_5 
REMARK    3  A    between atoms: C5_5  and  N1_6 
REMARK    4  A    between atoms: N1_6  and  C7_8 
REMARK    5  A    between atoms: C7_8  and  C8_9 
REMARK    6  A    between atoms: C10_13  and  C11_14 
ROOT
HETATM    1  C1  UNL     1      37.338  41.985   0.847  1.00  0.00     0.012 C 
HETATM    2  C2  UNL     1      37.671  42.774  -0.011  1.00  0.00    -0.117 C 
HETATM    3  C3  UNL     1      38.069  43.734  -1.056  1.00  0.00     0.098 C 
ENDROOT
BRANCH   3   4
HETATM    4  C4  UNL     1      36.998  43.752  -2.122  1.00  0.00     0.057 C 
BRANCH   4   5
HETATM    5  C5  UNL     1      36.584  42.333  -2.456  1.00  0.00     0.064 C 
BRANCH   5   6
HETATM    6  N1  UNL     1      37.365  41.718  -3.442  1.00  0.00    -0.372 N 
HETATM    7  C6  UNL     1      38.282  40.715  -3.114  1.00  0.00     0.154 C 
BRANCH   6   8
HETATM    8  C7  UNL     1      37.362  42.308  -4.709  1.00  0.00     0.120 C 
BRANCH   8   9
HETATM    9  C8  UNL     1      36.201  41.808  -5.507  1.00  0.00     0.064 A 
HETATM   10  C9  UNL     1      35.134  42.524  -6.015  1.00  0.00     0.120 A 
HETATM   11  N2  UNL     1      34.314  41.682  -6.668  1.00  0.00    -0.353 N 
HETATM   12  C10 UNL     1      34.842  40.427  -6.588  1.00  0.00     0.087 A 
ATOM     13  H2  UNL     1      33.447  41.937  -7.142  1.00  0.00     0.166 HD
HETATM   14  N4  UNL     1      35.975  40.536  -5.886  1.00  0.00    -0.343 N 
ATOM     15  H4  UNL     1      36.590  39.753  -5.664  1.00  0.00     0.167 HD
BRANCH  12  16
HETATM   16  C11 UNL     1      34.218  39.212  -7.191  1.00  0.00     0.071 C 
HETATM   17  C12 UNL     1      33.068  38.775  -6.302  1.00  0.00     0.015 C 
HETATM   18  C13 UNL     1      32.492  37.532  -6.994  1.00  0.00     0.020 C 
HETATM   19  C14 UNL     1      31.883  38.069  -8.286  1.00  0.00     0.113 C 
HETATM   20  N3  UNL     1      32.880  38.593  -9.163  1.00  0.00    -0.420 N 
HETATM   21  C15 UNL     1      33.802  39.520  -8.579  1.00  0.00     0.126 C 
ATOM     22  H3  UNL     1      32.932  38.323 -10.145  1.00  0.00     0.153 HD
ENDBRANCH  12  16
ENDBRANCH   8   9
ENDBRANCH   6   8
ENDBRANCH   5   6
ENDBRANCH   4   5
ENDBRANCH   3   4
TORSDOF 6
ENDMDL
