MODEL 1
REMARK VINA RESULT: -6.517464985      0.000      0.000
REMARK  8 active torsions:
REMARK  status: ('A' for Active; 'I' for Inactive)
REMARK    1  A    between atoms: C2_2  and  C3_3 
REMARK    2  A    between atoms: C3_3  and  C4_4 
REMARK    3  A    between atoms: C4_4  and  N1_5 
REMARK    4  A    between atoms: C6_10  and  N3_11 
REMARK    5  A    between atoms: C8_16  and  N5_17 
REMARK    6  A    between atoms: N5_17  and  C9_19 
REMARK    7  A    between atoms: C9_19  and  C10_20 
REMARK    8  A    between atoms: C10_20  and  C11_21 
ROOT
HETATM    1  N1  UNL     1      34.778  38.982  -6.847  1.00  0.00    -0.225 N 
ATOM      2  H1  UNL     1      35.362  38.361  -6.287  1.00  0.00     0.177 HD
HETATM    3  C5  UNL     1      34.771  40.240  -6.599  1.00  0.00     0.707 A 
HETATM    4  N2  UNL     1      35.543  40.744  -5.587  1.00  0.00    -0.022 N 
ATOM      5  H2  UNL     1      36.114  40.094  -5.047  1.00  0.00     0.203 HD
HETATM    6  C6  UNL     1      35.591  42.042  -5.267  1.00  0.00     0.706 A 
HETATM    7  N4  UNL     1      34.827  42.876  -5.997  1.00  0.00    -0.022 N 
ATOM      8  H4  UNL     1      34.838  43.873  -5.782  1.00  0.00     0.203 HD
HETATM    9  C8  UNL     1      34.053  42.436  -6.999  1.00  0.00     0.707 A 
HETATM   10  N6  UNL     1      34.031  41.104  -7.296  1.00  0.00    -0.022 N 
ATOM     11  H6  UNL     1      33.442  40.766  -8.058  1.00  0.00     0.203 HD
ENDROOT
BRANCH   1  12
HETATM   12  C4  UNL     1      33.977  38.438  -7.902  1.00  0.00     0.138 C 
BRANCH  12  13
HETATM   13  C3  UNL     1      32.737  37.814  -7.245  1.00  0.00     0.020 C 
BRANCH  13  14
HETATM   14  C2  UNL     1      31.625  37.986  -8.289  1.00  0.00    -0.003 C 
HETATM   15  C1  UNL     1      30.576  36.948  -7.965  1.00  0.00     0.005 C 
ENDBRANCH  13  14
ENDBRANCH  12  13
ENDBRANCH   1  12
BRANCH   6  16
HETATM   16  N3  UNL     1      36.303  42.546  -4.324  1.00  0.00    -0.229 N 
HETATM   17  C7  UNL     1      37.768  42.439  -4.395  1.00  0.00     0.165 C 
ATOM     18  H3  UNL     1      35.857  43.015  -3.536  1.00  0.00     0.177 HD
ENDBRANCH   6  16
BRANCH   9  19
HETATM   19  N5  UNL     1      33.310  43.195  -7.720  1.00  0.00    -0.225 N 
ATOM     20  H5  UNL     1      32.953  44.043  -7.280  1.00  0.00     0.177 HD
BRANCH  19  21
HETATM   21  C9  UNL     1      32.938  42.965  -9.075  1.00  0.00     0.138 C 
BRANCH  21  22
HETATM   22  C10 UNL     1      34.014  43.514  -9.981  1.00  0.00     0.020 C 
BRANCH  22  23
HETATM   23  C11 UNL     1      33.434  44.227 -11.178  1.00  0.00    -0.003 C 
HETATM   24  C12 UNL     1      33.290  43.164 -12.276  1.00  0.00     0.005 C 
ENDBRANCH  22  23
ENDBRANCH  21  22
ENDBRANCH  19  21
ENDBRANCH   9  19
TORSDOF 8
ENDMDL
MODEL 2
REMARK VINA RESULT: -6.427768995      0.534      4.766
REMARK  8 active torsions:
REMARK  status: ('A' for Active; 'I' for Inactive)
REMARK    1  A    between atoms: C2_2  and  C3_3 
REMARK    2  A    between atoms: C3_3  and  C4_4 
REMARK    3  A    between atoms: C4_4  and  N1_5 
REMARK    4  A    between atoms: C6_10  and  N3_11 
REMARK    5  A    between atoms: C8_16  and  N5_17 
REMARK    6  A    between atoms: N5_17  and  C9_19 
REMARK    7  A    between atoms: C9_19  and  C10_20 
REMARK    8  A    between atoms: C10_20  and  C11_21 
ROOT
HETATM    1  N1  UNL     1      33.510  43.231  -7.788  1.00  0.00    -0.225 N 
ATOM      2  H1  UNL     1      33.502  44.194  -7.451  1.00  0.00     0.177 HD
HETATM    3  C5  UNL     1      34.101  42.324  -7.100  1.00  0.00     0.707 A 
HETATM    4  N2  UNL     1      34.716  42.649  -5.921  1.00  0.00    -0.022 N 
ATOM      5  H2  UNL     1      34.688  43.621  -5.616  1.00  0.00     0.203 HD
HETATM    6  C6  UNL     1      35.352  41.762  -5.148  1.00  0.00     0.706 A 
HETATM    7  N4  UNL     1      35.372  40.486  -5.577  1.00  0.00    -0.022 N 
ATOM      8  H4  UNL     1      35.848  39.782  -5.012  1.00  0.00     0.203 HD
HETATM    9  C8  UNL     1      34.785  40.113  -6.723  1.00  0.00     0.707 A 
HETATM   10  N6  UNL     1      34.146  41.048  -7.486  1.00  0.00    -0.022 N 
ATOM     11  H6  UNL     1      33.699  40.767  -8.359  1.00  0.00     0.203 HD
ENDROOT
BRANCH   1  12
HETATM   12  C4  UNL     1      32.862  42.909  -9.023  1.00  0.00     0.138 C 
BRANCH  12  13
HETATM   13  C3  UNL     1      33.660  43.596 -10.140  1.00  0.00     0.020 C 
BRANCH  13  14
HETATM   14  C2  UNL     1      33.386  42.743 -11.387  1.00  0.00    -0.003 C 
HETATM   15  C1  UNL     1      33.262  43.708 -12.542  1.00  0.00     0.005 C 
ENDBRANCH  13  14
ENDBRANCH  12  13
ENDBRANCH   1  12
BRANCH   6  16
HETATM   16  N3  UNL     1      35.939  42.034  -4.038  1.00  0.00    -0.229 N 
HETATM   17  C7  UNL     1      37.398  42.220  -4.024  1.00  0.00     0.165 C 
ATOM     18  H3  UNL     1      35.400  42.120  -3.177  1.00  0.00     0.177 HD
ENDBRANCH   6  16
BRANCH   9  19
HETATM   19  N5  UNL     1      34.780  38.910  -7.169  1.00  0.00    -0.225 N 
ATOM     20  H5  UNL     1      35.601  38.339  -6.966  1.00  0.00     0.177 HD
BRANCH  19  21
HETATM   21  C9  UNL     1      33.738  38.297  -7.920  1.00  0.00     0.138 C 
BRANCH  21  22
HETATM   22  C10 UNL     1      32.694  37.761  -6.968  1.00  0.00     0.020 C 
BRANCH  22  23
HETATM   23  C11 UNL     1      31.436  37.340  -7.688  1.00  0.00    -0.003 C 
HETATM   24  C12 UNL     1      31.307  38.276  -8.898  1.00  0.00     0.005 C 
ENDBRANCH  22  23
ENDBRANCH  21  22
ENDBRANCH  19  21
ENDBRANCH   9  19
TORSDOF 8
ENDMDL
MODEL 3
REMARK VINA RESULT: -6.374933737      1.651      5.347
REMARK  8 active torsions:
REMARK  status: ('A' for Active; 'I' for Inactive)
REMARK    1  A    between atoms: C2_2  and  C3_3 
REMARK    2  A    between atoms: C3_3  and  C4_4 
REMARK    3  A    between atoms: C4_4  and  N1_5 
REMARK    4  A    between atoms: C6_10  and  N3_11 
REMARK    5  A    between atoms: C8_16  and  N5_17 
REMARK    6  A    between atoms: N5_17  and  C9_19 
REMARK    7  A    between atoms: C9_19  and  C10_20 
REMARK    8  A    between atoms: C10_20  and  C11_21 
ROOT
HETATM    1  N1  UNL     1      36.950  41.729  -4.001  1.00  0.00    -0.225 N 
ATOM      2  H1  UNL     1      37.521  40.987  -3.595  1.00  0.00     0.177 HD
HETATM    3  C5  UNL     1      36.212  41.475  -5.017  1.00  0.00     0.707 A 
HETATM    4  N2  UNL     1      36.190  40.215  -5.553  1.00  0.00    -0.022 N 
ATOM      5  H2  UNL     1      36.774  39.499  -5.122  1.00  0.00     0.203 HD
HETATM    6  C6  UNL     1      35.447  39.872  -6.610  1.00  0.00     0.706 A 
HETATM    7  N4  UNL     1      34.686  40.838  -7.158  1.00  0.00    -0.022 N 
ATOM      8  H4  UNL     1      34.106  40.613  -7.967  1.00  0.00     0.203 HD
HETATM    9  C8  UNL     1      34.668  42.088  -6.673  1.00  0.00     0.707 A 
HETATM   10  N6  UNL     1      35.441  42.400  -5.593  1.00  0.00    -0.022 N 
ATOM     11  H6  UNL     1      35.430  43.351  -5.221  1.00  0.00     0.203 HD
ENDROOT
BRANCH   1  12
HETATM   12  C4  UNL     1      36.984  43.040  -3.428  1.00  0.00     0.138 C 
BRANCH  12  13
HETATM   13  C3  UNL     1      36.912  42.864  -1.904  1.00  0.00     0.020 C 
BRANCH  13  14
HETATM   14  C2  UNL     1      36.568  44.264  -1.374  1.00  0.00    -0.003 C 
HETATM   15  C1  UNL     1      37.886  44.954  -1.114  1.00  0.00     0.005 C 
ENDBRANCH  13  14
ENDBRANCH  12  13
ENDBRANCH   1  12
BRANCH   6  16
HETATM   16  N3  UNL     1      35.405  38.701  -7.137  1.00  0.00    -0.229 N 
HETATM   17  C7  UNL     1      34.102  38.117  -7.490  1.00  0.00     0.165 C 
ATOM     18  H3  UNL     1      36.266  38.182  -7.309  1.00  0.00     0.177 HD
ENDBRANCH   6  16
BRANCH   9  19
HETATM   19  N5  UNL     1      33.959  43.038  -7.164  1.00  0.00    -0.225 N 
ATOM     20  H5  UNL     1      34.053  43.956  -6.729  1.00  0.00     0.177 HD
BRANCH  19  21
HETATM   21  C9  UNL     1      33.054  42.932  -8.258  1.00  0.00     0.138 C 
BRANCH  21  22
HETATM   22  C10 UNL     1      33.753  43.382  -9.520  1.00  0.00     0.020 C 
BRANCH  22  23
HETATM   23  C11 UNL     1      32.840  44.185 -10.415  1.00  0.00    -0.003 C 
HETATM   24  C12 UNL     1      33.668  44.535 -11.660  1.00  0.00     0.005 C 
ENDBRANCH  22  23
ENDBRANCH  21  22
ENDBRANCH  19  21
ENDBRANCH   9  19
TORSDOF 8
ENDMDL
MODEL 4
REMARK VINA RESULT: -6.318732063      2.634      5.737
REMARK  8 active torsions:
REMARK  status: ('A' for Active; 'I' for Inactive)
REMARK    1  A    between atoms: C2_2  and  C3_3 
REMARK    2  A    between atoms: C3_3  and  C4_4 
REMARK    3  A    between atoms: C4_4  and  N1_5 
REMARK    4  A    between atoms: C6_10  and  N3_11 
REMARK    5  A    between atoms: C8_16  and  N5_17 
REMARK    6  A    between atoms: N5_17  and  C9_19 
REMARK    7  A    between atoms: C9_19  and  C10_20 
REMARK    8  A    between atoms: C10_20  and  C11_21 
ROOT
HETATM    1  N1  UNL     1      37.845  42.515  -2.667  1.00  0.00    -0.225 N 
ATOM      2  H1  UNL     1      38.578  42.004  -2.174  1.00  0.00     0.177 HD
HETATM    3  C5  UNL     1      37.249  41.965  -3.660  1.00  0.00     0.707 A 
HETATM    4  N2  UNL     1      37.593  40.700  -4.054  1.00  0.00    -0.022 N 
ATOM      5  H2  UNL     1      38.330  40.219  -3.537  1.00  0.00     0.203 HD
HETATM    6  C6  UNL     1      37.018  40.059  -5.077  1.00  0.00     0.706 A 
HETATM    7  N4  UNL     1      36.049  40.718  -5.739  1.00  0.00    -0.022 N 
ATOM      8  H4  UNL     1      35.588  40.261  -6.526  1.00  0.00     0.203 HD
HETATM    9  C8  UNL     1      35.672  41.958  -5.396  1.00  0.00     0.707 A 
HETATM   10  N6  UNL     1      36.283  42.580  -4.345  1.00  0.00    -0.022 N 
ATOM     11  H6  UNL     1      35.998  43.524  -4.082  1.00  0.00     0.203 HD
ENDROOT
BRANCH   1  12
HETATM   12  C4  UNL     1      37.497  43.837  -2.243  1.00  0.00     0.138 C 
BRANCH  12  13
HETATM   13  C3  UNL     1      37.535  43.838  -0.708  1.00  0.00     0.020 C 
BRANCH  13  14
HETATM   14  C2  UNL     1      36.700  42.614  -0.304  1.00  0.00    -0.003 C 
HETATM   15  C1  UNL     1      37.385  42.012   0.900  1.00  0.00     0.005 C 
ENDBRANCH  13  14
ENDBRANCH  12  13
ENDBRANCH   1  12
BRANCH   6  16
HETATM   16  N3  UNL     1      37.319  38.874  -5.472  1.00  0.00    -0.229 N 
HETATM   17  C7  UNL     1      38.571  38.258  -5.007  1.00  0.00     0.165 C 
ATOM     18  H3  UNL     1      36.696  38.366  -6.100  1.00  0.00     0.177 HD
ENDBRANCH   6  16
BRANCH   9  19
HETATM   19  N5  UNL     1      34.754  42.622  -5.999  1.00  0.00    -0.225 N 
ATOM     20  H5  UNL     1      34.608  43.586  -5.698  1.00  0.00     0.177 HD
BRANCH  19  21
HETATM   21  C9  UNL     1      33.921  42.141  -7.048  1.00  0.00     0.138 C 
BRANCH  21  22
HETATM   22  C10 UNL     1      34.336  42.794  -8.346  1.00  0.00     0.020 C 
BRANCH  22  23
HETATM   23  C11 UNL     1      33.147  43.267  -9.146  1.00  0.00    -0.003 C 
HETATM   24  C12 UNL     1      33.717  43.873 -10.436  1.00  0.00     0.005 C 
ENDBRANCH  22  23
ENDBRANCH  21  22
ENDBRANCH  19  21
ENDBRANCH   9  19
TORSDOF 8
ENDMDL
MODEL 5
REMARK VINA RESULT: -6.317175430      2.158      5.187
REMARK  8 active torsions:
REMARK  status: ('A' for Active; 'I' for Inactive)
REMARK    1  A    between atoms: C2_2  and  C3_3 
REMARK    2  A    between atoms: C3_3  and  C4_4 
REMARK    3  A    between atoms: C4_4  and  N1_5 
REMARK    4  A    between atoms: C6_10  and  N3_11 
REMARK    5  A    between atoms: C8_16  and  N5_17 
REMARK    6  A    between atoms: N5_17  and  C9_19 
REMARK    7  A    between atoms: C9_19  and  C10_20 
REMARK    8  A    between atoms: C10_20  and  C11_21 
ROOT
HETATM    1  N1  UNL     1      36.750  41.539  -3.680  1.00  0.00    -0.225 N 
ATOM      2  H1  UNL     1      37.311  40.789  -3.277  1.00  0.00     0.177 HD
HETATM    3  C5  UNL     1      36.179  41.364  -4.814  1.00  0.00     0.707 A 
HETATM    4  N2  UNL     1      36.324  40.176  -5.480  1.00  0.00    -0.022 N 
ATOM      5  H2  UNL     1      36.892  39.449  -5.047  1.00  0.00     0.203 HD
HETATM    6  C6  UNL     1      35.761  39.916  -6.664  1.00  0.00     0.706 A 
HETATM    7  N4  UNL     1      35.016  40.896  -7.211  1.00  0.00    -0.022 N 
ATOM      8  H4  UNL     1      34.571  40.733  -8.115  1.00  0.00     0.203 HD
HETATM    9  C8  UNL     1      34.841  42.078  -6.603  1.00  0.00     0.707 A 
HETATM   10  N6  UNL     1      35.432  42.305  -5.394  1.00  0.00    -0.022 N 
ATOM     11  H6  UNL     1      35.300  43.204  -4.928  1.00  0.00     0.203 HD
ENDROOT
BRANCH   1  12
HETATM   12  C4  UNL     1      36.609  42.775  -2.971  1.00  0.00     0.138 C 
BRANCH  12  13
HETATM   13  C3  UNL     1      36.099  42.428  -1.565  1.00  0.00     0.020 C 
BRANCH  13  14
HETATM   14  C2  UNL     1      37.199  42.939  -0.623  1.00  0.00    -0.003 C 
HETATM   15  C1  UNL     1      37.255  41.964   0.530  1.00  0.00     0.005 C 
ENDBRANCH  13  14
ENDBRANCH  12  13
ENDBRANCH   1  12
BRANCH   6  16
HETATM   16  N3  UNL     1      35.878  38.814  -7.314  1.00  0.00    -0.229 N 
HETATM   17  C7  UNL     1      35.770  38.830  -8.781  1.00  0.00     0.165 C 
ATOM     18  H3  UNL     1      36.043  37.939  -6.819  1.00  0.00     0.177 HD
ENDBRANCH   6  16
BRANCH   9  19
HETATM   19  N5  UNL     1      34.140  43.037  -7.087  1.00  0.00    -0.225 N 
ATOM     20  H5  UNL     1      34.284  43.963  -6.684  1.00  0.00     0.177 HD
BRANCH  19  21
HETATM   21  C9  UNL     1      33.180  42.931  -8.133  1.00  0.00     0.138 C 
BRANCH  21  22
HETATM   22  C10 UNL     1      33.819  43.358  -9.434  1.00  0.00     0.020 C 
BRANCH  22  23
HETATM   23  C11 UNL     1      32.861  44.132 -10.307  1.00  0.00    -0.003 C 
HETATM   24  C12 UNL     1      33.650  44.514 -11.567  1.00  0.00     0.005 C 
ENDBRANCH  22  23
ENDBRANCH  21  22
ENDBRANCH  19  21
ENDBRANCH   9  19
TORSDOF 8
ENDMDL
