MODEL 1
REMARK VINA RESULT: -3.792763189      0.000      0.000
REMARK  0 active torsions:
REMARK  status: ('A' for Active; 'I' for Inactive)
ROOT
HETATM    1  C1  UNL     1      33.119  19.268  60.221  1.00  0.00     0.037 A 
HETATM    2  C2  UNL     1      33.880  18.471  59.393  1.00  0.00     0.108 A 
HETATM    3  N1  UNL     1      34.982  19.166  59.065  1.00  0.00    -0.312 N 
ATOM      4  H1  UNL     1      35.732  18.830  58.461  1.00  0.00     0.186 HD
HETATM    5  N2  UNL     1      34.943  20.366  59.653  1.00  0.00    -0.312 N 
ATOM      6  H2  UNL     1      35.660  21.086  59.567  1.00  0.00     0.186 HD
HETATM    7  C3  UNL     1      33.805  20.479  60.382  1.00  0.00     0.108 A 
ENDROOT
TORSDOF 0
ENDMDL
MODEL 2
REMARK VINA RESULT: -3.792142747      0.014      1.650
REMARK  0 active torsions:
REMARK  status: ('A' for Active; 'I' for Inactive)
ROOT
HETATM    1  C1  UNL     1      33.123  19.281  60.226  1.00  0.00     0.037 A 
HETATM    2  C2  UNL     1      33.809  20.467  60.375  1.00  0.00     0.108 A 
HETATM    3  N1  UNL     1      34.942  20.372  59.659  1.00  0.00    -0.312 N 
ATOM      4  H1  UNL     1      35.651  21.099  59.580  1.00  0.00     0.186 HD
HETATM    5  N2  UNL     1      34.994  19.175  59.066  1.00  0.00    -0.312 N 
ATOM      6  H2  UNL     1      35.750  18.850  58.464  1.00  0.00     0.186 HD
HETATM    7  C3  UNL     1      33.887  18.458  59.387  1.00  0.00     0.108 A 
ENDROOT
TORSDOF 0
ENDMDL
MODEL 3
REMARK VINA RESULT: -3.733779496      7.029      7.470
REMARK  0 active torsions:
REMARK  status: ('A' for Active; 'I' for Inactive)
ROOT
HETATM    1  C1  UNL     1      37.843  24.723  54.571  1.00  0.00     0.037 A 
HETATM    2  C2  UNL     1      37.933  24.062  55.777  1.00  0.00     0.108 A 
HETATM    3  N1  UNL     1      36.693  23.986  56.288  1.00  0.00    -0.312 N 
ATOM      4  H1  UNL     1      36.448  23.549  57.177  1.00  0.00     0.186 HD
HETATM    5  N2  UNL     1      35.830  24.572  55.452  1.00  0.00    -0.312 N 
ATOM      6  H2  UNL     1      34.825  24.649  55.605  1.00  0.00     0.186 HD
HETATM    7  C3  UNL     1      36.495  25.046  54.369  1.00  0.00     0.108 A 
ENDROOT
TORSDOF 0
ENDMDL
MODEL 4
REMARK VINA RESULT: -3.690943819      1.071      1.567
REMARK  0 active torsions:
REMARK  status: ('A' for Active; 'I' for Inactive)
ROOT
HETATM    1  C1  UNL     1      34.081  20.277  60.334  1.00  0.00     0.037 A 
HETATM    2  C2  UNL     1      33.151  19.270  60.185  1.00  0.00     0.108 A 
HETATM    3  N1  UNL     1      33.701  18.326  59.403  1.00  0.00    -0.312 N 
ATOM      4  H1  UNL     1      33.246  17.459  59.119  1.00  0.00     0.186 HD
HETATM    5  N2  UNL     1      34.937  18.699  59.057  1.00  0.00    -0.312 N 
ATOM      6  H2  UNL     1      35.570  18.159  58.467  1.00  0.00     0.186 HD
HETATM    7  C3  UNL     1      35.221  19.905  59.609  1.00  0.00     0.108 A 
ENDROOT
TORSDOF 0
ENDMDL
MODEL 5
REMARK VINA RESULT: -3.688410865      1.047      1.666
REMARK  0 active torsions:
REMARK  status: ('A' for Active; 'I' for Inactive)
ROOT
HETATM    1  C1  UNL     1      34.053  20.239  60.333  1.00  0.00     0.037 A 
HETATM    2  C2  UNL     1      35.195  19.920  59.629  1.00  0.00     0.108 A 
HETATM    3  N1  UNL     1      34.994  18.722  59.056  1.00  0.00    -0.312 N 
ATOM      4  H1  UNL     1      35.668  18.229  58.471  1.00  0.00     0.186 HD
HETATM    5  N2  UNL     1      33.774  18.277  59.371  1.00  0.00    -0.312 N 
ATOM      6  H2  UNL     1      33.374  17.391  59.062  1.00  0.00     0.186 HD
HETATM    7  C3  UNL     1      33.149  19.183  60.163  1.00  0.00     0.108 A 
ENDROOT
TORSDOF 0
ENDMDL
