MODEL 1
REMARK VINA RESULT: -3.019096142      0.000      0.000
REMARK  0 active torsions:
REMARK  status: ('A' for Active; 'I' for Inactive)
ROOT
HETATM    1  C1  UNL     1      33.915  20.274  60.647  1.00  0.00     0.020 C 
HETATM    2  C2  UNL     1      32.879  19.606  59.791  1.00  0.00     0.074 C 
HETATM    3  S1  UNL     1      34.120  18.297  59.469  1.00  0.00    -0.169 SA
HETATM    4  C3  UNL     1      35.007  19.881  59.685  1.00  0.00     0.074 C 
ENDROOT
TORSDOF 0
ENDMDL
MODEL 2
REMARK VINA RESULT: -2.901281724      0.538      1.600
REMARK  0 active torsions:
REMARK  status: ('A' for Active; 'I' for Inactive)
ROOT
HETATM    1  C1  UNL     1      33.782  20.505  60.256  1.00  0.00     0.020 C 
HETATM    2  C2  UNL     1      35.094  19.802  60.063  1.00  0.00     0.074 C 
HETATM    3  S1  UNL     1      34.191  18.592  59.026  1.00  0.00    -0.169 SA
HETATM    4  C3  UNL     1      33.052  19.188  60.325  1.00  0.00     0.074 C 
ENDROOT
TORSDOF 0
ENDMDL
MODEL 3
REMARK VINA RESULT: -2.881971590      1.266      1.572
REMARK  0 active torsions:
REMARK  status: ('A' for Active; 'I' for Inactive)
ROOT
HETATM    1  C1  UNL     1      33.115  19.182  60.298  1.00  0.00     0.020 C 
HETATM    2  C2  UNL     1      33.884  18.796  59.068  1.00  0.00     0.074 C 
HETATM    3  S1  UNL     1      35.317  19.674  59.797  1.00  0.00    -0.169 SA
HETATM    4  C3  UNL     1      33.793  20.528  60.336  1.00  0.00     0.074 C 
ENDROOT
TORSDOF 0
ENDMDL
MODEL 4
REMARK VINA RESULT: -2.792008924      1.570      1.746
REMARK  0 active torsions:
REMARK  status: ('A' for Active; 'I' for Inactive)
ROOT
HETATM    1  C1  UNL     1      34.218  18.657  59.027  1.00  0.00     0.020 C 
HETATM    2  C2  UNL     1      33.211  18.760  60.135  1.00  0.00     0.074 C 
HETATM    3  S1  UNL     1      33.783  20.484  60.373  1.00  0.00    -0.169 SA
HETATM    4  C3  UNL     1      35.206  19.486  59.808  1.00  0.00     0.074 C 
ENDROOT
TORSDOF 0
ENDMDL
MODEL 5
REMARK VINA RESULT: -2.777512262      1.164      1.658
REMARK  0 active torsions:
REMARK  status: ('A' for Active; 'I' for Inactive)
ROOT
HETATM    1  C1  UNL     1      32.861  19.598  59.794  1.00  0.00     0.020 C 
HETATM    2  C2  UNL     1      33.833  20.364  60.643  1.00  0.00     0.074 C 
HETATM    3  S1  UNL     1      35.165  19.625  59.625  1.00  0.00    -0.169 SA
HETATM    4  C3  UNL     1      33.797  18.418  59.734  1.00  0.00     0.074 C 
ENDROOT
TORSDOF 0
ENDMDL
