MODEL 1
REMARK VINA RESULT: -7.284283774      0.000      0.000
REMARK  2 active torsions:
REMARK  status: ('A' for Active; 'I' for Inactive)
REMARK    1  A    between atoms: C3_6  and  C5_8 
REMARK       I    between atoms: C5_8  and  N2_10 
REMARK    2  A    between atoms: N2_10  and  C6_12 
ROOT
HETATM    1  C1  UNL     1      13.965   5.366  16.543  1.00  0.00     0.046 C 
HETATM    2  C2  UNL     1      14.596   4.152  15.915  1.00  0.00     0.255 C 
HETATM    3  N1  UNL     1      15.883   4.454  15.325  1.00  0.00    -0.048 N 
ATOM      4  H11 UNL     1      16.315   5.290  15.719  1.00  0.00     0.279 HD
ATOM      5  H12 UNL     1      15.813   4.781  14.362  1.00  0.00     0.279 HD
HETATM    6  C3  UNL     1      16.701   3.284  15.461  1.00  0.00     0.208 C 
HETATM    7  C4  UNL     1      18.063   3.741  15.964  1.00  0.00     0.057 C 
HETATM    8  C7  UNL     1      16.038   2.372  16.464  1.00  0.00     0.130 C 
HETATM    9  C8  UNL     1      14.923   3.179  17.049  1.00  0.00     0.274 C 
HETATM   10  F1  UNL     1      13.804   2.432  17.293  1.00  0.00    -0.204 F 
HETATM   11  F2  UNL     1      15.333   3.875  18.157  1.00  0.00    -0.204 F 
ENDROOT
BRANCH   6  12
HETATM   12  C5  UNL     1      16.916   2.617  14.168  1.00  0.00     0.260 C 
HETATM   13  O1  UNL     1      16.466   1.435  14.028  1.00  0.00    -0.270 OA
HETATM   14  N2  UNL     1      17.577   3.171  13.068  1.00  0.00    -0.302 N 
ATOM     15  H2  UNL     1      18.596   3.191  13.100  1.00  0.00     0.171 HD
BRANCH  14  16
HETATM   16  C6  UNL     1      17.016   3.653  12.027  1.00  0.00     0.197 A 
HETATM   17  N3  UNL     1      16.086   3.392  11.101  1.00  0.00    -0.229 N 
HETATM   18  O2  UNL     1      16.086   4.446  10.308  1.00  0.00    -0.194 OA
ATOM     19  H3  UNL     1      15.504   2.558  11.024  1.00  0.00     0.198 HD
HETATM   20  S1  UNL     1      17.265   5.126  11.222  1.00  0.00     0.099 SA
ENDBRANCH  14  16
ENDBRANCH   6  12
TORSDOF 2
ENDMDL
MODEL 2
REMARK VINA RESULT: -7.040144466      3.756      5.580
REMARK  2 active torsions:
REMARK  status: ('A' for Active; 'I' for Inactive)
REMARK    1  A    between atoms: C3_6  and  C5_8 
REMARK       I    between atoms: C5_8  and  N2_10 
REMARK    2  A    between atoms: N2_10  and  C6_12 
ROOT
HETATM    1  C1  UNL     1      17.987   0.268  11.589  1.00  0.00     0.046 C 
HETATM    2  C2  UNL     1      17.060   1.383  11.995  1.00  0.00     0.255 C 
HETATM    3  N1  UNL     1      17.730   2.379  12.802  1.00  0.00    -0.048 N 
ATOM      4  H11 UNL     1      18.743   2.380  12.674  1.00  0.00     0.279 HD
ATOM      5  H12 UNL     1      17.723   2.157  13.797  1.00  0.00     0.279 HD
HETATM    6  C3  UNL     1      17.128   3.646  12.507  1.00  0.00     0.208 C 
HETATM    7  C4  UNL     1      18.256   4.648  12.307  1.00  0.00     0.057 C 
HETATM    8  C7  UNL     1      16.321   3.488  11.240  1.00  0.00     0.130 C 
HETATM    9  C8  UNL     1      16.674   2.132  10.719  1.00  0.00     0.274 C 
HETATM   10  F1  UNL     1      15.605   1.487  10.163  1.00  0.00    -0.204 F 
HETATM   11  F2  UNL     1      17.748   2.185   9.866  1.00  0.00    -0.204 F 
ENDROOT
BRANCH   6  12
HETATM   12  C5  UNL     1      16.307   4.132  13.625  1.00  0.00     0.260 C 
HETATM   13  O1  UNL     1      15.228   4.749  13.347  1.00  0.00    -0.270 OA
HETATM   14  N2  UNL     1      16.608   3.977  14.981  1.00  0.00    -0.302 N 
ATOM     15  H2  UNL     1      17.313   4.599  15.375  1.00  0.00     0.171 HD
BRANCH  14  16
HETATM   16  C6  UNL     1      16.076   3.124  15.770  1.00  0.00     0.197 A 
HETATM   17  N3  UNL     1      16.233   1.892  16.268  1.00  0.00    -0.229 N 
HETATM   18  O2  UNL     1      15.202   1.713  17.072  1.00  0.00    -0.194 OA
ATOM     19  H3  UNL     1      16.986   1.234  16.069  1.00  0.00     0.198 HD
HETATM   20  S1  UNL     1      14.664   3.218  16.706  1.00  0.00     0.099 SA
ENDBRANCH  14  16
ENDBRANCH   6  12
TORSDOF 2
ENDMDL
MODEL 3
REMARK VINA RESULT: -6.979669511      2.524      2.811
REMARK  2 active torsions:
REMARK  status: ('A' for Active; 'I' for Inactive)
REMARK    1  A    between atoms: C3_6  and  C5_8 
REMARK       I    between atoms: C5_8  and  N2_10 
REMARK    2  A    between atoms: N2_10  and  C6_12 
ROOT
HETATM    1  C1  UNL     1      17.218   7.372  14.543  1.00  0.00     0.046 C 
HETATM    2  C2  UNL     1      16.742   6.001  14.140  1.00  0.00     0.255 C 
HETATM    3  N1  UNL     1      17.323   4.963  14.963  1.00  0.00    -0.048 N 
ATOM      4  H11 UNL     1      17.648   5.306  15.867  1.00  0.00     0.279 HD
ATOM      5  H12 UNL     1      18.223   4.634  14.614  1.00  0.00     0.279 HD
HETATM    6  C3  UNL     1      16.350   3.915  15.080  1.00  0.00     0.208 C 
HETATM    7  C4  UNL     1      16.294   3.512  16.546  1.00  0.00     0.057 C 
HETATM    8  C7  UNL     1      15.021   4.469  14.624  1.00  0.00     0.130 C 
HETATM    9  C8  UNL     1      15.247   5.936  14.453  1.00  0.00     0.274 C 
HETATM   10  F1  UNL     1      14.573   6.451  13.381  1.00  0.00    -0.204 F 
HETATM   11  F2  UNL     1      14.982   6.624  15.610  1.00  0.00    -0.204 F 
ENDROOT
BRANCH   6  12
HETATM   12  C5  UNL     1      16.741   2.722  14.314  1.00  0.00     0.260 C 
HETATM   13  O1  UNL     1      16.407   1.584  14.776  1.00  0.00    -0.270 OA
HETATM   14  N2  UNL     1      17.456   2.726  13.113  1.00  0.00    -0.302 N 
ATOM     15  H2  UNL     1      18.463   2.882  13.172  1.00  0.00     0.171 HD
BRANCH  14  16
HETATM   16  C6  UNL     1      16.959   2.552  11.950  1.00  0.00     0.197 A 
HETATM   17  N3  UNL     1      15.984   2.970  11.135  1.00  0.00    -0.229 N 
HETATM   18  O2  UNL     1      16.136   2.268  10.029  1.00  0.00    -0.194 OA
ATOM     19  H3  UNL     1      15.275   3.677  11.328  1.00  0.00     0.198 HD
HETATM   20  S1  UNL     1      17.426   1.507  10.697  1.00  0.00     0.099 SA
ENDBRANCH  14  16
ENDBRANCH   6  12
TORSDOF 2
ENDMDL
MODEL 4
REMARK VINA RESULT: -6.755454184      3.925      5.895
REMARK  2 active torsions:
REMARK  status: ('A' for Active; 'I' for Inactive)
REMARK    1  A    between atoms: C3_6  and  C5_8 
REMARK       I    between atoms: C5_8  and  N2_10 
REMARK    2  A    between atoms: N2_10  and  C6_12 
ROOT
HETATM    1  C1  UNL     1      20.074   3.447   9.911  1.00  0.00     0.046 C 
HETATM    2  C2  UNL     1      19.289   3.249  11.181  1.00  0.00     0.255 C 
HETATM    3  N1  UNL     1      18.159   4.149  11.264  1.00  0.00    -0.048 N 
ATOM      4  H11 UNL     1      17.859   4.498  10.353  1.00  0.00     0.279 HD
ATOM      5  H12 UNL     1      18.396   5.050  11.679  1.00  0.00     0.279 HD
HETATM    6  C3  UNL     1      17.116   3.464  11.971  1.00  0.00     0.208 C 
HETATM    7  C4  UNL     1      15.824   3.684  11.197  1.00  0.00     0.057 C 
HETATM    8  C7  UNL     1      17.475   1.997  12.011  1.00  0.00     0.130 C 
HETATM    9  C8  UNL     1      18.656   1.859  11.105  1.00  0.00     0.274 C 
HETATM   10  F1  UNL     1      19.573   0.957  11.569  1.00  0.00    -0.204 F 
HETATM   11  F2  UNL     1      18.272   1.591   9.815  1.00  0.00    -0.204 F 
ENDROOT
BRANCH   6  12
HETATM   12  C5  UNL     1      16.917   4.018  13.319  1.00  0.00     0.260 C 
HETATM   13  O1  UNL     1      16.258   5.101  13.423  1.00  0.00    -0.270 OA
HETATM   14  N2  UNL     1      17.394   3.457  14.506  1.00  0.00    -0.302 N 
ATOM     15  H2  UNL     1      18.383   3.589  14.720  1.00  0.00     0.171 HD
BRANCH  14  16
HETATM   16  C6  UNL     1      16.699   2.793  15.348  1.00  0.00     0.197 A 
HETATM   17  N3  UNL     1      16.487   1.557  15.814  1.00  0.00    -0.229 N 
HETATM   18  O2  UNL     1      15.555   1.694  16.738  1.00  0.00    -0.194 OA
ATOM     19  H3  UNL     1      16.946   0.696  15.519  1.00  0.00     0.198 HD
HETATM   20  S1  UNL     1      15.518   3.308  16.453  1.00  0.00     0.099 SA
ENDBRANCH  14  16
ENDBRANCH   6  12
TORSDOF 2
ENDMDL
MODEL 5
REMARK VINA RESULT: -6.751199999      3.860      5.682
REMARK  2 active torsions:
REMARK  status: ('A' for Active; 'I' for Inactive)
REMARK    1  A    between atoms: C3_6  and  C5_8 
REMARK       I    between atoms: C5_8  and  N2_10 
REMARK    2  A    between atoms: N2_10  and  C6_12 
ROOT
HETATM    1  C1  UNL     1      19.640   3.010  10.212  1.00  0.00     0.046 C 
HETATM    2  C2  UNL     1      19.044   2.719  11.563  1.00  0.00     0.255 C 
HETATM    3  N1  UNL     1      18.358   3.868  12.111  1.00  0.00    -0.048 N 
ATOM      4  H11 UNL     1      18.073   4.540  11.398  1.00  0.00     0.279 HD
ATOM      5  H12 UNL     1      18.974   4.488  12.637  1.00  0.00     0.279 HD
HETATM    6  C3  UNL     1      17.258   3.379  12.891  1.00  0.00     0.208 C 
HETATM    7  C4  UNL     1      16.038   4.212  12.524  1.00  0.00     0.057 C 
HETATM    8  C7  UNL     1      17.046   1.929  12.528  1.00  0.00     0.130 C 
HETATM    9  C8  UNL     1      17.936   1.686  11.351  1.00  0.00     0.274 C 
HETATM   10  F1  UNL     1      18.511   0.447  11.373  1.00  0.00    -0.204 F 
HETATM   11  F2  UNL     1      17.286   1.935  10.169  1.00  0.00    -0.204 F 
ENDROOT
BRANCH   6  12
HETATM   12  C5  UNL     1      17.490   3.558  14.332  1.00  0.00     0.260 C 
HETATM   13  O1  UNL     1      17.993   4.661  14.720  1.00  0.00    -0.270 OA
HETATM   14  N2  UNL     1      17.206   2.615  15.323  1.00  0.00    -0.302 N 
ATOM     15  H2  UNL     1      17.859   1.839  15.428  1.00  0.00     0.171 HD
BRANCH  14  16
HETATM   16  C6  UNL     1      16.200   2.641  16.110  1.00  0.00     0.197 A 
HETATM   17  N3  UNL     1      15.594   1.954  17.085  1.00  0.00    -0.229 N 
HETATM   18  O2  UNL     1      14.541   2.679  17.412  1.00  0.00    -0.194 OA
ATOM     19  H3  UNL     1      15.883   1.063  17.489  1.00  0.00     0.198 HD
HETATM   20  S1  UNL     1      14.964   3.790  16.283  1.00  0.00     0.099 SA
ENDBRANCH  14  16
ENDBRANCH   6  12
TORSDOF 2
ENDMDL
