MODEL 1
REMARK VINA RESULT: -8.037835517      0.000      0.000
REMARK  10 active torsions:
REMARK  status: ('A' for Active; 'I' for Inactive)
REMARK    1  A    between atoms: C2_2  and  C3_3 
REMARK    2  A    between atoms: C3_3  and  N1_4 
REMARK    3  A    between atoms: C4_5  and  C5_6 
REMARK    4  A    between atoms: C5_6  and  C6_7 
REMARK    5  A    between atoms: C10_20  and  S1_21 
REMARK    6  A    between atoms: S1_21  and  C11_22 
REMARK    7  A    between atoms: C11_22  and  C12_23 
REMARK    8  A    between atoms: C12_23  and  O3_25 
REMARK    9  A    between atoms: O3_25  and  C13_26 
REMARK   10  A    between atoms: C13_26  and  C14_28 
ROOT
HETATM    1  N1  UNL     1      14.452 -13.232  21.242  1.00  0.00    -0.308 N 
HETATM    2  C4  UNL     1      13.867 -12.059  21.292  1.00  0.00     0.126 A 
HETATM    3  N4  UNL     1      14.944 -11.153  21.149  1.00  0.00    -0.283 N 
ATOM      4  H4  UNL     1      14.854 -10.138  21.137  1.00  0.00     0.188 HD
HETATM    5  N5  UNL     1      16.047 -11.791  21.036  1.00  0.00    -0.278 N 
ATOM      6  H5  UNL     1      16.962 -11.357  20.923  1.00  0.00     0.189 HD
HETATM    7  C10 UNL     1      15.826 -13.113  21.089  1.00  0.00     0.163 A 
ENDROOT
BRANCH   7   8
HETATM    8  S1  UNL     1      17.028 -14.411  21.062  1.00  0.00    -0.082 SA
BRANCH   8   9
HETATM    9  C11 UNL     1      18.312 -14.139  22.257  1.00  0.00     0.194 C 
BRANCH   9  10
HETATM   10  C12 UNL     1      19.516 -14.997  22.001  1.00  0.00     0.276 C 
HETATM   11  O2  UNL     1      20.040 -15.126  20.883  1.00  0.00    -0.264 OA
BRANCH  10  12
HETATM   12  O3  UNL     1      20.026 -15.661  23.129  1.00  0.00    -0.241 OA
BRANCH  12  13
HETATM   13  C13 UNL     1      20.871 -15.054  24.023  1.00  0.00     0.321 C 
HETATM   14  O4  UNL     1      21.932 -14.513  23.608  1.00  0.00    -0.260 OA
BRANCH  13  15
HETATM   15  C14 UNL     1      20.600 -14.994  25.483  1.00  0.00     0.277 C 
HETATM   16 CL1  UNL     1      20.826 -13.341  26.134  1.00  0.00    -0.073 Cl
HETATM   17 CL2  UNL     1      18.859 -15.446  25.671  1.00  0.00    -0.073 Cl
HETATM   18 CL3  UNL     1      21.625 -16.094  26.417  1.00  0.00    -0.073 Cl
ENDBRANCH  13  15
ENDBRANCH  12  13
ENDBRANCH  10  12
ENDBRANCH   9  10
ENDBRANCH   8   9
ENDBRANCH   7   8
BRANCH   1  19
HETATM   19  C3  UNL     1      13.838 -14.568  21.282  1.00  0.00     0.159 C 
BRANCH  19  20
HETATM   20  C2  UNL     1      13.309 -14.968  19.954  1.00  0.00    -0.017 C 
HETATM   21  C1  UNL     1      12.020 -15.146  19.773  1.00  0.00     0.008 C 
ENDBRANCH  19  20
ENDBRANCH   1  19
BRANCH   2  22
HETATM   22  C5  UNL     1      12.536 -11.543  21.553  1.00  0.00     0.081 C 
BRANCH  22  23
HETATM   23  C6  UNL     1      12.147 -10.960  22.821  1.00  0.00     0.062 A 
HETATM   24  N2  UNL     1      12.575  -9.773  23.333  1.00  0.00    -0.307 N 
HETATM   25  C7  UNL     1      11.956  -9.506  24.495  1.00  0.00     0.325 A 
ATOM     26  H2  UNL     1      13.269  -9.169  22.894  1.00  0.00     0.170 HD
HETATM   27  O1  UNL     1      12.121  -8.493  25.216  1.00  0.00    -0.247 OA
HETATM   28  N3  UNL     1      11.124 -10.532  24.741  1.00  0.00    -0.311 N 
HETATM   29  C8  UNL     1      11.231 -11.410  23.743  1.00  0.00     0.036 A 
ATOM     30  H3  UNL     1      10.514 -10.623  25.554  1.00  0.00     0.170 HD
HETATM   31  C9  UNL     1      10.481 -12.710  23.704  1.00  0.00     0.070 C 
ENDBRANCH  22  23
ENDBRANCH   2  22
TORSDOF 10
ENDMDL
MODEL 2
REMARK VINA RESULT: -8.029249554      0.761      1.350
REMARK  10 active torsions:
REMARK  status: ('A' for Active; 'I' for Inactive)
REMARK    1  A    between atoms: C2_2  and  C3_3 
REMARK    2  A    between atoms: C3_3  and  N1_4 
REMARK    3  A    between atoms: C4_5  and  C5_6 
REMARK    4  A    between atoms: C5_6  and  C6_7 
REMARK    5  A    between atoms: C10_20  and  S1_21 
REMARK    6  A    between atoms: S1_21  and  C11_22 
REMARK    7  A    between atoms: C11_22  and  C12_23 
REMARK    8  A    between atoms: C12_23  and  O3_25 
REMARK    9  A    between atoms: O3_25  and  C13_26 
REMARK   10  A    between atoms: C13_26  and  C14_28 
ROOT
HETATM    1  N1  UNL     1      14.584 -13.241  21.313  1.00  0.00    -0.308 N 
HETATM    2  C4  UNL     1      13.956 -12.090  21.325  1.00  0.00     0.126 A 
HETATM    3  N4  UNL     1      14.999 -11.149  21.162  1.00  0.00    -0.283 N 
ATOM      4  H4  UNL     1      14.872 -10.138  21.121  1.00  0.00     0.188 HD
HETATM    5  N5  UNL     1      16.125 -11.749  21.073  1.00  0.00    -0.278 N 
ATOM      6  H5  UNL     1      17.025 -11.284  20.952  1.00  0.00     0.189 HD
HETATM    7  C10 UNL     1      15.954 -13.075  21.162  1.00  0.00     0.163 A 
ENDROOT
BRANCH   7   8
HETATM    8  S1  UNL     1      17.203 -14.328  21.178  1.00  0.00    -0.082 SA
BRANCH   8   9
HETATM    9  C11 UNL     1      18.820 -13.638  21.425  1.00  0.00     0.194 C 
BRANCH   9  10
HETATM   10  C12 UNL     1      19.847 -14.691  21.722  1.00  0.00     0.276 C 
HETATM   11  O2  UNL     1      19.972 -15.732  21.058  1.00  0.00    -0.264 OA
BRANCH  10  12
HETATM   12  O3  UNL     1      20.676 -14.421  22.823  1.00  0.00    -0.241 OA
BRANCH  12  13
HETATM   13  C13 UNL     1      20.391 -14.869  24.088  1.00  0.00     0.321 C 
HETATM   14  O4  UNL     1      19.287 -15.433  24.314  1.00  0.00    -0.260 OA
BRANCH  13  15
HETATM   15  C14 UNL     1      21.331 -14.726  25.231  1.00  0.00     0.277 C 
HETATM   16 CL1  UNL     1      21.448 -16.233  26.189  1.00  0.00    -0.073 Cl
HETATM   17 CL2  UNL     1      22.947 -14.396  24.489  1.00  0.00    -0.073 Cl
HETATM   18 CL3  UNL     1      20.880 -13.413  26.329  1.00  0.00    -0.073 Cl
ENDBRANCH  13  15
ENDBRANCH  12  13
ENDBRANCH  10  12
ENDBRANCH   9  10
ENDBRANCH   8   9
ENDBRANCH   7   8
BRANCH   1  19
HETATM   19  C3  UNL     1      14.020 -14.598  21.387  1.00  0.00     0.159 C 
BRANCH  19  20
HETATM   20  C2  UNL     1      13.480 -15.040  20.077  1.00  0.00    -0.017 C 
HETATM   21  C1  UNL     1      12.184 -15.082  19.867  1.00  0.00     0.008 C 
ENDBRANCH  19  20
ENDBRANCH   1  19
BRANCH   2  22
HETATM   22  C5  UNL     1      12.605 -11.617  21.566  1.00  0.00     0.081 C 
BRANCH  22  23
HETATM   23  C6  UNL     1      12.189 -11.008  22.812  1.00  0.00     0.062 A 
HETATM   24  N2  UNL     1      12.617  -9.818  23.316  1.00  0.00    -0.307 N 
HETATM   25  C7  UNL     1      11.970  -9.524  24.456  1.00  0.00     0.325 A 
ATOM     26  H2  UNL     1      13.331  -9.230  22.888  1.00  0.00     0.170 HD
HETATM   27  O1  UNL     1      12.128  -8.501  25.165  1.00  0.00    -0.247 OA
HETATM   28  N3  UNL     1      11.118 -10.535  24.696  1.00  0.00    -0.311 N 
HETATM   29  C8  UNL     1      11.242 -11.431  23.715  1.00  0.00     0.036 A 
ATOM     30  H3  UNL     1      10.484 -10.605  25.492  1.00  0.00     0.170 HD
HETATM   31  C9  UNL     1      10.476 -12.722  23.677  1.00  0.00     0.070 C 
ENDBRANCH  22  23
ENDBRANCH   2  22
TORSDOF 10
ENDMDL
MODEL 3
REMARK VINA RESULT: -8.024969922      0.977      1.461
REMARK  10 active torsions:
REMARK  status: ('A' for Active; 'I' for Inactive)
REMARK    1  A    between atoms: C2_2  and  C3_3 
REMARK    2  A    between atoms: C3_3  and  N1_4 
REMARK    3  A    between atoms: C4_5  and  C5_6 
REMARK    4  A    between atoms: C5_6  and  C6_7 
REMARK    5  A    between atoms: C10_20  and  S1_21 
REMARK    6  A    between atoms: S1_21  and  C11_22 
REMARK    7  A    between atoms: C11_22  and  C12_23 
REMARK    8  A    between atoms: C12_23  and  O3_25 
REMARK    9  A    between atoms: O3_25  and  C13_26 
REMARK   10  A    between atoms: C13_26  and  C14_28 
ROOT
HETATM    1  N1  UNL     1      14.205 -13.199  21.516  1.00  0.00    -0.308 N 
HETATM    2  C4  UNL     1      13.958 -11.918  21.377  1.00  0.00     0.126 A 
HETATM    3  N4  UNL     1      15.237 -11.365  21.135  1.00  0.00    -0.283 N 
ATOM      4  H4  UNL     1      15.423 -10.376  20.973  1.00  0.00     0.188 HD
HETATM    5  N5  UNL     1      16.126 -12.284  21.148  1.00  0.00    -0.278 N 
ATOM      6  H5  UNL     1      17.123 -12.133  20.999  1.00  0.00     0.189 HD
HETATM    7  C10 UNL     1      15.559 -13.476  21.386  1.00  0.00     0.163 A 
ENDROOT
BRANCH   7   8
HETATM    8  S1  UNL     1      16.367 -15.038  21.583  1.00  0.00    -0.082 SA
BRANCH   8   9
HETATM    9  C11 UNL     1      17.454 -15.040  22.987  1.00  0.00     0.194 C 
BRANCH   9  10
HETATM   10  C12 UNL     1      18.686 -14.217  22.752  1.00  0.00     0.276 C 
HETATM   11  O2  UNL     1      18.969 -13.705  21.657  1.00  0.00    -0.264 OA
BRANCH  10  12
HETATM   12  O3  UNL     1      19.519 -14.059  23.871  1.00  0.00    -0.241 OA
BRANCH  12  13
HETATM   13  C13 UNL     1      20.662 -14.796  24.049  1.00  0.00     0.321 C 
HETATM   14  O4  UNL     1      21.026 -15.607  23.156  1.00  0.00    -0.260 OA
BRANCH  13  15
HETATM   15  C14 UNL     1      21.517 -14.689  25.261  1.00  0.00     0.277 C 
HETATM   16 CL1  UNL     1      21.618 -16.242  26.146  1.00  0.00    -0.073 Cl
HETATM   17 CL2  UNL     1      23.169 -14.272  24.653  1.00  0.00    -0.073 Cl
HETATM   18 CL3  UNL     1      20.949 -13.451  26.392  1.00  0.00    -0.073 Cl
ENDBRANCH  13  15
ENDBRANCH  12  13
ENDBRANCH  10  12
ENDBRANCH   9  10
ENDBRANCH   8   9
ENDBRANCH   7   8
BRANCH   1  19
HETATM   19  C3  UNL     1      13.255 -14.301  21.732  1.00  0.00     0.159 C 
BRANCH  19  20
HETATM   20  C2  UNL     1      12.357 -14.488  20.564  1.00  0.00    -0.017 C 
HETATM   21  C1  UNL     1      12.764 -15.150  19.506  1.00  0.00     0.008 C 
ENDBRANCH  19  20
ENDBRANCH   1  19
BRANCH   2  22
HETATM   22  C5  UNL     1      12.818 -11.033  21.523  1.00  0.00     0.081 C 
BRANCH  22  23
HETATM   23  C6  UNL     1      12.321 -10.586  22.807  1.00  0.00     0.062 A 
HETATM   24  N2  UNL     1      12.654  -9.432  23.449  1.00  0.00    -0.307 N 
HETATM   25  C7  UNL     1      11.951  -9.300  24.586  1.00  0.00     0.325 A 
ATOM     26  H2  UNL     1      13.344  -8.760  23.113  1.00  0.00     0.170 HD
HETATM   27  O1  UNL     1      12.019  -8.350  25.403  1.00  0.00    -0.247 OA
HETATM   28  N3  UNL     1      11.158 -10.380  24.685  1.00  0.00    -0.311 N 
HETATM   29  C8  UNL     1      11.372 -11.158  23.622  1.00  0.00     0.036 A 
ATOM     30  H3  UNL     1      10.503 -10.572  25.443  1.00  0.00     0.170 HD
HETATM   31  C9  UNL     1      10.693 -12.482  23.419  1.00  0.00     0.070 C 
ENDBRANCH  22  23
ENDBRANCH   2  22
TORSDOF 10
ENDMDL
MODEL 4
REMARK VINA RESULT: -7.857168711      4.611      8.242
REMARK  10 active torsions:
REMARK  status: ('A' for Active; 'I' for Inactive)
REMARK    1  A    between atoms: C2_2  and  C3_3 
REMARK    2  A    between atoms: C3_3  and  N1_4 
REMARK    3  A    between atoms: C4_5  and  C5_6 
REMARK    4  A    between atoms: C5_6  and  C6_7 
REMARK    5  A    between atoms: C10_20  and  S1_21 
REMARK    6  A    between atoms: S1_21  and  C11_22 
REMARK    7  A    between atoms: C11_22  and  C12_23 
REMARK    8  A    between atoms: C12_23  and  O3_25 
REMARK    9  A    between atoms: O3_25  and  C13_26 
REMARK   10  A    between atoms: C13_26  and  C14_28 
ROOT
HETATM    1  N1  UNL     1      17.980 -14.511  22.374  1.00  0.00    -0.308 N 
HETATM    2  C4  UNL     1      18.180 -14.911  23.607  1.00  0.00     0.126 A 
HETATM    3  N4  UNL     1      17.309 -16.017  23.735  1.00  0.00    -0.283 N 
ATOM      4  H4  UNL     1      17.206 -16.584  24.576  1.00  0.00     0.188 HD
HETATM    5  N5  UNL     1      16.668 -16.205  22.644  1.00  0.00    -0.278 N 
ATOM      6  H5  UNL     1      15.981 -16.942  22.491  1.00  0.00     0.189 HD
HETATM    7  C10 UNL     1      17.030 -15.293  21.730  1.00  0.00     0.163 A 
ENDROOT
BRANCH   7   8
HETATM    8  S1  UNL     1      16.376 -15.077  20.101  1.00  0.00    -0.082 SA
BRANCH   8   9
HETATM    9  C11 UNL     1      15.024 -13.926  20.085  1.00  0.00     0.194 C 
BRANCH   9  10
HETATM   10  C12 UNL     1      15.492 -12.501  20.084  1.00  0.00     0.276 C 
HETATM   11  O2  UNL     1      16.357 -12.065  19.308  1.00  0.00    -0.264 OA
BRANCH  10  12
HETATM   12  O3  UNL     1      14.880 -11.671  21.038  1.00  0.00    -0.241 OA
BRANCH  12  13
HETATM   13  C13 UNL     1      13.865 -12.107  21.851  1.00  0.00     0.321 C 
HETATM   14  O4  UNL     1      14.026 -13.147  22.545  1.00  0.00    -0.260 OA
BRANCH  13  15
HETATM   15  C14 UNL     1      12.558 -11.407  21.965  1.00  0.00     0.277 C 
HETATM   16 CL1  UNL     1      12.500 -10.334  23.398  1.00  0.00    -0.073 Cl
HETATM   17 CL2  UNL     1      12.428 -10.381  20.481  1.00  0.00    -0.073 Cl
HETATM   18 CL3  UNL     1      11.188 -12.523  22.062  1.00  0.00    -0.073 Cl
ENDBRANCH  13  15
ENDBRANCH  12  13
ENDBRANCH  10  12
ENDBRANCH   9  10
ENDBRANCH   8   9
ENDBRANCH   7   8
BRANCH   1  19
HETATM   19  C3  UNL     1      18.646 -13.425  21.639  1.00  0.00     0.159 C 
BRANCH  19  20
HETATM   20  C2  UNL     1      19.746 -13.937  20.783  1.00  0.00    -0.017 C 
HETATM   21  C1  UNL     1      20.169 -13.244  19.751  1.00  0.00     0.008 C 
ENDBRANCH  19  20
ENDBRANCH   1  19
BRANCH   2  22
HETATM   22  C5  UNL     1      18.917 -14.449  24.768  1.00  0.00     0.081 C 
BRANCH  22  23
HETATM   23  C6  UNL     1      20.361 -14.507  24.866  1.00  0.00     0.062 A 
HETATM   24  N2  UNL     1      21.235 -14.732  23.846  1.00  0.00    -0.307 N 
HETATM   25  C7  UNL     1      22.503 -14.647  24.278  1.00  0.00     0.325 A 
ATOM     26  H2  UNL     1      20.963 -14.937  22.885  1.00  0.00     0.170 HD
HETATM   27  O1  UNL     1      23.541 -14.797  23.590  1.00  0.00    -0.247 OA
HETATM   28  N3  UNL     1      22.452 -14.369  25.592  1.00  0.00    -0.311 N 
HETATM   29  C8  UNL     1      21.171 -14.284  25.955  1.00  0.00     0.036 A 
ATOM     30  H3  UNL     1      23.256 -14.245  26.207  1.00  0.00     0.170 HD
HETATM   31  C9  UNL     1      20.729 -14.032  27.367  1.00  0.00     0.070 C 
ENDBRANCH  22  23
ENDBRANCH   2  22
TORSDOF 10
ENDMDL
MODEL 5
REMARK VINA RESULT: -7.701824679      4.585      8.366
REMARK  10 active torsions:
REMARK  status: ('A' for Active; 'I' for Inactive)
REMARK    1  A    between atoms: C2_2  and  C3_3 
REMARK    2  A    between atoms: C3_3  and  N1_4 
REMARK    3  A    between atoms: C4_5  and  C5_6 
REMARK    4  A    between atoms: C5_6  and  C6_7 
REMARK    5  A    between atoms: C10_20  and  S1_21 
REMARK    6  A    between atoms: S1_21  and  C11_22 
REMARK    7  A    between atoms: C11_22  and  C12_23 
REMARK    8  A    between atoms: C12_23  and  O3_25 
REMARK    9  A    between atoms: O3_25  and  C13_26 
REMARK   10  A    between atoms: C13_26  and  C14_28 
ROOT
HETATM    1  N1  UNL     1      18.289 -15.525  22.395  1.00  0.00    -0.308 N 
HETATM    2  C4  UNL     1      18.433 -15.101  23.628  1.00  0.00     0.126 A 
HETATM    3  N4  UNL     1      17.353 -15.710  24.309  1.00  0.00    -0.283 N 
ATOM      4  H4  UNL     1      17.156 -15.602  25.304  1.00  0.00     0.188 HD
HETATM    5  N5  UNL     1      16.660 -16.415  23.498  1.00  0.00    -0.278 N 
ATOM      6  H5  UNL     1      15.830 -16.950  23.753  1.00  0.00     0.189 HD
HETATM    7  C10 UNL     1      17.181 -16.351  22.264  1.00  0.00     0.163 A 
ENDROOT
BRANCH   7   8
HETATM    8  S1  UNL     1      16.544 -17.080  20.783  1.00  0.00    -0.082 SA
BRANCH   8   9
HETATM    9  C11 UNL     1      14.928 -17.769  21.035  1.00  0.00     0.194 C 
BRANCH   9  10
HETATM   10  C12 UNL     1      13.885 -16.710  21.238  1.00  0.00     0.276 C 
HETATM   11  O2  UNL     1      13.042 -16.744  22.147  1.00  0.00    -0.264 OA
BRANCH  10  12
HETATM   12  O3  UNL     1      13.922 -15.652  20.314  1.00  0.00    -0.241 OA
BRANCH  12  13
HETATM   13  C13 UNL     1      13.093 -14.563  20.405  1.00  0.00     0.321 C 
HETATM   14  O4  UNL     1      11.982 -14.574  19.810  1.00  0.00    -0.260 OA
BRANCH  13  15
HETATM   15  C14 UNL     1      13.435 -13.347  21.188  1.00  0.00     0.277 C 
HETATM   16 CL1  UNL     1      13.143 -11.849  20.251  1.00  0.00    -0.073 Cl
HETATM   17 CL2  UNL     1      12.319 -13.355  22.610  1.00  0.00    -0.073 Cl
HETATM   18 CL3  UNL     1      15.120 -13.332  21.730  1.00  0.00    -0.073 Cl
ENDBRANCH  13  15
ENDBRANCH  12  13
ENDBRANCH  10  12
ENDBRANCH   9  10
ENDBRANCH   8   9
ENDBRANCH   7   8
BRANCH   1  19
HETATM   19  C3  UNL     1      19.148 -15.272  21.229  1.00  0.00     0.159 C 
BRANCH  19  20
HETATM   20  C2  UNL     1      19.034 -13.869  20.757  1.00  0.00    -0.017 C 
HETATM   21  C1  UNL     1      20.058 -13.265  20.201  1.00  0.00     0.008 C 
ENDBRANCH  19  20
ENDBRANCH   1  19
BRANCH   2  22
HETATM   22  C5  UNL     1      19.279 -14.160  24.338  1.00  0.00     0.081 C 
BRANCH  22  23
HETATM   23  C6  UNL     1      20.677 -14.410  24.622  1.00  0.00     0.062 A 
HETATM   24  N2  UNL     1      21.640 -14.752  23.722  1.00  0.00    -0.307 N 
HETATM   25  C7  UNL     1      22.841 -14.835  24.318  1.00  0.00     0.325 A 
ATOM     26  H2  UNL     1      21.473 -14.921  22.731  1.00  0.00     0.170 HD
HETATM   27  O1  UNL     1      23.931 -15.124  23.769  1.00  0.00    -0.247 OA
HETATM   28  N3  UNL     1      22.654 -14.550  25.617  1.00  0.00    -0.311 N 
HETATM   29  C8  UNL     1      21.359 -14.294  25.811  1.00  0.00     0.036 A 
ATOM     30  H3  UNL     1      23.380 -14.532  26.334  1.00  0.00     0.170 HD
HETATM   31  C9  UNL     1      20.773 -13.982  27.157  1.00  0.00     0.070 C 
ENDBRANCH  22  23
ENDBRANCH   2  22
TORSDOF 10
ENDMDL
