MODEL 1
REMARK VINA RESULT: -11.060458865      0.000      0.000
REMARK  6 active torsions:
REMARK  status: ('A' for Active; 'I' for Inactive)
REMARK    1  A    between atoms: C7_7  and  C8_8 
REMARK    2  A    between atoms: C8_8  and  C9_10 
REMARK    3  A    between atoms: C10_11  and  C11_12 
REMARK    4  A    between atoms: C17_18  and  O2_19 
REMARK    5  A    between atoms: C20_23  and  C21_24 
REMARK    6  A    between atoms: C22_25  and  C23_26 
ROOT
HETATM    1  C11 UNL     1      57.290  35.209  33.587  1.00  0.00    -0.025 A 
HETATM    2  C12 UNL     1      57.047  35.944  34.724  1.00  0.00     0.024 A 
HETATM    3  C13 UNL     1      57.511  37.210  34.939  1.00  0.00    -0.022 A 
HETATM    4  C14 UNL     1      57.219  37.873  36.116  1.00  0.00     0.012 A 
HETATM    5  C15 UNL     1      57.713  39.144  36.278  1.00  0.00     0.004 A 
HETATM    6  C16 UNL     1      58.479  39.747  35.300  1.00  0.00     0.037 A 
HETATM    7  C17 UNL     1      58.765  39.064  34.120  1.00  0.00     0.076 A 
HETATM    8  C18 UNL     1      58.272  37.785  33.948  1.00  0.00     0.008 A 
HETATM    9  C19 UNL     1      58.550  37.097  32.778  1.00  0.00     0.027 A 
HETATM   10  C20 UNL     1      58.082  35.841  32.584  1.00  0.00    -0.025 A 
ENDROOT
BRANCH   1  11
HETATM   11  C10 UNL     1      56.892  33.838  33.371  1.00  0.00     0.016 C 
HETATM   12  C9  UNL     1      55.987  33.286  32.689  1.00  0.00     0.056 C 
BRANCH  12  13
HETATM   13  C8  UNL     1      54.935  33.676  31.834  1.00  0.00     0.182 C 
HETATM   14  O1  UNL     1      53.804  34.073  32.292  1.00  0.00    -0.288 OA
BRANCH  13  15
HETATM   15  C7  UNL     1      54.941  33.691  30.371  1.00  0.00     0.020 A 
HETATM   16  C2  UNL     1      55.213  32.616  29.613  1.00  0.00    -0.048 A 
HETATM   17  C1  UNL     1      55.660  31.318  30.180  1.00  0.00     0.049 C 
HETATM   18  C3  UNL     1      55.138  32.690  28.196  1.00  0.00     0.007 A 
HETATM   19  C4  UNL     1      54.790  33.845  27.554  1.00  0.00     0.001 A 
HETATM   20  C5  UNL     1      54.514  34.943  28.325  1.00  0.00     0.001 A 
HETATM   21  C6  UNL     1      54.583  34.881  29.695  1.00  0.00     0.016 A 
ENDBRANCH  13  15
ENDBRANCH  12  13
ENDBRANCH   1  11
BRANCH  10  22
HETATM   22  C21 UNL     1      58.391  35.051  31.387  1.00  0.00     0.013 C 
HETATM   23  C22 UNL     1      57.960  35.465  30.192  1.00  0.00     0.012 C 
BRANCH  23  24
HETATM   24  C23 UNL     1      58.224  34.740  28.956  1.00  0.00    -0.036 A 
HETATM   25  C24 UNL     1      58.519  33.380  28.989  1.00  0.00     0.011 A 
HETATM   26  C25 UNL     1      58.774  32.661  27.843  1.00  0.00     0.001 A 
HETATM   27  C26 UNL     1      58.752  33.244  26.597  1.00  0.00     0.000 A 
HETATM   28  C27 UNL     1      58.462  34.587  26.551  1.00  0.00     0.001 A 
HETATM   29  C28 UNL     1      58.201  35.327  27.717  1.00  0.00     0.011 A 
ENDBRANCH  23  24
ENDBRANCH  10  22
BRANCH   7  30
HETATM   30  O2  UNL     1      59.528  39.632  33.115  1.00  0.00    -0.360 OA
ATOM     31  H2  UNL     1      59.403  40.533  32.841  1.00  0.00     0.217 HD
ENDBRANCH   7  30
TORSDOF 6
ENDMDL
MODEL 2
REMARK VINA RESULT: -10.450910881      0.675      1.415
REMARK  6 active torsions:
REMARK  status: ('A' for Active; 'I' for Inactive)
REMARK    1  A    between atoms: C7_7  and  C8_8 
REMARK    2  A    between atoms: C8_8  and  C9_10 
REMARK    3  A    between atoms: C10_11  and  C11_12 
REMARK    4  A    between atoms: C17_18  and  O2_19 
REMARK    5  A    between atoms: C20_23  and  C21_24 
REMARK    6  A    between atoms: C22_25  and  C23_26 
ROOT
HETATM    1  C11 UNL     1      57.404  35.321  34.110  1.00  0.00    -0.025 A 
HETATM    2  C12 UNL     1      57.148  36.070  35.235  1.00  0.00     0.024 A 
HETATM    3  C13 UNL     1      57.490  37.384  35.382  1.00  0.00    -0.022 A 
HETATM    4  C14 UNL     1      57.195  38.058  36.551  1.00  0.00     0.012 A 
HETATM    5  C15 UNL     1      57.562  39.378  36.643  1.00  0.00     0.004 A 
HETATM    6  C16 UNL     1      58.207  40.019  35.603  1.00  0.00     0.037 A 
HETATM    7  C17 UNL     1      58.497  39.324  34.430  1.00  0.00     0.076 A 
HETATM    8  C18 UNL     1      58.131  37.995  34.330  1.00  0.00     0.008 A 
HETATM    9  C19 UNL     1      58.415  37.296  33.168  1.00  0.00     0.027 A 
HETATM   10  C20 UNL     1      58.070  35.992  33.042  1.00  0.00    -0.025 A 
ENDROOT
BRANCH   1  11
HETATM   11  C10 UNL     1      57.139  33.909  33.962  1.00  0.00     0.016 C 
HETATM   12  C9  UNL     1      56.330  33.238  33.267  1.00  0.00     0.056 C 
BRANCH  12  13
HETATM   13  C8  UNL     1      55.303  33.480  32.331  1.00  0.00     0.182 C 
HETATM   14  O1  UNL     1      54.295  34.224  32.610  1.00  0.00    -0.288 OA
BRANCH  13  15
HETATM   15  C7  UNL     1      55.205  32.957  30.968  1.00  0.00     0.020 A 
HETATM   16  C2  UNL     1      54.819  33.691  29.911  1.00  0.00    -0.048 A 
HETATM   17  C1  UNL     1      54.330  35.088  30.030  1.00  0.00     0.049 C 
HETATM   18  C3  UNL     1      54.809  33.131  28.605  1.00  0.00     0.007 A 
HETATM   19  C4  UNL     1      55.185  31.838  28.374  1.00  0.00     0.001 A 
HETATM   20  C5  UNL     1      55.577  31.087  29.451  1.00  0.00     0.001 A 
HETATM   21  C6  UNL     1      55.591  31.620  30.716  1.00  0.00     0.016 A 
ENDBRANCH  13  15
ENDBRANCH  12  13
ENDBRANCH   1  11
BRANCH  10  22
HETATM   22  C21 UNL     1      58.394  35.192  31.855  1.00  0.00     0.013 C 
HETATM   23  C22 UNL     1      57.859  35.516  30.675  1.00  0.00     0.012 C 
BRANCH  23  24
HETATM   24  C23 UNL     1      58.129  34.775  29.449  1.00  0.00    -0.036 A 
HETATM   25  C24 UNL     1      58.476  33.429  29.505  1.00  0.00     0.011 A 
HETATM   26  C25 UNL     1      58.739  32.695  28.369  1.00  0.00     0.001 A 
HETATM   27  C26 UNL     1      58.673  33.251  27.113  1.00  0.00     0.000 A 
HETATM   28  C27 UNL     1      58.331  34.580  27.043  1.00  0.00     0.001 A 
HETATM   29  C28 UNL     1      58.061  35.334  28.199  1.00  0.00     0.011 A 
ENDBRANCH  23  24
ENDBRANCH  10  22
BRANCH   7  30
HETATM   30  O2  UNL     1      59.141  39.928  33.365  1.00  0.00    -0.360 OA
ATOM     31  H2  UNL     1      59.608  40.750  33.464  1.00  0.00     0.217 HD
ENDBRANCH   7  30
TORSDOF 6
ENDMDL
MODEL 3
REMARK VINA RESULT: -10.383284962      2.247      6.967
REMARK  6 active torsions:
REMARK  status: ('A' for Active; 'I' for Inactive)
REMARK    1  A    between atoms: C7_7  and  C8_8 
REMARK    2  A    between atoms: C8_8  and  C9_10 
REMARK    3  A    between atoms: C10_11  and  C11_12 
REMARK    4  A    between atoms: C17_18  and  O2_19 
REMARK    5  A    between atoms: C20_23  and  C21_24 
REMARK    6  A    between atoms: C22_25  and  C23_26 
ROOT
HETATM    1  C11 UNL     1      57.674  33.405  31.943  1.00  0.00    -0.025 A 
HETATM    2  C12 UNL     1      56.775  32.521  31.390  1.00  0.00     0.024 A 
HETATM    3  C13 UNL     1      56.326  32.582  30.102  1.00  0.00    -0.022 A 
HETATM    4  C14 UNL     1      55.419  31.652  29.632  1.00  0.00     0.012 A 
HETATM    5  C15 UNL     1      55.003  31.762  28.328  1.00  0.00     0.004 A 
HETATM    6  C16 UNL     1      55.471  32.768  27.506  1.00  0.00     0.037 A 
HETATM    7  C17 UNL     1      56.385  33.699  27.997  1.00  0.00     0.076 A 
HETATM    8  C18 UNL     1      56.809  33.595  29.307  1.00  0.00     0.008 A 
HETATM    9  C19 UNL     1      57.718  34.515  29.804  1.00  0.00     0.027 A 
HETATM   10  C20 UNL     1      58.151  34.440  31.086  1.00  0.00    -0.025 A 
ENDROOT
BRANCH   1  11
HETATM   11  C10 UNL     1      58.094  33.422  33.324  1.00  0.00     0.016 C 
HETATM   12  C9  UNL     1      57.787  34.124  34.325  1.00  0.00     0.056 C 
BRANCH  12  13
HETATM   13  C8  UNL     1      56.934  35.208  34.621  1.00  0.00     0.182 C 
HETATM   14  O1  UNL     1      55.677  35.167  34.371  1.00  0.00    -0.288 OA
BRANCH  13  15
HETATM   15  C7  UNL     1      57.307  36.490  35.220  1.00  0.00     0.020 A 
HETATM   16  C2  UNL     1      57.450  36.685  36.542  1.00  0.00    -0.048 A 
HETATM   17  C1  UNL     1      57.125  35.647  37.553  1.00  0.00     0.049 C 
HETATM   18  C3  UNL     1      57.876  37.943  37.046  1.00  0.00     0.007 A 
HETATM   19  C4  UNL     1      58.153  38.994  36.218  1.00  0.00     0.001 A 
HETATM   20  C5  UNL     1      58.006  38.798  34.870  1.00  0.00     0.001 A 
HETATM   21  C6  UNL     1      57.596  37.585  34.373  1.00  0.00     0.016 A 
ENDBRANCH  13  15
ENDBRANCH  12  13
ENDBRANCH   1  11
BRANCH  10  22
HETATM   22  C21 UNL     1      59.071  35.419  31.676  1.00  0.00     0.013 C 
HETATM   23  C22 UNL     1      59.705  36.289  30.886  1.00  0.00     0.012 C 
BRANCH  23  24
HETATM   24  C23 UNL     1      60.634  37.293  31.391  1.00  0.00    -0.036 A 
HETATM   25  C24 UNL     1      60.160  38.398  32.091  1.00  0.00     0.011 A 
HETATM   26  C25 UNL     1      61.005  39.367  32.584  1.00  0.00     0.001 A 
HETATM   27  C26 UNL     1      62.368  39.299  32.412  1.00  0.00     0.000 A 
HETATM   28  C27 UNL     1      62.849  38.212  31.723  1.00  0.00     0.001 A 
HETATM   29  C28 UNL     1      61.992  37.220  31.217  1.00  0.00     0.011 A 
ENDBRANCH  23  24
ENDBRANCH  10  22
BRANCH   7  30
HETATM   30  O2  UNL     1      56.879  34.721  27.207  1.00  0.00    -0.360 OA
ATOM     31  H2  UNL     1      56.547  34.882  26.331  1.00  0.00     0.217 HD
ENDBRANCH   7  30
TORSDOF 6
ENDMDL
MODEL 4
REMARK VINA RESULT: -10.180477213      2.785      7.308
REMARK  6 active torsions:
REMARK  status: ('A' for Active; 'I' for Inactive)
REMARK    1  A    between atoms: C7_7  and  C8_8 
REMARK    2  A    between atoms: C8_8  and  C9_10 
REMARK    3  A    between atoms: C10_11  and  C11_12 
REMARK    4  A    between atoms: C17_18  and  O2_19 
REMARK    5  A    between atoms: C20_23  and  C21_24 
REMARK    6  A    between atoms: C22_25  and  C23_26 
ROOT
HETATM    1  C11 UNL     1      55.473  34.356  27.578  1.00  0.00    -0.025 A 
HETATM    2  C12 UNL     1      54.767  33.551  26.713  1.00  0.00     0.024 A 
HETATM    3  C13 UNL     1      55.285  33.001  25.576  1.00  0.00    -0.022 A 
HETATM    4  C14 UNL     1      54.500  32.206  24.763  1.00  0.00     0.012 A 
HETATM    5  C15 UNL     1      55.073  31.678  23.632  1.00  0.00     0.004 A 
HETATM    6  C16 UNL     1      56.392  31.931  23.310  1.00  0.00     0.037 A 
HETATM    7  C17 UNL     1      57.169  32.736  24.141  1.00  0.00     0.076 A 
HETATM    8  C18 UNL     1      56.601  33.270  25.281  1.00  0.00     0.008 A 
HETATM    9  C19 UNL     1      57.365  34.071  26.114  1.00  0.00     0.027 A 
HETATM   10  C20 UNL     1      56.833  34.610  27.237  1.00  0.00    -0.025 A 
ENDROOT
BRANCH   1  11
HETATM   11  C10 UNL     1      54.928  35.026  28.736  1.00  0.00     0.016 C 
HETATM   12  C9  UNL     1      54.729  34.685  29.932  1.00  0.00     0.056 C 
BRANCH  12  13
HETATM   13  C8  UNL     1      54.905  33.540  30.737  1.00  0.00     0.182 C 
HETATM   14  O1  UNL     1      53.944  32.722  30.968  1.00  0.00    -0.288 OA
BRANCH  13  15
HETATM   15  C7  UNL     1      56.129  33.112  31.415  1.00  0.00     0.020 A 
HETATM   16  C2  UNL     1      57.066  32.334  30.846  1.00  0.00    -0.048 A 
HETATM   17  C1  UNL     1      56.903  31.720  29.504  1.00  0.00     0.049 C 
HETATM   18  C3  UNL     1      58.260  32.011  31.544  1.00  0.00     0.007 A 
HETATM   19  C4  UNL     1      58.502  32.471  32.808  1.00  0.00     0.001 A 
HETATM   20  C5  UNL     1      57.547  33.263  33.390  1.00  0.00     0.001 A 
HETATM   21  C6  UNL     1      56.390  33.581  32.723  1.00  0.00     0.016 A 
ENDBRANCH  13  15
ENDBRANCH  12  13
ENDBRANCH   1  11
BRANCH  10  22
HETATM   22  C21 UNL     1      57.583  35.507  28.124  1.00  0.00     0.013 C 
HETATM   23  C22 UNL     1      58.452  34.995  28.999  1.00  0.00     0.012 C 
BRANCH  23  24
HETATM   24  C23 UNL     1      59.237  35.814  29.915  1.00  0.00    -0.036 A 
HETATM   25  C24 UNL     1      58.898  35.880  31.264  1.00  0.00     0.011 A 
HETATM   26  C25 UNL     1      59.614  36.642  32.159  1.00  0.00     0.001 A 
HETATM   27  C26 UNL     1      60.706  37.385  31.773  1.00  0.00     0.000 A 
HETATM   28  C27 UNL     1      61.050  37.329  30.444  1.00  0.00     0.001 A 
HETATM   29  C28 UNL     1      60.324  36.552  29.524  1.00  0.00     0.011 A 
ENDBRANCH  23  24
ENDBRANCH  10  22
BRANCH   7  30
HETATM   30  O2  UNL     1      58.494  33.014  23.855  1.00  0.00    -0.360 OA
ATOM     31  H2  UNL     1      59.203  32.674  24.390  1.00  0.00     0.217 HD
ENDBRANCH   7  30
TORSDOF 6
ENDMDL
MODEL 5
REMARK VINA RESULT: -10.178549131      4.404      9.459
REMARK  6 active torsions:
REMARK  status: ('A' for Active; 'I' for Inactive)
REMARK    1  A    between atoms: C7_7  and  C8_8 
REMARK    2  A    between atoms: C8_8  and  C9_10 
REMARK    3  A    between atoms: C10_11  and  C11_12 
REMARK    4  A    between atoms: C17_18  and  O2_19 
REMARK    5  A    between atoms: C20_23  and  C21_24 
REMARK    6  A    between atoms: C22_25  and  C23_26 
ROOT
HETATM    1  C11 UNL     1      57.537  33.220  24.999  1.00  0.00    -0.025 A 
HETATM    2  C12 UNL     1      57.783  33.506  23.676  1.00  0.00     0.024 A 
HETATM    3  C13 UNL     1      56.853  33.414  22.681  1.00  0.00    -0.022 A 
HETATM    4  C14 UNL     1      57.190  33.719  21.376  1.00  0.00     0.012 A 
HETATM    5  C15 UNL     1      56.213  33.609  20.417  1.00  0.00     0.004 A 
HETATM    6  C16 UNL     1      54.932  33.206  20.738  1.00  0.00     0.037 A 
HETATM    7  C17 UNL     1      54.610  32.901  22.059  1.00  0.00     0.076 A 
HETATM    8  C18 UNL     1      55.586  33.010  23.031  1.00  0.00     0.008 A 
HETATM    9  C19 UNL     1      55.275  32.710  24.347  1.00  0.00     0.027 A 
HETATM   10  C20 UNL     1      56.212  32.805  25.320  1.00  0.00    -0.025 A 
ENDROOT
BRANCH   1  11
HETATM   11  C10 UNL     1      58.523  33.218  26.056  1.00  0.00     0.016 C 
HETATM   12  C9  UNL     1      59.045  34.117  26.766  1.00  0.00     0.056 C 
BRANCH  12  13
HETATM   13  C8  UNL     1      58.971  35.519  26.903  1.00  0.00     0.182 C 
HETATM   14  O1  UNL     1      58.315  36.072  27.856  1.00  0.00    -0.288 OA
BRANCH  13  15
HETATM   15  C7  UNL     1      59.583  36.528  26.037  1.00  0.00     0.020 A 
HETATM   16  C2  UNL     1      60.761  37.121  26.296  1.00  0.00    -0.048 A 
HETATM   17  C1  UNL     1      61.515  36.908  27.557  1.00  0.00     0.049 C 
HETATM   18  C3  UNL     1      61.324  38.046  25.375  1.00  0.00     0.007 A 
HETATM   19  C4  UNL     1      60.697  38.366  24.204  1.00  0.00     0.001 A 
HETATM   20  C5  UNL     1      59.496  37.764  23.939  1.00  0.00     0.001 A 
HETATM   21  C6  UNL     1      58.945  36.868  24.822  1.00  0.00     0.016 A 
ENDBRANCH  13  15
ENDBRANCH  12  13
ENDBRANCH   1  11
BRANCH  10  22
HETATM   22  C21 UNL     1      55.949  32.448  26.719  1.00  0.00     0.013 C 
HETATM   23  C22 UNL     1      55.585  33.398  27.585  1.00  0.00     0.012 C 
BRANCH  23  24
HETATM   24  C23 UNL     1      55.305  33.129  28.990  1.00  0.00    -0.036 A 
HETATM   25  C24 UNL     1      55.890  32.037  29.626  1.00  0.00     0.011 A 
HETATM   26  C25 UNL     1      55.650  31.750  30.951  1.00  0.00     0.001 A 
HETATM   27  C26 UNL     1      54.818  32.526  31.724  1.00  0.00     0.000 A 
HETATM   28  C27 UNL     1      54.234  33.606  31.109  1.00  0.00     0.001 A 
HETATM   29  C28 UNL     1      54.475  33.906  29.756  1.00  0.00     0.011 A 
ENDBRANCH  23  24
ENDBRANCH  10  22
BRANCH   7  30
HETATM   30  O2  UNL     1      53.338  32.494  22.423  1.00  0.00    -0.360 OA
ATOM     31  H2  UNL     1      53.181  31.994  23.216  1.00  0.00     0.217 HD
ENDBRANCH   7  30
TORSDOF 6
ENDMDL
