MODEL 1
REMARK VINA RESULT: -8.841708861      0.000      0.000
REMARK  6 active torsions:
REMARK  status: ('A' for Active; 'I' for Inactive)
REMARK       I    between atoms: C1_2  and  N1_3 
REMARK    1  A    between atoms: C1_2  and  C25_32 
REMARK    2  A    between atoms: N1_3  and  C2_5 
REMARK    3  A    between atoms: C5_8  and  O2_9 
REMARK    4  A    between atoms: C6_11  and  C7_12 
REMARK    5  A    between atoms: C8_13  and  C9_14 
REMARK    6  A    between atoms: C16_22  and  C17_23 
ROOT
HETATM    1  C7  UNL     1      23.324   4.816  21.300  1.00  0.00    -0.064 C 
HETATM    2  C8  UNL     1      24.034   3.989  20.785  1.00  0.00    -0.094 C 
ENDROOT
BRANCH   1   3
HETATM    3  C6  UNL     1      22.464   5.828  21.900  1.00  0.00     0.051 C 
HETATM    4  C5  UNL     1      22.150   6.894  21.094  1.00  0.00     0.084 C 
HETATM    5  C4  UNL     1      21.582   8.094  21.440  1.00  0.00     0.040 C 
HETATM    6  C3  UNL     1      21.033   8.451  22.680  1.00  0.00     0.032 C 
HETATM    7  C2  UNL     1      21.242   7.871  23.910  1.00  0.00     0.035 C 
HETATM    8  C24 UNL     1      21.621   6.545  24.098  1.00  0.00     0.031 C 
HETATM    9  C23 UNL     1      22.059   5.620  23.189  1.00  0.00     0.026 C 
BRANCH   4  10
HETATM   10  O2  UNL     1      22.450   6.721  19.761  1.00  0.00    -0.359 OA
ATOM     11  H2  UNL     1      22.427   5.829  19.435  1.00  0.00     0.217 HD
ENDBRANCH   4  10
BRANCH   7  12
HETATM   12  N1  UNL     1      21.080   8.595  24.950  1.00  0.00    -0.320 N 
HETATM   13  C1  UNL     1      20.045   8.302  25.865  1.00  0.00     0.330 C 
HETATM   14  O1  UNL     1      18.818   8.381  25.557  1.00  0.00    -0.263 OA
ATOM     15  H1  UNL     1      21.699   9.386  25.120  1.00  0.00     0.169 HD
BRANCH  13  16
HETATM   16  C25 UNL     1      20.382   7.886  27.241  1.00  0.00     0.472 C 
HETATM   17  F1  UNL     1      21.420   6.957  27.274  1.00  0.00    -0.162 F 
HETATM   18  F2  UNL     1      19.273   7.381  27.884  1.00  0.00    -0.162 F 
HETATM   19  F3  UNL     1      20.829   8.994  27.964  1.00  0.00    -0.162 F 
ENDBRANCH  13  16
ENDBRANCH   7  12
ENDBRANCH   1   3
BRANCH   2  20
HETATM   20  C9  UNL     1      24.884   2.968  20.142  1.00  0.00     0.089 C 
HETATM   21  C10 UNL     1      26.094   3.698  19.610  1.00  0.00     0.113 C 
HETATM   22  N2  UNL     1      26.138   3.179  18.212  1.00  0.00    -0.284 NA
HETATM   23  C11 UNL     1      24.738   3.294  17.855  1.00  0.00     0.106 C 
HETATM   24  C16 UNL     1      26.686   1.878  18.309  1.00  0.00    -0.002 C 
HETATM   25  C12 UNL     1      24.137   2.499  18.921  1.00  0.00    -0.009 A 
HETATM   26  C13 UNL     1      23.221   1.455  19.042  1.00  0.00     0.018 A 
HETATM   27  C14 UNL     1      24.423   1.050  18.379  1.00  0.00     0.002 A 
HETATM   28  C15 UNL     1      25.770   0.795  18.855  1.00  0.00     0.057 C 
BRANCH  24  29
HETATM   29  C17 UNL     1      27.482   1.401  17.175  1.00  0.00    -0.017 A 
HETATM   30  C18 UNL     1      27.725   0.053  17.035  1.00  0.00     0.013 A 
HETATM   31  C19 UNL     1      28.467  -0.494  15.996  1.00  0.00     0.003 A 
HETATM   32  C20 UNL     1      28.994   0.355  15.045  1.00  0.00     0.024 A 
HETATM   33  C21 UNL     1      28.769   1.709  15.159  1.00  0.00     0.034 A 
HETATM   34 CL1  UNL     1      29.451   2.761  13.939  1.00  0.00    -0.084 Cl
HETATM   35  C22 UNL     1      28.015   2.226  16.222  1.00  0.00     0.036 A 
ENDBRANCH  24  29
ENDBRANCH   2  20
TORSDOF 6
ENDMDL
MODEL 2
REMARK VINA RESULT: -8.811988555      1.013      1.291
REMARK  6 active torsions:
REMARK  status: ('A' for Active; 'I' for Inactive)
REMARK       I    between atoms: C1_2  and  N1_3 
REMARK    1  A    between atoms: C1_2  and  C25_32 
REMARK    2  A    between atoms: N1_3  and  C2_5 
REMARK    3  A    between atoms: C5_8  and  O2_9 
REMARK    4  A    between atoms: C6_11  and  C7_12 
REMARK    5  A    between atoms: C8_13  and  C9_14 
REMARK    6  A    between atoms: C16_22  and  C17_23 
ROOT
HETATM    1  C7  UNL     1      23.353   4.702  21.313  1.00  0.00    -0.064 C 
HETATM    2  C8  UNL     1      24.033   3.834  20.827  1.00  0.00    -0.094 C 
ENDROOT
BRANCH   1   3
HETATM    3  C6  UNL     1      22.527   5.762  21.877  1.00  0.00     0.051 C 
HETATM    4  C5  UNL     1      22.327   6.853  21.069  1.00  0.00     0.084 C 
HETATM    5  C4  UNL     1      21.819   8.084  21.399  1.00  0.00     0.040 C 
HETATM    6  C3  UNL     1      21.225   8.464  22.610  1.00  0.00     0.032 C 
HETATM    7  C2  UNL     1      21.327   7.860  23.843  1.00  0.00     0.035 C 
HETATM    8  C24 UNL     1      21.609   6.511  24.034  1.00  0.00     0.031 C 
HETATM    9  C23 UNL     1      22.038   5.568  23.139  1.00  0.00     0.026 C 
BRANCH   4  10
HETATM   10  O2  UNL     1      22.691   6.674  19.752  1.00  0.00    -0.359 OA
ATOM     11  H2  UNL     1      21.989   6.476  19.144  1.00  0.00     0.217 HD
ENDBRANCH   4  10
BRANCH   7  12
HETATM   12  N1  UNL     1      21.152   8.583  24.881  1.00  0.00    -0.320 N 
HETATM   13  C1  UNL     1      20.091   8.306  25.771  1.00  0.00     0.330 C 
HETATM   14  O1  UNL     1      18.874   8.408  25.433  1.00  0.00    -0.263 OA
ATOM     15  H1  UNL     1      21.782   9.363  25.069  1.00  0.00     0.169 HD
BRANCH  13  16
HETATM   16  C25 UNL     1      20.388   7.879  27.152  1.00  0.00     0.472 C 
HETATM   17  F1  UNL     1      21.412   6.935  27.207  1.00  0.00    -0.162 F 
HETATM   18  F2  UNL     1      19.257   7.386  27.765  1.00  0.00    -0.162 F 
HETATM   19  F3  UNL     1      20.832   8.977  27.892  1.00  0.00    -0.162 F 
ENDBRANCH  13  16
ENDBRANCH   7  12
ENDBRANCH   1   3
BRANCH   2  20
HETATM   20  C9  UNL     1      24.846   2.760  20.221  1.00  0.00     0.089 C 
HETATM   21  C10 UNL     1      26.079   3.427  19.661  1.00  0.00     0.113 C 
HETATM   22  N2  UNL     1      26.101   2.856  18.284  1.00  0.00    -0.284 NA
HETATM   23  C11 UNL     1      24.705   3.005  17.924  1.00  0.00     0.106 C 
HETATM   24  C16 UNL     1      26.605   1.540  18.428  1.00  0.00    -0.002 C 
HETATM   25  C12 UNL     1      24.080   2.272  19.019  1.00  0.00    -0.009 A 
HETATM   26  C13 UNL     1      23.128   1.266  19.181  1.00  0.00     0.018 A 
HETATM   27  C14 UNL     1      24.314   0.795  18.532  1.00  0.00     0.002 A 
HETATM   28  C15 UNL     1      25.653   0.511  19.015  1.00  0.00     0.057 C 
BRANCH  24  29
HETATM   29  C17 UNL     1      27.380   0.994  17.312  1.00  0.00    -0.017 A 
HETATM   30  C18 UNL     1      28.193   1.827  16.577  1.00  0.00     0.013 A 
HETATM   31  C19 UNL     1      28.965   1.403  15.504  1.00  0.00     0.003 A 
HETATM   32  C20 UNL     1      28.921   0.072  15.146  1.00  0.00     0.024 A 
HETATM   33  C21 UNL     1      28.117  -0.787  15.862  1.00  0.00     0.034 A 
HETATM   34 CL1  UNL     1      28.081  -2.470  15.385  1.00  0.00    -0.084 Cl
HETATM   35  C22 UNL     1      27.351  -0.323  16.940  1.00  0.00     0.036 A 
ENDBRANCH  24  29
ENDBRANCH   2  20
TORSDOF 6
ENDMDL
MODEL 3
REMARK VINA RESULT: -8.792405390      6.669     10.994
REMARK  6 active torsions:
REMARK  status: ('A' for Active; 'I' for Inactive)
REMARK       I    between atoms: C1_2  and  N1_3 
REMARK    1  A    between atoms: C1_2  and  C25_32 
REMARK    2  A    between atoms: N1_3  and  C2_5 
REMARK    3  A    between atoms: C5_8  and  O2_9 
REMARK    4  A    between atoms: C6_11  and  C7_12 
REMARK    5  A    between atoms: C8_13  and  C9_14 
REMARK    6  A    between atoms: C16_22  and  C17_23 
ROOT
HETATM    1  C7  UNL     1      23.964   3.380  20.228  1.00  0.00    -0.064 C 
HETATM    2  C8  UNL     1      23.098   3.249  21.056  1.00  0.00    -0.094 C 
ENDROOT
BRANCH   1   3
HETATM    3  C6  UNL     1      25.020   3.560  19.240  1.00  0.00     0.051 C 
HETATM    4  C5  UNL     1      24.944   4.708  18.492  1.00  0.00     0.084 C 
HETATM    5  C4  UNL     1      25.626   5.033  17.347  1.00  0.00     0.040 C 
HETATM    6  C3  UNL     1      26.691   4.335  16.762  1.00  0.00     0.032 C 
HETATM    7  C2  UNL     1      27.065   3.024  16.952  1.00  0.00     0.035 C 
HETATM    8  C24 UNL     1      26.794   2.290  18.103  1.00  0.00     0.031 C 
HETATM    9  C23 UNL     1      25.971   2.581  19.157  1.00  0.00     0.026 C 
BRANCH   4  10
HETATM   10  O2  UNL     1      24.059   5.651  18.966  1.00  0.00    -0.359 OA
ATOM     11  H2  UNL     1      23.863   5.617  19.894  1.00  0.00     0.217 HD
ENDBRANCH   4  10
BRANCH   7  12
HETATM   12  N1  UNL     1      27.701   2.439  16.011  1.00  0.00    -0.320 N 
HETATM   13  C1  UNL     1      28.611   1.400  16.306  1.00  0.00     0.330 C 
HETATM   14  O1  UNL     1      29.671   1.591  16.973  1.00  0.00    -0.263 OA
ATOM     15  H1  UNL     1      27.551   2.723  15.043  1.00  0.00     0.169 HD
BRANCH  13  16
HETATM   16  C25 UNL     1      28.336   0.031  15.829  1.00  0.00     0.472 C 
HETATM   17  F1  UNL     1      27.187  -0.510  16.404  1.00  0.00    -0.162 F 
HETATM   18  F2  UNL     1      29.415  -0.794  16.064  1.00  0.00    -0.162 F 
HETATM   19  F3  UNL     1      28.107   0.056  14.452  1.00  0.00    -0.162 F 
ENDBRANCH  13  16
ENDBRANCH   7  12
ENDBRANCH   1   3
BRANCH   2  20
HETATM   20  C9  UNL     1      22.054   3.083  22.086  1.00  0.00     0.089 C 
HETATM   21  C10 UNL     1      22.342   4.112  23.152  1.00  0.00     0.113 C 
HETATM   22  N2  UNL     1      22.283   3.265  24.378  1.00  0.00    -0.284 NA
HETATM   23  C11 UNL     1      23.061   2.124  23.937  1.00  0.00     0.106 C 
HETATM   24  C16 UNL     1      20.905   3.062  24.632  1.00  0.00    -0.002 C 
HETATM   25  C12 UNL     1      22.310   1.751  22.743  1.00  0.00    -0.009 A 
HETATM   26  C13 UNL     1      21.748   0.601  22.191  1.00  0.00     0.018 A 
HETATM   27  C14 UNL     1      21.098   0.996  23.403  1.00  0.00     0.002 A 
HETATM   28  C15 UNL     1      20.186   2.080  23.721  1.00  0.00     0.057 C 
BRANCH  24  29
HETATM   29  C17 UNL     1      20.496   2.911  26.030  1.00  0.00    -0.017 A 
HETATM   30  C18 UNL     1      21.113   1.969  26.821  1.00  0.00     0.013 A 
HETATM   31  C19 UNL     1      20.795   1.752  28.155  1.00  0.00     0.003 A 
HETATM   32  C20 UNL     1      19.805   2.521  28.729  1.00  0.00     0.024 A 
HETATM   33  C21 UNL     1      19.168   3.472  27.963  1.00  0.00     0.034 A 
HETATM   34 CL1  UNL     1      17.915   4.431  28.718  1.00  0.00    -0.084 Cl
HETATM   35  C22 UNL     1      19.515   3.663  26.619  1.00  0.00     0.036 A 
ENDBRANCH  24  29
ENDBRANCH   2  20
TORSDOF 6
ENDMDL
MODEL 4
REMARK VINA RESULT: -8.708688543      6.621     11.576
REMARK  6 active torsions:
REMARK  status: ('A' for Active; 'I' for Inactive)
REMARK       I    between atoms: C1_2  and  N1_3 
REMARK    1  A    between atoms: C1_2  and  C25_32 
REMARK    2  A    between atoms: N1_3  and  C2_5 
REMARK    3  A    between atoms: C5_8  and  O2_9 
REMARK    4  A    between atoms: C6_11  and  C7_12 
REMARK    5  A    between atoms: C8_13  and  C9_14 
REMARK    6  A    between atoms: C16_22  and  C17_23 
ROOT
HETATM    1  C7  UNL     1      25.346   4.056  19.098  1.00  0.00    -0.064 C 
HETATM    2  C8  UNL     1      24.804   4.798  19.878  1.00  0.00    -0.094 C 
ENDROOT
BRANCH   1   3
HETATM    3  C6  UNL     1      26.020   3.179  18.149  1.00  0.00     0.051 C 
HETATM    4  C5  UNL     1      26.121   1.863  18.524  1.00  0.00     0.084 C 
HETATM    5  C4  UNL     1      26.895   0.871  17.978  1.00  0.00     0.040 C 
HETATM    6  C3  UNL     1      27.645   0.929  16.794  1.00  0.00     0.032 C 
HETATM    7  C2  UNL     1      28.081   2.040  16.108  1.00  0.00     0.035 C 
HETATM    8  C24 UNL     1      27.462   3.285  16.157  1.00  0.00     0.031 C 
HETATM    9  C23 UNL     1      26.479   3.746  16.992  1.00  0.00     0.026 C 
BRANCH   4  10
HETATM   10  O2  UNL     1      25.334   1.503  19.596  1.00  0.00    -0.359 OA
ATOM     11  H2  UNL     1      25.424   2.030  20.381  1.00  0.00     0.217 HD
ENDBRANCH   4  10
BRANCH   7  12
HETATM   12  N1  UNL     1      29.124   1.924  15.380  1.00  0.00    -0.320 N 
HETATM   13  C1  UNL     1      29.000   1.719  13.989  1.00  0.00     0.330 C 
HETATM   14  O1  UNL     1      28.478   0.675  13.496  1.00  0.00    -0.263 OA
ATOM     15  H1  UNL     1      30.049   1.980  15.805  1.00  0.00     0.169 HD
BRANCH  13  16
HETATM   16  C25 UNL     1      29.491   2.749  13.052  1.00  0.00     0.472 C 
HETATM   17  F1  UNL     1      30.248   3.729  13.691  1.00  0.00    -0.162 F 
HETATM   18  F2  UNL     1      28.443   3.330  12.371  1.00  0.00    -0.162 F 
HETATM   19  F3  UNL     1      30.336   2.156  12.111  1.00  0.00    -0.162 F 
ENDBRANCH  13  16
ENDBRANCH   7  12
ENDBRANCH   1   3
BRANCH   2  20
HETATM   20  C9  UNL     1      24.158   5.705  20.847  1.00  0.00     0.089 C 
HETATM   21  C10 UNL     1      23.968   4.905  22.114  1.00  0.00     0.113 C 
HETATM   22  N2  UNL     1      22.532   5.187  22.406  1.00  0.00    -0.284 NA
HETATM   23  C11 UNL     1      21.964   5.007  21.084  1.00  0.00     0.106 C 
HETATM   24  C16 UNL     1      22.508   6.490  22.959  1.00  0.00    -0.002 C 
HETATM   25  C12 UNL     1      22.767   5.963  20.329  1.00  0.00    -0.009 A 
HETATM   26  C13 UNL     1      22.559   7.007  19.429  1.00  0.00     0.018 A 
HETATM   27  C14 UNL     1      22.054   7.305  20.735  1.00  0.00     0.002 A 
HETATM   28  C15 UNL     1      22.706   7.643  21.987  1.00  0.00     0.057 C 
BRANCH  24  29
HETATM   29  C17 UNL     1      21.466   6.780  23.946  1.00  0.00    -0.017 A 
HETATM   30  C18 UNL     1      21.043   8.077  24.128  1.00  0.00     0.013 A 
HETATM   31  C19 UNL     1      20.063   8.450  25.037  1.00  0.00     0.003 A 
HETATM   32  C20 UNL     1      19.472   7.470  25.808  1.00  0.00     0.024 A 
HETATM   33  C21 UNL     1      19.874   6.162  25.650  1.00  0.00     0.034 A 
HETATM   34 CL1  UNL     1      19.109   4.941  26.641  1.00  0.00    -0.084 Cl
HETATM   35  C22 UNL     1      20.868   5.823  24.721  1.00  0.00     0.036 A 
ENDBRANCH  24  29
ENDBRANCH   2  20
TORSDOF 6
ENDMDL
MODEL 5
REMARK VINA RESULT: -8.580381316      7.034     11.721
REMARK  6 active torsions:
REMARK  status: ('A' for Active; 'I' for Inactive)
REMARK       I    between atoms: C1_2  and  N1_3 
REMARK    1  A    between atoms: C1_2  and  C25_32 
REMARK    2  A    between atoms: N1_3  and  C2_5 
REMARK    3  A    between atoms: C5_8  and  O2_9 
REMARK    4  A    between atoms: C6_11  and  C7_12 
REMARK    5  A    between atoms: C8_13  and  C9_14 
REMARK    6  A    between atoms: C16_22  and  C17_23 
ROOT
HETATM    1  C7  UNL     1      25.499   1.273  18.760  1.00  0.00    -0.064 C 
HETATM    2  C8  UNL     1      24.661   1.764  19.473  1.00  0.00    -0.094 C 
ENDROOT
BRANCH   1   3
HETATM    3  C6  UNL     1      26.495   0.677  17.877  1.00  0.00     0.051 C 
HETATM    4  C5  UNL     1      27.562   1.478  17.558  1.00  0.00     0.084 C 
HETATM    5  C4  UNL     1      28.508   1.298  16.582  1.00  0.00     0.040 C 
HETATM    6  C3  UNL     1      28.705   0.163  15.784  1.00  0.00     0.032 C 
HETATM    7  C2  UNL     1      27.826  -0.863  15.518  1.00  0.00     0.035 C 
HETATM    8  C24 UNL     1      26.783  -1.238  16.359  1.00  0.00     0.031 C 
HETATM    9  C23 UNL     1      26.270  -0.606  17.460  1.00  0.00     0.026 C 
BRANCH   4  10
HETATM   10  O2  UNL     1      27.688   2.611  18.332  1.00  0.00    -0.359 OA
ATOM     11  H2  UNL     1      27.537   3.440  17.893  1.00  0.00     0.217 HD
ENDBRANCH   4  10
BRANCH   7  12
HETATM   12  N1  UNL     1      27.973  -1.512  14.429  1.00  0.00    -0.320 N 
HETATM   13  C1  UNL     1      27.170  -1.212  13.307  1.00  0.00     0.330 C 
HETATM   14  O1  UNL     1      25.915  -1.387  13.301  1.00  0.00    -0.263 OA
ATOM     15  H1  UNL     1      28.674  -2.250  14.368  1.00  0.00     0.169 HD
BRANCH  13  16
HETATM   16  C25 UNL     1      27.794  -0.671  12.084  1.00  0.00     0.472 C 
HETATM   17  F1  UNL     1      28.551  -1.628  11.409  1.00  0.00    -0.162 F 
HETATM   18  F2  UNL     1      28.572   0.428  12.376  1.00  0.00    -0.162 F 
HETATM   19  F3  UNL     1      26.797  -0.266  11.194  1.00  0.00    -0.162 F 
ENDBRANCH  13  16
ENDBRANCH   7  12
ENDBRANCH   1   3
BRANCH   2  20
HETATM   20  C9  UNL     1      23.635   2.386  20.333  1.00  0.00     0.089 C 
HETATM   21  C10 UNL     1      23.413   3.777  19.789  1.00  0.00     0.113 C 
HETATM   22  N2  UNL     1      23.521   4.583  21.039  1.00  0.00    -0.284 NA
HETATM   23  C11 UNL     1      24.701   3.981  21.629  1.00  0.00     0.106 C 
HETATM   24  C16 UNL     1      22.288   4.406  21.712  1.00  0.00    -0.002 C 
HETATM   25  C12 UNL     1      24.275   2.587  21.682  1.00  0.00    -0.009 A 
HETATM   26  C13 UNL     1      24.229   1.554  22.618  1.00  0.00     0.018 A 
HETATM   27  C14 UNL     1      23.347   2.630  22.952  1.00  0.00     0.002 A 
HETATM   28  C15 UNL     1      22.077   3.068  22.400  1.00  0.00     0.057 C 
BRANCH  24  29
HETATM   29  C17 UNL     1      21.803   5.523  22.527  1.00  0.00    -0.017 A 
HETATM   30  C18 UNL     1      22.120   6.813  22.169  1.00  0.00     0.013 A 
HETATM   31  C19 UNL     1      21.708   7.935  22.876  1.00  0.00     0.003 A 
HETATM   32  C20 UNL     1      20.936   7.755  24.005  1.00  0.00     0.024 A 
HETATM   33  C21 UNL     1      20.602   6.474  24.389  1.00  0.00     0.034 A 
HETATM   34 CL1  UNL     1      19.622   6.276  25.824  1.00  0.00    -0.084 Cl
HETATM   35  C22 UNL     1      21.036   5.366  23.650  1.00  0.00     0.036 A 
ENDBRANCH  24  29
ENDBRANCH   2  20
TORSDOF 6
ENDMDL
