MODEL 1
REMARK VINA RESULT: -6.606897555      0.000      0.000
REMARK  2 active torsions:
REMARK  status: ('A' for Active; 'I' for Inactive)
REMARK    1  A    between atoms: C3_3  and  C4_4 
REMARK    2  A    between atoms: C7_9  and  O2_10 
ROOT
HETATM    1  C1  UNL     1      22.981   5.811  22.393  1.00  0.00     0.017 C 
HETATM    2  C2  UNL     1      22.520   4.921  21.541  1.00  0.00    -0.056 C 
HETATM    3  C3  UNL     1      23.132   4.761  20.206  1.00  0.00     0.121 C 
HETATM    4  C6  UNL     1      22.581   3.473  19.629  1.00  0.00     0.220 C 
HETATM    5  F1  UNL     1      23.241   3.131  18.467  1.00  0.00    -0.245 F 
HETATM    6  C7  UNL     1      22.613   2.334  20.630  1.00  0.00     0.099 C 
HETATM    7  C8  UNL     1      24.022   2.126  21.040  1.00  0.00     0.042 C 
HETATM    8  C9  UNL     1      24.159   1.189  22.254  1.00  0.00     0.009 C 
HETATM    9  C10 UNL     1      23.427   1.862  23.359  1.00  0.00    -0.001 C 
HETATM   10  C11 UNL     1      21.967   1.872  23.018  1.00  0.00     0.003 C 
HETATM   11  C12 UNL     1      21.460   0.459  22.976  1.00  0.00     0.006 C 
HETATM   12  C13 UNL     1      21.995  -0.437  24.022  1.00  0.00     0.007 C 
HETATM   13  C14 UNL     1      22.753   0.200  25.122  1.00  0.00     0.011 C 
HETATM   14  C15 UNL     1      23.676  -0.852  25.722  1.00  0.00     0.096 C 
HETATM   15 BR1  UNL     1      22.810  -1.844  27.121  1.00  0.00    -0.088 Br
HETATM   16  C16 UNL     1      24.833  -0.042  26.213  1.00  0.00     0.185 C 
HETATM   17  F2  UNL     1      25.973  -0.828  26.281  1.00  0.00    -0.248 F 
HETATM   18  C17 UNL     1      25.044   0.924  25.040  1.00  0.00     0.048 C 
HETATM   19  C18 UNL     1      23.642   1.329  24.726  1.00  0.00    -0.033 C 
HETATM   20  C19 UNL     1      23.330   2.488  25.693  1.00  0.00     0.016 C 
HETATM   21  C20 UNL     1      21.636   2.583  21.735  1.00  0.00     0.014 C 
HETATM   22  C21 UNL     1      20.300   1.992  21.243  1.00  0.00     0.020 C 
HETATM   23  C22 UNL     1      21.373   4.064  21.908  1.00  0.00     0.122 C 
HETATM   24 CL1  UNL     1      20.732   4.456  23.516  1.00  0.00    -0.119 Cl
ENDROOT
BRANCH   3  25
HETATM   25  C4  UNL     1      22.764   5.866  19.278  1.00  0.00     0.134 C 
HETATM   26  C5  UNL     1      23.664   6.243  18.154  1.00  0.00     0.091 C 
HETATM   27  O1  UNL     1      21.727   6.495  19.403  1.00  0.00    -0.298 OA
ENDBRANCH   3  25
BRANCH   6  28
HETATM   28  O2  UNL     1      22.230   1.192  19.883  1.00  0.00    -0.386 OA
ATOM     29  H2  UNL     1      21.311   1.068  20.092  1.00  0.00     0.210 HD
ENDBRANCH   6  28
TORSDOF 2
ENDMDL
MODEL 2
REMARK VINA RESULT: -6.072986604      4.170      6.130
REMARK  2 active torsions:
REMARK  status: ('A' for Active; 'I' for Inactive)
REMARK    1  A    between atoms: C3_3  and  C4_4 
REMARK    2  A    between atoms: C7_9  and  O2_10 
ROOT
HETATM    1  C1  UNL     1      24.240   5.198  18.480  1.00  0.00     0.017 C 
HETATM    2  C2  UNL     1      23.752   4.459  19.453  1.00  0.00    -0.056 C 
HETATM    3  C3  UNL     1      22.305   4.452  19.746  1.00  0.00     0.121 C 
HETATM    4  C6  UNL     1      22.059   3.288  20.685  1.00  0.00     0.220 C 
HETATM    5  F1  UNL     1      20.708   3.074  20.862  1.00  0.00    -0.245 F 
HETATM    6  C7  UNL     1      22.756   2.021  20.224  1.00  0.00     0.099 C 
HETATM    7  C8  UNL     1      22.244   1.684  18.875  1.00  0.00     0.042 C 
HETATM    8  C9  UNL     1      23.066   0.582  18.182  1.00  0.00     0.009 C 
HETATM    9  C10 UNL     1      24.440   1.135  18.054  1.00  0.00    -0.001 C 
HETATM   10  C11 UNL     1      25.022   1.271  19.429  1.00  0.00     0.003 C 
HETATM   11  C12 UNL     1      25.172  -0.093  20.039  1.00  0.00     0.006 C 
HETATM   12  C13 UNL     1      25.630  -1.153  19.115  1.00  0.00     0.007 C 
HETATM   13  C14 UNL     1      26.123  -0.716  17.791  1.00  0.00     0.011 C 
HETATM   14  C15 UNL     1      25.981  -1.889  16.829  1.00  0.00     0.096 C 
HETATM   15 BR1  UNL     1      27.537  -3.015  16.848  1.00  0.00    -0.088 Br
HETATM   16  C16 UNL     1      25.763  -1.218  15.512  1.00  0.00     0.185 C 
HETATM   17  F2  UNL     1      25.086  -2.066  14.649  1.00  0.00    -0.248 F 
HETATM   18  C17 UNL     1      24.772  -0.112  15.896  1.00  0.00     0.048 C 
HETATM   19  C18 UNL     1      25.374   0.408  17.160  1.00  0.00    -0.033 C 
HETATM   20  C19 UNL     1      26.428   1.438  16.711  1.00  0.00     0.016 C 
HETATM   21  C20 UNL     1      24.239   2.168  20.347  1.00  0.00     0.014 C 
HETATM   22  C21 UNL     1      24.578   1.724  21.783  1.00  0.00     0.020 C 
HETATM   23  C22 UNL     1      24.652   3.623  20.275  1.00  0.00     0.122 C 
HETATM   24 CL1  UNL     1      26.355   3.825  19.819  1.00  0.00    -0.119 Cl
ENDROOT
BRANCH   3  25
HETATM   25  C4  UNL     1      21.861   5.693  20.441  1.00  0.00     0.134 C 
HETATM   26  C5  UNL     1      21.742   6.977  19.697  1.00  0.00     0.091 C 
HETATM   27  O1  UNL     1      21.583   5.703  21.628  1.00  0.00    -0.298 OA
ENDBRANCH   3  25
BRANCH   6  28
HETATM   28  O2  UNL     1      22.287   1.016  21.106  1.00  0.00    -0.386 OA
ATOM     29  H2  UNL     1      22.673   1.236  21.946  1.00  0.00     0.210 HD
ENDBRANCH   6  28
TORSDOF 2
ENDMDL
MODEL 3
REMARK VINA RESULT: -6.067945724      3.565      5.517
REMARK  2 active torsions:
REMARK  status: ('A' for Active; 'I' for Inactive)
REMARK    1  A    between atoms: C3_3  and  C4_4 
REMARK    2  A    between atoms: C7_9  and  O2_10 
ROOT
HETATM    1  C1  UNL     1      23.955  -1.480  18.936  1.00  0.00     0.017 C 
HETATM    2  C2  UNL     1      24.408  -0.276  18.662  1.00  0.00    -0.056 C 
HETATM    3  C3  UNL     1      24.300   0.282  17.298  1.00  0.00     0.121 C 
HETATM    4  C6  UNL     1      24.617   1.759  17.410  1.00  0.00     0.220 C 
HETATM    5  F1  UNL     1      24.350   2.412  16.224  1.00  0.00    -0.245 F 
HETATM    6  C7  UNL     1      23.892   2.418  18.569  1.00  0.00     0.099 C 
HETATM    7  C8  UNL     1      22.437   2.241  18.356  1.00  0.00     0.042 C 
HETATM    8  C9  UNL     1      21.602   2.618  19.593  1.00  0.00     0.009 C 
HETATM    9  C10 UNL     1      22.050   1.696  20.670  1.00  0.00    -0.001 C 
HETATM   10  C11 UNL     1      23.468   2.034  21.019  1.00  0.00     0.003 C 
HETATM   11  C12 UNL     1      23.517   3.418  21.602  1.00  0.00     0.006 C 
HETATM   12  C13 UNL     1      22.402   3.762  22.511  1.00  0.00     0.007 C 
HETATM   13  C14 UNL     1      21.522   2.650  22.936  1.00  0.00     0.011 C 
HETATM   14  C15 UNL     1      20.179   3.246  23.336  1.00  0.00     0.096 C 
HETATM   15 BR1  UNL     1      20.150   3.754  25.189  1.00  0.00    -0.088 Br
HETATM   16  C16 UNL     1      19.217   2.148  23.019  1.00  0.00     0.185 C 
HETATM   17  F2  UNL     1      17.952   2.669  22.795  1.00  0.00    -0.248 F 
HETATM   18  C17 UNL     1      19.737   1.675  21.655  1.00  0.00     0.048 C 
HETATM   19  C18 UNL     1      21.210   1.635  21.891  1.00  0.00    -0.033 C 
HETATM   20  C19 UNL     1      21.479   0.257  22.528  1.00  0.00     0.016 C 
HETATM   21  C20 UNL     1      24.432   1.920  19.871  1.00  0.00     0.014 C 
HETATM   22  C21 UNL     1      25.618   2.845  20.205  1.00  0.00     0.020 C 
HETATM   23  C22 UNL     1      25.038   0.540  19.720  1.00  0.00     0.122 C 
HETATM   24 CL1  UNL     1      25.142  -0.329  21.263  1.00  0.00    -0.119 Cl
ENDROOT
BRANCH   3  25
HETATM   25  C4  UNL     1      25.285  -0.321  16.359  1.00  0.00     0.134 C 
HETATM   26  C5  UNL     1      26.691   0.167  16.317  1.00  0.00     0.091 C 
HETATM   27  O1  UNL     1      24.981  -1.225  15.598  1.00  0.00    -0.298 OA
ENDBRANCH   3  25
BRANCH   6  28
HETATM   28  O2  UNL     1      24.165   3.801  18.420  1.00  0.00    -0.386 OA
ATOM     29  H2  UNL     1      23.406   4.235  18.793  1.00  0.00     0.210 HD
ENDBRANCH   6  28
TORSDOF 2
ENDMDL
MODEL 4
REMARK VINA RESULT: -5.739410618      3.968      6.872
REMARK  2 active torsions:
REMARK  status: ('A' for Active; 'I' for Inactive)
REMARK    1  A    between atoms: C3_3  and  C4_4 
REMARK    2  A    between atoms: C7_9  and  O2_10 
ROOT
HETATM    1  C1  UNL     1      23.642   1.950  25.651  1.00  0.00     0.017 C 
HETATM    2  C2  UNL     1      23.238   0.702  25.547  1.00  0.00    -0.056 C 
HETATM    3  C3  UNL     1      21.900   0.297  26.022  1.00  0.00     0.121 C 
HETATM    4  C6  UNL     1      21.649  -1.093  25.474  1.00  0.00     0.220 C 
HETATM    5  F1  UNL     1      20.345  -1.483  25.696  1.00  0.00    -0.245 F 
HETATM    6  C7  UNL     1      22.010  -1.206  24.004  1.00  0.00     0.099 C 
HETATM    7  C8  UNL     1      21.188  -0.226  23.256  1.00  0.00     0.042 C 
HETATM    8  C9  UNL     1      21.652  -0.045  21.800  1.00  0.00     0.009 C 
HETATM    9  C10 UNL     1      23.047   0.461  21.889  1.00  0.00    -0.001 C 
HETATM   10  C11 UNL     1      23.907  -0.629  22.456  1.00  0.00     0.003 C 
HETATM   11  C12 UNL     1      23.937  -1.784  21.496  1.00  0.00     0.006 C 
HETATM   12  C13 UNL     1      24.011  -1.417  20.065  1.00  0.00     0.007 C 
HETATM   13  C14 UNL     1      24.297   0.001  19.755  1.00  0.00     0.011 C 
HETATM   14  C15 UNL     1      23.765   0.289  18.357  1.00  0.00     0.096 C 
HETATM   15 BR1  UNL     1      25.075  -0.095  17.005  1.00  0.00    -0.088 Br
HETATM   16  C16 UNL     1      23.408   1.738  18.427  1.00  0.00     0.185 C 
HETATM   17  F2  UNL     1      22.436   2.038  17.484  1.00  0.00    -0.248 F 
HETATM   18  C17 UNL     1      22.720   1.815  19.796  1.00  0.00     0.048 C 
HETATM   19  C18 UNL     1      23.643   1.003  20.643  1.00  0.00    -0.033 C 
HETATM   20  C19 UNL     1      24.749   1.981  21.087  1.00  0.00     0.016 C 
HETATM   21  C20 UNL     1      23.490  -1.099  23.822  1.00  0.00     0.014 C 
HETATM   22  C21 UNL     1      24.028  -2.535  23.971  1.00  0.00     0.020 C 
HETATM   23  C22 UNL     1      24.126  -0.320  24.954  1.00  0.00     0.122 C 
HETATM   24 CL1  UNL     1      25.712   0.344  24.516  1.00  0.00    -0.119 Cl
ENDROOT
BRANCH   3  25
HETATM   25  C4  UNL     1      21.825   0.217  27.507  1.00  0.00     0.134 C 
HETATM   26  C5  UNL     1      20.779   0.966  28.255  1.00  0.00     0.091 C 
HETATM   27  O1  UNL     1      22.608  -0.455  28.157  1.00  0.00    -0.298 OA
ENDBRANCH   3  25
BRANCH   6  28
HETATM   28  O2  UNL     1      21.560  -2.495  23.625  1.00  0.00    -0.386 OA
ATOM     29  H2  UNL     1      20.767  -2.334  23.126  1.00  0.00     0.210 HD
ENDBRANCH   6  28
TORSDOF 2
ENDMDL
MODEL 5
REMARK VINA RESULT: -5.619933085      3.422      6.806
REMARK  2 active torsions:
REMARK  status: ('A' for Active; 'I' for Inactive)
REMARK    1  A    between atoms: C3_3  and  C4_4 
REMARK    2  A    between atoms: C7_9  and  O2_10 
ROOT
HETATM    1  C1  UNL     1      21.765  -2.130  23.405  1.00  0.00     0.017 C 
HETATM    2  C2  UNL     1      21.844  -0.994  24.062  1.00  0.00    -0.056 C 
HETATM    3  C3  UNL     1      22.681  -0.876  25.273  1.00  0.00     0.121 C 
HETATM    4  C6  UNL     1      22.790   0.604  25.581  1.00  0.00     0.220 C 
HETATM    5  F1  UNL     1      23.715   0.833  26.578  1.00  0.00    -0.245 F 
HETATM    6  C7  UNL     1      23.106   1.427  24.345  1.00  0.00     0.099 C 
HETATM    7  C8  UNL     1      24.391   0.943  23.791  1.00  0.00     0.042 C 
HETATM    8  C9  UNL     1      24.686   1.503  22.388  1.00  0.00     0.009 C 
HETATM    9  C10 UNL     1      23.574   1.020  21.527  1.00  0.00    -0.001 C 
HETATM   10  C11 UNL     1      22.309   1.689  21.973  1.00  0.00     0.003 C 
HETATM   11  C12 UNL     1      22.419   3.167  21.729  1.00  0.00     0.006 C 
HETATM   12  C13 UNL     1      23.085   3.553  20.466  1.00  0.00     0.007 C 
HETATM   13  C14 UNL     1      23.333   2.472  19.487  1.00  0.00     0.011 C 
HETATM   14  C15 UNL     1      24.485   2.910  18.592  1.00  0.00     0.096 C 
HETATM   15 BR1  UNL     1      23.864   3.911  17.074  1.00  0.00    -0.088 Br
HETATM   16  C16 UNL     1      25.126   1.615  18.212  1.00  0.00     0.185 C 
HETATM   17  F2  UNL     1      26.456   1.819  17.877  1.00  0.00    -0.248 F 
HETATM   18  C17 UNL     1      25.128   0.873  19.555  1.00  0.00     0.048 C 
HETATM   19  C18 UNL     1      23.753   1.162  20.061  1.00  0.00    -0.033 C 
HETATM   20  C19 UNL     1      22.851   0.093  19.414  1.00  0.00     0.016 C 
HETATM   21  C20 UNL     1      21.942   1.424  23.406  1.00  0.00     0.014 C 
HETATM   22  C21 UNL     1      21.051   2.601  23.852  1.00  0.00     0.020 C 
HETATM   23  C22 UNL     1      21.088   0.188  23.598  1.00  0.00     0.122 C 
HETATM   24 CL1  UNL     1      20.087  -0.173  22.179  1.00  0.00    -0.119 Cl
ENDROOT
BRANCH   3  25
HETATM   25  C4  UNL     1      22.065  -1.538  26.456  1.00  0.00     0.134 C 
HETATM   26  C5  UNL     1      20.861  -0.955  27.109  1.00  0.00     0.091 C 
HETATM   27  O1  UNL     1      22.518  -2.568  26.927  1.00  0.00    -0.298 OA
ENDBRANCH   3  25
BRANCH   6  28
HETATM   28  O2  UNL     1      23.337   2.735  24.838  1.00  0.00    -0.386 OA
ATOM     29  H2  UNL     1      23.670   3.217  24.090  1.00  0.00     0.210 HD
ENDBRANCH   6  28
TORSDOF 2
ENDMDL
