MODEL 1
REMARK VINA RESULT: -8.979663966      0.000      0.000
REMARK  17 active torsions:
REMARK  status: ('A' for Active; 'I' for Inactive)
REMARK    1  A    between atoms: C2_2  and  C4_4 
REMARK    2  A    between atoms: C4_4  and  C5_5 
REMARK    3  A    between atoms: C5_5  and  O1_6 
REMARK    4  A    between atoms: C5_5  and  C6_8 
REMARK    5  A    between atoms: C17_23  and  N2_24 
REMARK       I    between atoms: N2_24  and  C18_26 
REMARK    6  A    between atoms: C18_26  and  C19_28 
REMARK    7  A    between atoms: C19_28  and  C20_29 
REMARK    8  A    between atoms: C20_29  and  C21_30 
REMARK    9  A    between atoms: C22_31  and  C23_32 
REMARK   10  A    between atoms: C24_33  and  C25_34 
REMARK   11  A    between atoms: N3_35  and  C26_36 
REMARK   12  A    between atoms: C26_36  and  C27_37 
REMARK   13  A    between atoms: C27_37  and  C28_38 
REMARK   14  A    between atoms: C28_38  and  O5_39 
REMARK   15  A    between atoms: O5_39  and  N4_40 
REMARK   16  A    between atoms: N4_40  and  O6_42 
REMARK   17  A    between atoms: C30_46  and  S1_48 
ROOT
HETATM    1  N2  UNL     1      -8.011  16.217  26.492  1.00  0.00    -0.344 N 
ATOM      2  H2  UNL     1      -9.031  16.186  26.493  1.00  0.00     0.164 HD
HETATM    3  C18 UNL     1      -7.332  15.883  27.665  1.00  0.00     0.249 C 
HETATM    4  O4  UNL     1      -6.042  15.912  27.685  1.00  0.00    -0.268 OA
ENDROOT
BRANCH   1   5
HETATM    5  C17 UNL     1      -7.309  16.621  25.228  1.00  0.00     0.147 C 
HETATM    6  C16 UNL     1      -8.432  17.350  24.491  1.00  0.00     0.036 C 
HETATM    7  C15 UNL     1      -9.577  16.486  24.106  1.00  0.00     0.004 C 
HETATM    8  C14 UNL     1      -9.467  15.817  22.769  1.00  0.00     0.020 C 
HETATM    9  C13 UNL     1      -8.926  16.678  21.686  1.00  0.00     0.125 C 
HETATM   10  N1  UNL     1      -9.539  16.522  20.396  1.00  0.00    -0.337 N 
HETATM   11  C12 UNL     1      -8.775  16.191  19.248  1.00  0.00     0.360 C 
ATOM     12  H1  UNL     1     -10.547  16.653  20.303  1.00  0.00     0.164 HD
HETATM   13  O2  UNL     1      -7.422  16.456  19.150  1.00  0.00    -0.304 OA
HETATM   14  O3  UNL     1      -9.411  15.625  18.301  1.00  0.00    -0.239 OA
HETATM   15  C11 UNL     1      -6.815  17.705  19.444  1.00  0.00     0.180 C 
HETATM   16  C10 UNL     1      -5.416  17.524  19.954  1.00  0.00     0.027 C 
HETATM   17  C9  UNL     1      -4.891  18.666  20.762  1.00  0.00     0.002 C 
HETATM   18  C8  UNL     1      -5.550  18.835  22.115  1.00  0.00     0.001 C 
HETATM   19  C7  UNL     1      -5.148  17.849  23.118  1.00  0.00     0.018 C 
HETATM   20  C6  UNL     1      -4.819  18.223  24.474  1.00  0.00     0.078 C 
HETATM   21  S2  UNL     1      -6.099  17.793  25.728  1.00  0.00    -0.136 SA
BRANCH  20  22
HETATM   22  C5  UNL     1      -4.444  19.597  24.845  1.00  0.00     0.132 C 
BRANCH  22  23
HETATM   23  C4  UNL     1      -3.389  20.365  24.219  1.00  0.00     0.037 C 
BRANCH  23  24
HETATM   24  C2  UNL     1      -2.069  19.848  23.887  1.00  0.00    -0.020 C 
HETATM   25  C1  UNL     1      -1.799  19.415  22.474  1.00  0.00     0.009 C 
HETATM   26  C3  UNL     1      -1.508  18.813  24.824  1.00  0.00     0.009 C 
ENDBRANCH  23  24
ENDBRANCH  22  23
BRANCH  22  27
HETATM   27  O1  UNL     1      -5.613  20.442  24.880  1.00  0.00    -0.394 OA
ATOM     28  H1  UNL     1      -6.355  19.895  24.653  1.00  0.00     0.210 HD
ENDBRANCH  22  27
ENDBRANCH  20  22
ENDBRANCH   1   5
BRANCH   3  29
HETATM   29  C19 UNL     1      -7.988  15.500  28.890  1.00  0.00     0.129 C 
BRANCH  29  30
HETATM   30  C20 UNL     1      -8.417  16.178  29.888  1.00  0.00    -0.123 C 
BRANCH  30  31
HETATM   31  C21 UNL     1      -8.874  16.901  30.961  1.00  0.00     0.055 C 
HETATM   32  C22 UNL     1      -9.757  16.429  31.862  1.00  0.00     0.008 C 
BRANCH  32  33
HETATM   33  C23 UNL     1     -10.263  15.080  31.710  1.00  0.00    -0.001 C 
HETATM   34  C24 UNL     1     -11.310  14.909  30.878  1.00  0.00     0.000 C 
BRANCH  34  35
HETATM   35  C25 UNL     1     -11.932  13.625  30.623  1.00  0.00     0.140 C 
HETATM   36  N3  UNL     1     -12.596  13.342  29.398  1.00  0.00    -0.340 N 
HETATM   37  C29 UNL     1     -13.864  13.738  29.918  1.00  0.00     0.243 C 
HETATM   38  O7  UNL     1     -14.979  14.098  29.501  1.00  0.00    -0.271 OA
HETATM   39  C30 UNL     1     -13.279  13.537  31.289  1.00  0.00     0.138 C 
HETATM   40  C31 UNL     1     -13.607  12.169  31.862  1.00  0.00     0.042 C 
BRANCH  36  41
HETATM   41  C26 UNL     1     -12.233  12.838  28.105  1.00  0.00     0.129 C 
BRANCH  41  42
HETATM   42  C27 UNL     1     -11.182  13.739  27.500  1.00  0.00     0.049 C 
BRANCH  42  43
HETATM   43  C28 UNL     1     -11.851  15.054  27.088  1.00  0.00     0.205 C 
BRANCH  43  44
HETATM   44  O5  UNL     1     -11.087  16.180  27.436  1.00  0.00    -0.260 OA
BRANCH  44  45
HETATM   45  N4  UNL     1     -11.675  17.200  28.132  1.00  0.00    -0.174 N 
ATOM     46  H4  UNL     1     -12.438  17.003  28.780  1.00  0.00     0.223 HD
BRANCH  45  47
HETATM   47  O6  UNL     1     -11.277  18.369  27.973  1.00  0.00    -0.269 OA
ATOM     48  H6  UNL     1     -11.869  19.029  27.631  1.00  0.00     0.246 HD
ENDBRANCH  45  47
ENDBRANCH  44  45
ENDBRANCH  43  44
ENDBRANCH  42  43
ENDBRANCH  41  42
ENDBRANCH  36  41
BRANCH  39  49
HETATM   49  S1  UNL     1     -13.784  14.875  32.332  1.00  0.00     0.031 S 
HETATM   50  C32 UNL     1     -13.097  14.521  33.965  1.00  0.00     0.128 C 
HETATM   51  O8  UNL     1     -15.476  14.728  32.578  1.00  0.00    -0.257 OA
ENDBRANCH  39  49
ENDBRANCH  34  35
ENDBRANCH  32  33
ENDBRANCH  30  31
ENDBRANCH  29  30
ENDBRANCH   3  29
TORSDOF 17
ENDMDL
MODEL 2
REMARK VINA RESULT: -8.972531265      1.818      2.816
REMARK  17 active torsions:
REMARK  status: ('A' for Active; 'I' for Inactive)
REMARK    1  A    between atoms: C2_2  and  C4_4 
REMARK    2  A    between atoms: C4_4  and  C5_5 
REMARK    3  A    between atoms: C5_5  and  O1_6 
REMARK    4  A    between atoms: C5_5  and  C6_8 
REMARK    5  A    between atoms: C17_23  and  N2_24 
REMARK       I    between atoms: N2_24  and  C18_26 
REMARK    6  A    between atoms: C18_26  and  C19_28 
REMARK    7  A    between atoms: C19_28  and  C20_29 
REMARK    8  A    between atoms: C20_29  and  C21_30 
REMARK    9  A    between atoms: C22_31  and  C23_32 
REMARK   10  A    between atoms: C24_33  and  C25_34 
REMARK   11  A    between atoms: N3_35  and  C26_36 
REMARK   12  A    between atoms: C26_36  and  C27_37 
REMARK   13  A    between atoms: C27_37  and  C28_38 
REMARK   14  A    between atoms: C28_38  and  O5_39 
REMARK   15  A    between atoms: O5_39  and  N4_40 
REMARK   16  A    between atoms: N4_40  and  O6_42 
REMARK   17  A    between atoms: C30_46  and  S1_48 
ROOT
HETATM    1  N2  UNL     1      -8.460  16.112  26.391  1.00  0.00    -0.344 N 
ATOM      2  H2  UNL     1      -8.727  16.855  27.037  1.00  0.00     0.164 HD
HETATM    3  C18 UNL     1      -8.866  14.806  26.673  1.00  0.00     0.249 C 
HETATM    4  O4  UNL     1      -8.543  13.850  25.869  1.00  0.00    -0.268 OA
ENDROOT
BRANCH   1   5
HETATM    5  C17 UNL     1      -7.648  16.472  25.182  1.00  0.00     0.147 C 
HETATM    6  C16 UNL     1      -8.672  17.260  24.366  1.00  0.00     0.036 C 
HETATM    7  C15 UNL     1      -9.833  16.460  23.899  1.00  0.00     0.004 C 
HETATM    8  C14 UNL     1      -9.664  15.782  22.572  1.00  0.00     0.020 C 
HETATM    9  C13 UNL     1      -8.999  16.608  21.532  1.00  0.00     0.125 C 
HETATM   10  N1  UNL     1      -9.526  16.483  20.201  1.00  0.00    -0.337 N 
HETATM   11  C12 UNL     1      -8.702  16.105  19.111  1.00  0.00     0.360 C 
ATOM     12  H1  UNL     1     -10.516  16.670  20.037  1.00  0.00     0.164 HD
HETATM   13  O2  UNL     1      -7.333  16.294  19.111  1.00  0.00    -0.304 OA
HETATM   14  O3  UNL     1      -9.299  15.573  18.121  1.00  0.00    -0.239 OA
HETATM   15  C11 UNL     1      -6.679  17.508  19.449  1.00  0.00     0.180 C 
HETATM   16  C10 UNL     1      -5.332  17.251  20.058  1.00  0.00     0.027 C 
HETATM   17  C9  UNL     1      -4.803  18.364  20.903  1.00  0.00     0.002 C 
HETATM   18  C8  UNL     1      -5.548  18.574  22.205  1.00  0.00     0.001 C 
HETATM   19  C7  UNL     1      -5.275  17.570  23.234  1.00  0.00     0.018 C 
HETATM   20  C6  UNL     1      -5.024  17.929  24.610  1.00  0.00     0.078 C 
HETATM   21  S2  UNL     1      -6.413  17.576  25.768  1.00  0.00    -0.136 SA
BRANCH  20  22
HETATM   22  C5  UNL     1      -4.600  19.281  25.009  1.00  0.00     0.132 C 
BRANCH  22  23
HETATM   23  C4  UNL     1      -3.653  20.100  24.281  1.00  0.00     0.037 C 
BRANCH  23  24
HETATM   24  C2  UNL     1      -2.279  19.720  23.988  1.00  0.00    -0.020 C 
HETATM   25  C1  UNL     1      -1.900  19.428  22.563  1.00  0.00     0.009 C 
HETATM   26  C3  UNL     1      -1.681  18.659  24.872  1.00  0.00     0.009 C 
ENDBRANCH  23  24
ENDBRANCH  22  23
BRANCH  22  27
HETATM   27  O1  UNL     1      -5.752  20.109  25.273  1.00  0.00    -0.394 OA
ATOM     28  H1  UNL     1      -6.515  19.546  25.211  1.00  0.00     0.210 HD
ENDBRANCH  22  27
ENDBRANCH  20  22
ENDBRANCH   1   5
BRANCH   3  29
HETATM   29  C19 UNL     1      -9.639  14.439  27.833  1.00  0.00     0.129 C 
BRANCH  29  30
HETATM   30  C20 UNL     1     -10.814  13.949  27.968  1.00  0.00    -0.123 C 
BRANCH  30  31
HETATM   31  C21 UNL     1     -12.075  13.425  28.107  1.00  0.00     0.055 C 
HETATM   32  C22 UNL     1     -12.927  13.772  29.090  1.00  0.00     0.008 C 
BRANCH  32  33
HETATM   33  C23 UNL     1     -12.509  14.758  30.066  1.00  0.00    -0.001 C 
HETATM   34  C24 UNL     1     -12.301  14.324  31.325  1.00  0.00     0.000 C 
BRANCH  34  35
HETATM   35  C25 UNL     1     -11.886  15.185  32.415  1.00  0.00     0.140 C 
HETATM   36  N3  UNL     1     -10.535  15.602  32.570  1.00  0.00    -0.340 N 
HETATM   37  C29 UNL     1     -10.234  14.518  33.447  1.00  0.00     0.243 C 
HETATM   38  O7  UNL     1      -9.240  13.901  33.868  1.00  0.00    -0.271 OA
HETATM   39  C30 UNL     1     -11.714  14.399  33.687  1.00  0.00     0.138 C 
HETATM   40  C31 UNL     1     -12.156  15.134  34.941  1.00  0.00     0.042 C 
BRANCH  36  41
HETATM   41  C26 UNL     1      -9.713  16.677  32.096  1.00  0.00     0.129 C 
BRANCH  41  42
HETATM   42  C27 UNL     1      -9.188  16.329  30.723  1.00  0.00     0.049 C 
BRANCH  42  43
HETATM   43  C28 UNL     1      -9.553  17.465  29.762  1.00  0.00     0.205 C 
BRANCH  43  44
HETATM   44  O5  UNL     1     -10.874  17.373  29.294  1.00  0.00    -0.260 OA
BRANCH  44  45
HETATM   45  N4  UNL     1     -11.286  18.197  28.284  1.00  0.00    -0.174 N 
ATOM     46  H4  UNL     1     -12.209  18.631  28.323  1.00  0.00     0.223 HD
BRANCH  45  47
HETATM   47  O6  UNL     1     -10.533  18.417  27.317  1.00  0.00    -0.269 OA
ATOM     48  H6  UNL     1     -10.132  17.691  26.854  1.00  0.00     0.246 HD
ENDBRANCH  45  47
ENDBRANCH  44  45
ENDBRANCH  43  44
ENDBRANCH  42  43
ENDBRANCH  41  42
ENDBRANCH  36  41
BRANCH  39  49
HETATM   49  S1  UNL     1     -12.162  12.687  33.679  1.00  0.00     0.031 S 
HETATM   50  C32 UNL     1     -13.898  12.625  34.176  1.00  0.00     0.128 C 
HETATM   51  O8  UNL     1     -11.351  11.935  34.991  1.00  0.00    -0.257 OA
ENDBRANCH  39  49
ENDBRANCH  34  35
ENDBRANCH  32  33
ENDBRANCH  30  31
ENDBRANCH  29  30
ENDBRANCH   3  29
TORSDOF 17
ENDMDL
MODEL 3
REMARK VINA RESULT: -8.949916423      2.640     11.681
REMARK  17 active torsions:
REMARK  status: ('A' for Active; 'I' for Inactive)
REMARK    1  A    between atoms: C2_2  and  C4_4 
REMARK    2  A    between atoms: C4_4  and  C5_5 
REMARK    3  A    between atoms: C5_5  and  O1_6 
REMARK    4  A    between atoms: C5_5  and  C6_8 
REMARK    5  A    between atoms: C17_23  and  N2_24 
REMARK       I    between atoms: N2_24  and  C18_26 
REMARK    6  A    between atoms: C18_26  and  C19_28 
REMARK    7  A    between atoms: C19_28  and  C20_29 
REMARK    8  A    between atoms: C20_29  and  C21_30 
REMARK    9  A    between atoms: C22_31  and  C23_32 
REMARK   10  A    between atoms: C24_33  and  C25_34 
REMARK   11  A    between atoms: N3_35  and  C26_36 
REMARK   12  A    between atoms: C26_36  and  C27_37 
REMARK   13  A    between atoms: C27_37  and  C28_38 
REMARK   14  A    between atoms: C28_38  and  O5_39 
REMARK   15  A    between atoms: O5_39  and  N4_40 
REMARK   16  A    between atoms: N4_40  and  O6_42 
REMARK   17  A    between atoms: C30_46  and  S1_48 
ROOT
HETATM    1  N2  UNL     1      -9.758  15.375  28.388  1.00  0.00    -0.344 N 
ATOM      2  H2  UNL     1     -10.279  15.962  27.736  1.00  0.00     0.164 HD
HETATM    3  C18 UNL     1      -8.416  15.102  28.113  1.00  0.00     0.249 C 
HETATM    4  O4  UNL     1      -7.736  14.367  28.926  1.00  0.00    -0.268 OA
ENDROOT
BRANCH   1   5
HETATM    5  C17 UNL     1     -10.468  14.844  29.598  1.00  0.00     0.147 C 
HETATM    6  C16 UNL     1     -10.640  16.121  30.420  1.00  0.00     0.036 C 
HETATM    7  C15 UNL     1      -9.367  16.730  30.883  1.00  0.00     0.004 C 
HETATM    8  C14 UNL     1      -8.856  16.242  32.205  1.00  0.00     0.020 C 
HETATM    9  C13 UNL     1      -9.899  16.072  33.250  1.00  0.00     0.125 C 
HETATM   10  N1  UNL     1      -9.523  16.462  34.581  1.00  0.00    -0.337 N 
HETATM   11  C12 UNL     1      -9.600  15.555  35.667  1.00  0.00     0.360 C 
ATOM     12  H1  UNL     1      -9.193  17.413  34.747  1.00  0.00     0.164 HD
HETATM   13  O2  UNL     1     -10.443  14.460  35.668  1.00  0.00    -0.304 OA
HETATM   14  O3  UNL     1      -8.837  15.804  36.656  1.00  0.00    -0.239 OA
HETATM   15  C11 UNL     1     -11.823  14.496  35.336  1.00  0.00     0.180 C 
HETATM   16  C10 UNL     1     -12.271  13.202  34.724  1.00  0.00     0.027 C 
HETATM   17  C9  UNL     1     -13.504  13.299  33.885  1.00  0.00     0.002 C 
HETATM   18  C8  UNL     1     -13.322  14.054  32.585  1.00  0.00     0.001 C 
HETATM   19  C7  UNL     1     -12.590  13.323  31.550  1.00  0.00     0.018 C 
HETATM   20  C6  UNL     1     -13.033  13.288  30.175  1.00  0.00     0.078 C 
HETATM   21  S2  UNL     1     -12.042  14.322  29.017  1.00  0.00    -0.136 SA
BRANCH  20  22
HETATM   22  C5  UNL     1     -14.420  13.593  29.784  1.00  0.00     0.132 C 
BRANCH  22  23
HETATM   23  C4  UNL     1     -15.598  13.156  30.503  1.00  0.00     0.037 C 
BRANCH  23  24
HETATM   24  C2  UNL     1     -15.945  11.766  30.761  1.00  0.00    -0.020 C 
HETATM   25  C1  UNL     1     -15.924  11.269  32.180  1.00  0.00     0.009 C 
HETATM   26  C3  UNL     1     -15.281  10.742  29.882  1.00  0.00     0.009 C 
ENDBRANCH  23  24
ENDBRANCH  22  23
BRANCH  22  27
HETATM   27  O1  UNL     1     -14.573  15.009  29.551  1.00  0.00    -0.394 OA
ATOM     28  H1  UNL     1     -13.751  15.319  29.189  1.00  0.00     0.210 HD
ENDBRANCH  22  27
ENDBRANCH  20  22
ENDBRANCH   1   5
BRANCH   3  29
HETATM   29  C19 UNL     1      -7.719  15.597  26.952  1.00  0.00     0.129 C 
BRANCH  29  30
HETATM   30  C20 UNL     1      -6.692  16.348  26.817  1.00  0.00    -0.123 C 
BRANCH  30  31
HETATM   31  C21 UNL     1      -5.593  17.158  26.675  1.00  0.00     0.055 C 
HETATM   32  C22 UNL     1      -5.456  18.071  25.693  1.00  0.00     0.008 C 
BRANCH  32  33
HETATM   33  C23 UNL     1      -6.521  18.224  24.723  1.00  0.00    -0.001 C 
HETATM   34  C24 UNL     1      -6.267  17.812  23.465  1.00  0.00     0.000 C 
BRANCH  34  35
HETATM   35  C25 UNL     1      -7.225  17.903  22.381  1.00  0.00     0.140 C 
HETATM   36  N3  UNL     1      -8.237  16.922  22.189  1.00  0.00    -0.340 N 
HETATM   37  C29 UNL     1      -7.431  16.175  21.279  1.00  0.00     0.243 C 
HETATM   38  O7  UNL     1      -7.365  15.024  20.812  1.00  0.00    -0.271 OA
HETATM   39  C30 UNL     1      -6.620  17.426  21.086  1.00  0.00     0.138 C 
HETATM   40  C31 UNL     1      -7.057  18.215  19.864  1.00  0.00     0.042 C 
BRANCH  36  41
HETATM   41  C26 UNL     1      -9.573  16.695  22.658  1.00  0.00     0.129 C 
BRANCH  41  42
HETATM   42  C27 UNL     1      -9.516  16.111  24.050  1.00  0.00     0.049 C 
BRANCH  42  43
HETATM   43  C28 UNL     1     -10.338  17.003  24.985  1.00  0.00     0.205 C 
BRANCH  43  44
HETATM   44  O5  UNL     1      -9.648  18.165  25.368  1.00  0.00    -0.260 OA
BRANCH  44  45
HETATM   45  N4  UNL     1     -10.083  18.876  26.452  1.00  0.00    -0.174 N 
ATOM     46  H4  UNL     1      -9.907  19.880  26.509  1.00  0.00     0.223 HD
BRANCH  45  47
HETATM   47  O6  UNL     1     -10.695  18.297  27.369  1.00  0.00    -0.269 OA
ATOM     48  H6  UNL     1     -10.516  18.522  28.274  1.00  0.00     0.246 HD
ENDBRANCH  45  47
ENDBRANCH  44  45
ENDBRANCH  43  44
ENDBRANCH  42  43
ENDBRANCH  41  42
ENDBRANCH  36  41
BRANCH  39  49
HETATM   49  S1  UNL     1      -4.902  17.002  21.073  1.00  0.00     0.031 S 
HETATM   50  C32 UNL     1      -4.010  18.546  20.778  1.00  0.00     0.128 C 
HETATM   51  O8  UNL     1      -4.604  16.097  19.645  1.00  0.00    -0.257 OA
ENDBRANCH  39  49
ENDBRANCH  34  35
ENDBRANCH  32  33
ENDBRANCH  30  31
ENDBRANCH  29  30
ENDBRANCH   3  29
TORSDOF 17
ENDMDL
MODEL 4
REMARK VINA RESULT: -8.932395673      2.659     11.770
REMARK  17 active torsions:
REMARK  status: ('A' for Active; 'I' for Inactive)
REMARK    1  A    between atoms: C2_2  and  C4_4 
REMARK    2  A    between atoms: C4_4  and  C5_5 
REMARK    3  A    between atoms: C5_5  and  O1_6 
REMARK    4  A    between atoms: C5_5  and  C6_8 
REMARK    5  A    between atoms: C17_23  and  N2_24 
REMARK       I    between atoms: N2_24  and  C18_26 
REMARK    6  A    between atoms: C18_26  and  C19_28 
REMARK    7  A    between atoms: C19_28  and  C20_29 
REMARK    8  A    between atoms: C20_29  and  C21_30 
REMARK    9  A    between atoms: C22_31  and  C23_32 
REMARK   10  A    between atoms: C24_33  and  C25_34 
REMARK   11  A    between atoms: N3_35  and  C26_36 
REMARK   12  A    between atoms: C26_36  and  C27_37 
REMARK   13  A    between atoms: C27_37  and  C28_38 
REMARK   14  A    between atoms: C28_38  and  O5_39 
REMARK   15  A    between atoms: O5_39  and  N4_40 
REMARK   16  A    between atoms: N4_40  and  O6_42 
REMARK   17  A    between atoms: C30_46  and  S1_48 
ROOT
HETATM    1  N2  UNL     1      -9.945  15.170  28.246  1.00  0.00    -0.344 N 
ATOM      2  H2  UNL     1      -9.423  16.047  28.262  1.00  0.00     0.164 HD
HETATM    3  C18 UNL     1      -9.958  14.423  27.068  1.00  0.00     0.249 C 
HETATM    4  O4  UNL     1     -10.607  13.309  27.027  1.00  0.00    -0.268 OA
ENDROOT
BRANCH   1   5
HETATM    5  C17 UNL     1     -10.665  14.744  29.492  1.00  0.00     0.147 C 
HETATM    6  C16 UNL     1     -10.721  16.062  30.263  1.00  0.00     0.036 C 
HETATM    7  C15 UNL     1      -9.396  16.590  30.675  1.00  0.00     0.004 C 
HETATM    8  C14 UNL     1      -8.892  16.118  32.006  1.00  0.00     0.020 C 
HETATM    9  C13 UNL     1      -9.920  16.069  33.077  1.00  0.00     0.125 C 
HETATM   10  N1  UNL     1      -9.484  16.482  34.383  1.00  0.00    -0.337 N 
HETATM   11  C12 UNL     1      -9.604  15.628  35.508  1.00  0.00     0.360 C 
ATOM     12  H1  UNL     1      -9.080  17.411  34.503  1.00  0.00     0.164 HD
HETATM   13  O2  UNL     1     -10.527  14.601  35.571  1.00  0.00    -0.304 OA
HETATM   14  O3  UNL     1      -8.802  15.858  36.469  1.00  0.00    -0.239 OA
HETATM   15  C11 UNL     1     -11.908  14.729  35.266  1.00  0.00     0.180 C 
HETATM   16  C10 UNL     1     -12.466  13.449  34.717  1.00  0.00     0.027 C 
HETATM   17  C9  UNL     1     -13.707  13.606  33.900  1.00  0.00     0.002 C 
HETATM   18  C8  UNL     1     -13.500  14.293  32.566  1.00  0.00     0.001 C 
HETATM   19  C7  UNL     1     -12.849  13.467  31.548  1.00  0.00     0.018 C 
HETATM   20  C6  UNL     1     -13.326  13.412  30.185  1.00  0.00     0.078 C 
HETATM   21  S2  UNL     1     -12.287  14.321  28.965  1.00  0.00    -0.136 SA
BRANCH  20  22
HETATM   22  C5  UNL     1     -14.694  13.805  29.810  1.00  0.00     0.132 C 
BRANCH  22  23
HETATM   23  C4  UNL     1     -15.902  13.259  30.392  1.00  0.00     0.037 C 
BRANCH  23  24
HETATM   24  C2  UNL     1     -16.149  11.842  30.615  1.00  0.00    -0.020 C 
HETATM   25  C1  UNL     1     -17.454  11.256  30.154  1.00  0.00     0.009 C 
HETATM   26  C3  UNL     1     -15.850  11.326  31.996  1.00  0.00     0.009 C 
ENDBRANCH  23  24
ENDBRANCH  22  23
BRANCH  22  27
HETATM   27  O1  UNL     1     -14.827  15.242  29.842  1.00  0.00    -0.394 OA
ATOM     28  H1  UNL     1     -13.947  15.599  29.868  1.00  0.00     0.210 HD
ENDBRANCH  22  27
ENDBRANCH  20  22
ENDBRANCH   1   5
BRANCH   3  29
HETATM   29  C19 UNL     1      -9.279  14.819  25.859  1.00  0.00     0.129 C 
BRANCH  29  30
HETATM   30  C20 UNL     1      -9.669  15.457  24.820  1.00  0.00    -0.123 C 
BRANCH  30  31
HETATM   31  C21 UNL     1     -10.092  16.140  23.707  1.00  0.00     0.055 C 
HETATM   32  C22 UNL     1      -9.261  16.632  22.768  1.00  0.00     0.008 C 
BRANCH  32  33
HETATM   33  C23 UNL     1      -7.834  16.436  22.921  1.00  0.00    -0.001 C 
HETATM   34  C24 UNL     1      -7.205  17.202  23.835  1.00  0.00     0.000 C 
BRANCH  34  35
HETATM   35  C25 UNL     1      -5.782  17.129  24.103  1.00  0.00     0.140 C 
HETATM   36  N3  UNL     1      -5.224  17.581  25.329  1.00  0.00    -0.340 N 
HETATM   37  C29 UNL     1      -4.955  18.879  24.804  1.00  0.00     0.243 C 
HETATM   38  O7  UNL     1      -4.736  20.031  25.218  1.00  0.00    -0.271 OA
HETATM   39  C30 UNL     1      -5.050  18.263  23.436  1.00  0.00     0.138 C 
HETATM   40  C31 UNL     1      -3.688  17.887  22.876  1.00  0.00     0.042 C 
BRANCH  36  41
HETATM   41  C26 UNL     1      -4.968  17.026  26.627  1.00  0.00     0.129 C 
BRANCH  41  42
HETATM   42  C27 UNL     1      -6.279  16.623  27.260  1.00  0.00     0.049 C 
BRANCH  42  43
HETATM   43  C28 UNL     1      -7.043  17.894  27.644  1.00  0.00     0.205 C 
BRANCH  43  44
HETATM   44  O5  UNL     1      -8.415  17.806  27.358  1.00  0.00    -0.260 OA
BRANCH  44  45
HETATM   45  N4  UNL     1      -9.028  18.831  26.692  1.00  0.00    -0.174 N 
ATOM     46  H4  UNL     1      -8.469  19.516  26.182  1.00  0.00     0.223 HD
BRANCH  45  47
HETATM   47  O6  UNL     1     -10.269  18.927  26.708  1.00  0.00    -0.269 OA
ATOM     48  H6  UNL     1     -10.753  18.965  25.891  1.00  0.00     0.246 HD
ENDBRANCH  45  47
ENDBRANCH  44  45
ENDBRANCH  43  44
ENDBRANCH  42  43
ENDBRANCH  41  42
ENDBRANCH  36  41
BRANCH  39  49
HETATM   49  S1  UNL     1      -5.970  19.346  22.380  1.00  0.00     0.031 S 
HETATM   50  C32 UNL     1      -5.927  18.594  20.738  1.00  0.00     0.128 C 
HETATM   51  O8  UNL     1      -5.048  20.779  22.180  1.00  0.00    -0.257 OA
ENDBRANCH  39  49
ENDBRANCH  34  35
ENDBRANCH  32  33
ENDBRANCH  30  31
ENDBRANCH  29  30
ENDBRANCH   3  29
TORSDOF 17
ENDMDL
MODEL 5
REMARK VINA RESULT: -8.738597756      2.790     11.990
REMARK  17 active torsions:
REMARK  status: ('A' for Active; 'I' for Inactive)
REMARK    1  A    between atoms: C2_2  and  C4_4 
REMARK    2  A    between atoms: C4_4  and  C5_5 
REMARK    3  A    between atoms: C5_5  and  O1_6 
REMARK    4  A    between atoms: C5_5  and  C6_8 
REMARK    5  A    between atoms: C17_23  and  N2_24 
REMARK       I    between atoms: N2_24  and  C18_26 
REMARK    6  A    between atoms: C18_26  and  C19_28 
REMARK    7  A    between atoms: C19_28  and  C20_29 
REMARK    8  A    between atoms: C20_29  and  C21_30 
REMARK    9  A    between atoms: C22_31  and  C23_32 
REMARK   10  A    between atoms: C24_33  and  C25_34 
REMARK   11  A    between atoms: N3_35  and  C26_36 
REMARK   12  A    between atoms: C26_36  and  C27_37 
REMARK   13  A    between atoms: C27_37  and  C28_38 
REMARK   14  A    between atoms: C28_38  and  O5_39 
REMARK   15  A    between atoms: O5_39  and  N4_40 
REMARK   16  A    between atoms: N4_40  and  O6_42 
REMARK   17  A    between atoms: C30_46  and  S1_48 
ROOT
HETATM    1  N2  UNL     1     -10.066  15.324  28.065  1.00  0.00    -0.344 N 
ATOM      2  H2  UNL     1     -10.497  16.102  27.566  1.00  0.00     0.164 HD
HETATM    3  C18 UNL     1      -8.897  14.765  27.545  1.00  0.00     0.249 C 
HETATM    4  O4  UNL     1      -8.331  13.783  28.161  1.00  0.00    -0.268 OA
ENDROOT
BRANCH   1   5
HETATM    5  C17 UNL     1     -10.716  14.832  29.325  1.00  0.00     0.147 C 
HETATM    6  C16 UNL     1     -10.871  16.138  30.103  1.00  0.00     0.036 C 
HETATM    7  C15 UNL     1      -9.589  16.780  30.487  1.00  0.00     0.004 C 
HETATM    8  C14 UNL     1      -9.015  16.350  31.804  1.00  0.00     0.020 C 
HETATM    9  C13 UNL     1     -10.010  16.208  32.898  1.00  0.00     0.125 C 
HETATM   10  N1  UNL     1      -9.583  16.654  34.196  1.00  0.00    -0.337 N 
HETATM   11  C12 UNL     1      -9.601  15.789  35.319  1.00  0.00     0.360 C 
ATOM     12  H1  UNL     1      -9.260  17.615  34.311  1.00  0.00     0.164 HD
HETATM   13  O2  UNL     1     -10.428  14.685  35.397  1.00  0.00    -0.304 OA
HETATM   14  O3  UNL     1      -8.800  16.087  36.263  1.00  0.00    -0.239 OA
HETATM   15  C11 UNL     1     -11.821  14.691  35.125  1.00  0.00     0.180 C 
HETATM   16  C10 UNL     1     -12.277  13.369  34.582  1.00  0.00     0.027 C 
HETATM   17  C9  UNL     1     -13.545  13.417  33.794  1.00  0.00     0.002 C 
HETATM   18  C8  UNL     1     -13.429  14.124  32.459  1.00  0.00     0.001 C 
HETATM   19  C7  UNL     1     -12.732  13.362  31.423  1.00  0.00     0.018 C 
HETATM   20  C6  UNL     1     -13.233  13.268  30.071  1.00  0.00     0.078 C 
HETATM   21  S2  UNL     1     -12.306  14.268  28.832  1.00  0.00    -0.136 SA
BRANCH  20  22
HETATM   22  C5  UNL     1     -14.638  13.540  29.728  1.00  0.00     0.132 C 
BRANCH  22  23
HETATM   23  C4  UNL     1     -15.780  13.080  30.490  1.00  0.00     0.037 C 
BRANCH  23  24
HETATM   24  C2  UNL     1     -16.064  11.687  30.801  1.00  0.00    -0.020 C 
HETATM   25  C1  UNL     1     -15.921  11.221  32.223  1.00  0.00     0.009 C 
HETATM   26  C3  UNL     1     -15.437  10.663  29.894  1.00  0.00     0.009 C 
ENDBRANCH  23  24
ENDBRANCH  22  23
BRANCH  22  27
HETATM   27  O1  UNL     1     -14.832  14.951  29.495  1.00  0.00    -0.394 OA
ATOM     28  H1  UNL     1     -15.364  15.030  28.713  1.00  0.00     0.210 HD
ENDBRANCH  22  27
ENDBRANCH  20  22
ENDBRANCH   1   5
BRANCH   3  29
HETATM   29  C19 UNL     1      -8.261  15.218  26.332  1.00  0.00     0.129 C 
BRANCH  29  30
HETATM   30  C20 UNL     1      -8.719  15.498  25.171  1.00  0.00    -0.123 C 
BRANCH  30  31
HETATM   31  C21 UNL     1      -9.213  15.803  23.927  1.00  0.00     0.055 C 
HETATM   32  C22 UNL     1      -8.718  16.780  23.142  1.00  0.00     0.008 C 
BRANCH  32  33
HETATM   33  C23 UNL     1      -7.598  17.565  23.620  1.00  0.00    -0.001 C 
HETATM   34  C24 UNL     1      -6.370  17.200  23.200  1.00  0.00     0.000 C 
BRANCH  34  35
HETATM   35  C25 UNL     1      -5.151  17.879  23.592  1.00  0.00     0.140 C 
HETATM   36  N3  UNL     1      -5.162  19.206  24.102  1.00  0.00    -0.340 N 
HETATM   37  C29 UNL     1      -4.943  19.774  22.812  1.00  0.00     0.243 C 
HETATM   38  O7  UNL     1      -5.085  20.864  22.231  1.00  0.00    -0.271 OA
HETATM   39  C30 UNL     1      -4.429  18.425  22.389  1.00  0.00     0.138 C 
HETATM   40  C31 UNL     1      -2.915  18.332  22.472  1.00  0.00     0.042 C 
BRANCH  36  41
HETATM   41  C26 UNL     1      -5.306  19.829  25.386  1.00  0.00     0.129 C 
BRANCH  41  42
HETATM   42  C27 UNL     1      -5.842  18.817  26.370  1.00  0.00     0.049 C 
BRANCH  42  43
HETATM   43  C28 UNL     1      -7.075  19.413  27.055  1.00  0.00     0.205 C 
BRANCH  43  44
HETATM   44  O5  UNL     1      -8.149  18.510  27.116  1.00  0.00    -0.260 OA
BRANCH  44  45
HETATM   45  N4  UNL     1      -9.365  18.879  26.612  1.00  0.00    -0.174 N 
ATOM     46  H4  UNL     1      -9.417  19.461  25.775  1.00  0.00     0.223 HD
BRANCH  45  47
HETATM   47  O6  UNL     1     -10.410  18.504  27.175  1.00  0.00    -0.269 OA
ATOM     48  H6  UNL     1     -11.233  18.508  26.700  1.00  0.00     0.246 HD
ENDBRANCH  45  47
ENDBRANCH  44  45
ENDBRANCH  43  44
ENDBRANCH  42  43
ENDBRANCH  41  42
ENDBRANCH  36  41
BRANCH  39  49
HETATM   49  S1  UNL     1      -5.070  18.044  20.784  1.00  0.00     0.031 S 
HETATM   50  C32 UNL     1      -4.506  16.368  20.409  1.00  0.00     0.128 C 
HETATM   51  O8  UNL     1      -4.222  19.007  19.646  1.00  0.00    -0.257 OA
ENDBRANCH  39  49
ENDBRANCH  34  35
ENDBRANCH  32  33
ENDBRANCH  30  31
ENDBRANCH  29  30
ENDBRANCH   3  29
TORSDOF 17
ENDMDL
