MODEL 1
REMARK VINA RESULT: -9.330464233      0.000      0.000
REMARK  9 active torsions:
REMARK  status: ('A' for Active; 'I' for Inactive)
REMARK    1  A    between atoms: C2_2  and  C3_3 
REMARK    2  A    between atoms: N2_9  and  C6_10 
REMARK    3  A    between atoms: C8_12  and  O2_13 
REMARK    4  A    between atoms: C9_15  and  C10_16 
REMARK    5  A    between atoms: C10_16  and  O3_17 
REMARK    6  A    between atoms: C12_21  and  N3_22 
REMARK       I    between atoms: N3_22  and  C13_24 
REMARK    7  A    between atoms: C13_24  and  C14_26 
REMARK    8  A    between atoms: C14_26  and  C15_27 
REMARK    9  A    between atoms: C15_27  and  C16_28 
ROOT
HETATM    1  C3  UNL     1      -4.402  22.249   8.857  1.00  0.00     0.005 C 
HETATM    2  C4  UNL     1      -3.972  23.410   9.298  1.00  0.00     0.060 A 
HETATM    3  N1  UNL     1      -4.284  23.832  10.597  1.00  0.00    -0.307 N 
ATOM      4  H1  UNL     1      -4.826  23.229  11.217  1.00  0.00     0.170 HD
HETATM    5  C5  UNL     1      -3.836  25.115  11.049  1.00  0.00     0.329 A 
HETATM    6  O1  UNL     1      -4.138  25.455  12.229  1.00  0.00    -0.246 OA
HETATM    7  N2  UNL     1      -3.082  25.956  10.194  1.00  0.00    -0.280 N 
HETATM    8  C11 UNL     1      -2.805  25.462   8.895  1.00  0.00     0.130 A 
HETATM    9  C12 UNL     1      -3.189  24.296   8.428  1.00  0.00     0.077 A 
ENDROOT
BRANCH   9  10
HETATM   10  N3  UNL     1      -2.849  23.928   7.104  1.00  0.00    -0.324 N 
HETATM   11  C13 UNL     1      -1.803  23.025   6.811  1.00  0.00     0.222 C 
HETATM   12  O5  UNL     1      -1.135  22.531   7.746  1.00  0.00    -0.273 OA
ATOM     13  H3  UNL     1      -3.381  24.330   6.332  1.00  0.00     0.169 HD
BRANCH  11  14
HETATM   14  C14 UNL     1      -1.464  22.638   5.421  1.00  0.00     0.103 C 
BRANCH  14  15
HETATM   15  C15 UNL     1      -0.472  21.513   5.408  1.00  0.00     0.014 C 
BRANCH  15  16
HETATM   16  C16 UNL     1      -0.087  21.076   4.033  1.00  0.00    -0.014 C 
HETATM   17  C17 UNL     1      -0.050  19.583   3.866  1.00  0.00     0.004 C 
HETATM   18  C18 UNL     1       0.503  19.311   2.465  1.00  0.00     0.000 C 
HETATM   19  C19 UNL     1      -0.371  19.891   1.403  1.00  0.00     0.000 C 
HETATM   20  C20 UNL     1      -0.778  21.308   1.632  1.00  0.00     0.000 C 
HETATM   21  C21 UNL     1      -1.148  21.601   3.070  1.00  0.00     0.004 C 
ENDBRANCH  15  16
ENDBRANCH  14  15
ENDBRANCH  11  14
ENDBRANCH   9  10
BRANCH   1  22
HETATM   22  C2  UNL     1      -5.212  21.313   9.636  1.00  0.00     0.025 C 
HETATM   23  C1  UNL     1      -6.246  20.604   8.762  1.00  0.00     0.009 C 
ENDBRANCH   1  22
BRANCH   7  24
HETATM   24  C6  UNL     1      -2.646  27.231  10.663  1.00  0.00     0.235 C 
HETATM   25  C7  UNL     1      -3.025  28.361   9.696  1.00  0.00     0.088 C 
HETATM   26  C8  UNL     1      -2.107  29.472  10.212  1.00  0.00     0.153 C 
HETATM   27  C9  UNL     1      -1.112  28.714  11.004  1.00  0.00     0.176 C 
HETATM   28  O4  UNL     1      -1.260  27.362  10.686  1.00  0.00    -0.356 OA
BRANCH  26  29
HETATM   29  O2  UNL     1      -1.578  30.208   9.163  1.00  0.00    -0.393 OA
ATOM     30  H2  UNL     1      -0.846  30.739   9.454  1.00  0.00     0.210 HD
ENDBRANCH  26  29
BRANCH  27  31
HETATM   31  C10 UNL     1       0.307  29.120  10.818  1.00  0.00     0.198 C 
BRANCH  31  32
HETATM   32  O3  UNL     1       0.704  30.200  11.566  1.00  0.00    -0.398 OA
ATOM     33  H3  UNL     1       1.568  30.123  11.954  1.00  0.00     0.209 HD
ENDBRANCH  31  32
ENDBRANCH  27  31
ENDBRANCH   7  24
TORSDOF 9
ENDMDL
MODEL 2
REMARK VINA RESULT: -9.085645472      1.359      1.583
REMARK  9 active torsions:
REMARK  status: ('A' for Active; 'I' for Inactive)
REMARK    1  A    between atoms: C2_2  and  C3_3 
REMARK    2  A    between atoms: N2_9  and  C6_10 
REMARK    3  A    between atoms: C8_12  and  O2_13 
REMARK    4  A    between atoms: C9_15  and  C10_16 
REMARK    5  A    between atoms: C10_16  and  O3_17 
REMARK    6  A    between atoms: C12_21  and  N3_22 
REMARK       I    between atoms: N3_22  and  C13_24 
REMARK    7  A    between atoms: C13_24  and  C14_26 
REMARK    8  A    between atoms: C14_26  and  C15_27 
REMARK    9  A    between atoms: C15_27  and  C16_28 
ROOT
HETATM    1  C3  UNL     1      -5.046  21.162   8.897  1.00  0.00     0.005 C 
HETATM    2  C4  UNL     1      -4.696  22.301   9.451  1.00  0.00     0.060 A 
HETATM    3  N1  UNL     1      -5.583  22.974  10.302  1.00  0.00    -0.307 N 
ATOM      4  H1  UNL     1      -6.495  22.571  10.515  1.00  0.00     0.170 HD
HETATM    5  C5  UNL     1      -5.198  24.232  10.870  1.00  0.00     0.329 A 
HETATM    6  O1  UNL     1      -6.028  24.805  11.633  1.00  0.00    -0.246 OA
HETATM    7  N2  UNL     1      -3.932  24.795  10.577  1.00  0.00    -0.280 N 
HETATM    8  C11 UNL     1      -3.089  24.057   9.710  1.00  0.00     0.130 A 
HETATM    9  C12 UNL     1      -3.388  22.901   9.162  1.00  0.00     0.077 A 
ENDROOT
BRANCH   9  10
HETATM   10  N3  UNL     1      -2.454  22.272   8.305  1.00  0.00    -0.324 N 
HETATM   11  C13 UNL     1      -2.021  22.853   7.094  1.00  0.00     0.222 C 
HETATM   12  O5  UNL     1      -2.480  23.964   6.745  1.00  0.00    -0.273 OA
ATOM     13  H3  UNL     1      -2.078  21.362   8.574  1.00  0.00     0.169 HD
BRANCH  11  14
HETATM   14  C14 UNL     1      -1.034  22.189   6.210  1.00  0.00     0.103 C 
BRANCH  14  15
HETATM   15  C15 UNL     1      -1.361  22.433   4.767  1.00  0.00     0.014 C 
BRANCH  15  16
HETATM   16  C16 UNL     1      -0.518  21.641   3.823  1.00  0.00    -0.014 C 
HETATM   17  C17 UNL     1      -0.205  20.256   4.315  1.00  0.00     0.004 C 
HETATM   18  C18 UNL     1       0.778  19.646   3.314  1.00  0.00     0.000 C 
HETATM   19  C19 UNL     1       0.186  19.546   1.946  1.00  0.00     0.000 C 
HETATM   20  C20 UNL     1      -0.481  20.790   1.463  1.00  0.00     0.000 C 
HETATM   21  C21 UNL     1      -1.307  21.480   2.526  1.00  0.00     0.004 C 
ENDBRANCH  15  16
ENDBRANCH  14  15
ENDBRANCH  11  14
ENDBRANCH   9  10
BRANCH   1  22
HETATM   22  C2  UNL     1      -6.335  20.502   9.099  1.00  0.00     0.025 C 
HETATM   23  C1  UNL     1      -6.186  19.215   9.910  1.00  0.00     0.009 C 
ENDBRANCH   1  22
BRANCH   7  24
HETATM   24  C6  UNL     1      -3.568  26.049  11.153  1.00  0.00     0.235 C 
HETATM   25  C7  UNL     1      -4.352  27.215  10.534  1.00  0.00     0.088 C 
HETATM   26  C8  UNL     1      -3.494  28.392  11.006  1.00  0.00     0.153 C 
HETATM   27  C9  UNL     1      -2.224  27.728  11.374  1.00  0.00     0.176 C 
HETATM   28  O4  UNL     1      -2.261  26.430  10.858  1.00  0.00    -0.356 OA
BRANCH  26  29
HETATM   29  O2  UNL     1      -3.382  29.354  10.014  1.00  0.00    -0.393 OA
ATOM     30  H2  UNL     1      -2.509  29.729   9.999  1.00  0.00     0.210 HD
ENDBRANCH  26  29
BRANCH  27  31
HETATM   31  C10 UNL     1      -0.982  28.410  10.923  1.00  0.00     0.198 C 
BRANCH  31  32
HETATM   32  O3  UNL     1      -0.615  28.148   9.628  1.00  0.00    -0.398 OA
ATOM     33  H3  UNL     1       0.129  27.563   9.532  1.00  0.00     0.209 HD
ENDBRANCH  31  32
ENDBRANCH  27  31
ENDBRANCH   7  24
TORSDOF 9
ENDMDL
MODEL 3
REMARK VINA RESULT: -9.085020087      0.904      1.046
REMARK  9 active torsions:
REMARK  status: ('A' for Active; 'I' for Inactive)
REMARK    1  A    between atoms: C2_2  and  C3_3 
REMARK    2  A    between atoms: N2_9  and  C6_10 
REMARK    3  A    between atoms: C8_12  and  O2_13 
REMARK    4  A    between atoms: C9_15  and  C10_16 
REMARK    5  A    between atoms: C10_16  and  O3_17 
REMARK    6  A    between atoms: C12_21  and  N3_22 
REMARK       I    between atoms: N3_22  and  C13_24 
REMARK    7  A    between atoms: C13_24  and  C14_26 
REMARK    8  A    between atoms: C14_26  and  C15_27 
REMARK    9  A    between atoms: C15_27  and  C16_28 
ROOT
HETATM    1  C3  UNL     1      -4.625  22.026   8.525  1.00  0.00     0.005 C 
HETATM    2  C4  UNL     1      -4.118  23.073   9.135  1.00  0.00     0.060 A 
HETATM    3  N1  UNL     1      -4.491  23.373  10.452  1.00  0.00    -0.307 N 
ATOM      4  H1  UNL     1      -5.139  22.765  10.953  1.00  0.00     0.170 HD
HETATM    5  C5  UNL     1      -3.955  24.538  11.090  1.00  0.00     0.329 A 
HETATM    6  O1  UNL     1      -4.318  24.770  12.280  1.00  0.00    -0.246 OA
HETATM    7  N2  UNL     1      -3.054  25.386  10.400  1.00  0.00    -0.280 N 
HETATM    8  C11 UNL     1      -2.723  25.019   9.072  1.00  0.00     0.130 A 
HETATM    9  C12 UNL     1      -3.182  23.964   8.438  1.00  0.00     0.077 A 
ENDROOT
BRANCH   9  10
HETATM   10  N3  UNL     1      -2.774  23.717   7.105  1.00  0.00    -0.324 N 
HETATM   11  C13 UNL     1      -1.735  22.817   6.783  1.00  0.00     0.222 C 
HETATM   12  O5  UNL     1      -1.135  22.214   7.700  1.00  0.00    -0.273 OA
ATOM     13  H3  UNL     1      -3.249  24.209   6.348  1.00  0.00     0.169 HD
BRANCH  11  14
HETATM   14  C14 UNL     1      -1.323  22.559   5.383  1.00  0.00     0.103 C 
BRANCH  14  15
HETATM   15  C15 UNL     1      -0.409  21.372   5.306  1.00  0.00     0.014 C 
BRANCH  15  16
HETATM   16  C16 UNL     1      -0.057  20.982   3.909  1.00  0.00    -0.014 C 
HETATM   17  C17 UNL     1       0.006  19.495   3.698  1.00  0.00     0.004 C 
HETATM   18  C18 UNL     1       0.521  19.275   2.274  1.00  0.00     0.000 C 
HETATM   19  C19 UNL     1      -0.397  19.864   1.255  1.00  0.00     0.000 C 
HETATM   20  C20 UNL     1      -0.826  21.265   1.537  1.00  0.00     0.000 C 
HETATM   21  C21 UNL     1      -1.158  21.510   2.993  1.00  0.00     0.004 C 
ENDBRANCH  15  16
ENDBRANCH  14  15
ENDBRANCH  11  14
ENDBRANCH   9  10
BRANCH   1  22
HETATM   22  C2  UNL     1      -5.584  21.100   9.124  1.00  0.00     0.025 C 
HETATM   23  C1  UNL     1      -6.865  21.005   8.295  1.00  0.00     0.009 C 
ENDBRANCH   1  22
BRANCH   7  24
HETATM   24  C6  UNL     1      -2.533  26.542  11.053  1.00  0.00     0.235 C 
HETATM   25  C7  UNL     1      -3.630  27.568  11.371  1.00  0.00     0.088 C 
HETATM   26  C8  UNL     1      -2.768  28.801  11.651  1.00  0.00     0.153 C 
HETATM   27  C9  UNL     1      -1.474  28.427  11.037  1.00  0.00     0.176 C 
HETATM   28  O4  UNL     1      -1.696  27.301  10.239  1.00  0.00    -0.356 OA
BRANCH  26  29
HETATM   29  O2  UNL     1      -3.352  29.945  11.127  1.00  0.00    -0.393 OA
ATOM     30  H2  UNL     1      -2.781  30.697  11.232  1.00  0.00     0.210 HD
ENDBRANCH  26  29
BRANCH  27  31
HETATM   31  C10 UNL     1      -0.808  29.486  10.233  1.00  0.00     0.198 C 
BRANCH  31  32
HETATM   32  O3  UNL     1      -1.372  29.722   9.005  1.00  0.00    -0.398 OA
ATOM     33  H3  UNL     1      -0.781  29.625   8.267  1.00  0.00     0.209 HD
ENDBRANCH  31  32
ENDBRANCH  27  31
ENDBRANCH   7  24
TORSDOF 9
ENDMDL
MODEL 4
REMARK VINA RESULT: -8.980800967      1.310      1.483
REMARK  9 active torsions:
REMARK  status: ('A' for Active; 'I' for Inactive)
REMARK    1  A    between atoms: C2_2  and  C3_3 
REMARK    2  A    between atoms: N2_9  and  C6_10 
REMARK    3  A    between atoms: C8_12  and  O2_13 
REMARK    4  A    between atoms: C9_15  and  C10_16 
REMARK    5  A    between atoms: C10_16  and  O3_17 
REMARK    6  A    between atoms: C12_21  and  N3_22 
REMARK       I    between atoms: N3_22  and  C13_24 
REMARK    7  A    between atoms: C13_24  and  C14_26 
REMARK    8  A    between atoms: C14_26  and  C15_27 
REMARK    9  A    between atoms: C15_27  and  C16_28 
ROOT
HETATM    1  C3  UNL     1      -4.749  21.712   8.897  1.00  0.00     0.005 C 
HETATM    2  C4  UNL     1      -4.368  22.942   9.158  1.00  0.00     0.060 A 
HETATM    3  N1  UNL     1      -5.187  23.790   9.915  1.00  0.00    -0.307 N 
ATOM      4  H1  UNL     1      -6.072  23.448  10.290  1.00  0.00     0.170 HD
HETATM    5  C5  UNL     1      -4.772  25.139  10.160  1.00  0.00     0.329 A 
HETATM    6  O1  UNL     1      -5.541  25.869  10.850  1.00  0.00    -0.246 OA
HETATM    7  N2  UNL     1      -3.543  25.618   9.643  1.00  0.00    -0.280 N 
HETATM    8  C11 UNL     1      -2.768  24.703   8.888  1.00  0.00     0.130 A 
HETATM    9  C12 UNL     1      -3.098  23.458   8.632  1.00  0.00     0.077 A 
ENDROOT
BRANCH   9  10
HETATM   10  N3  UNL     1      -2.232  22.652   7.855  1.00  0.00    -0.324 N 
HETATM   11  C13 UNL     1      -1.944  22.931   6.501  1.00  0.00     0.222 C 
HETATM   12  O5  UNL     1      -2.474  23.922   5.950  1.00  0.00    -0.273 OA
ATOM     13  H3  UNL     1      -1.800  21.836   8.291  1.00  0.00     0.169 HD
BRANCH  11  14
HETATM   14  C14 UNL     1      -1.027  22.086   5.701  1.00  0.00     0.103 C 
BRANCH  14  15
HETATM   15  C15 UNL     1      -1.310  22.232   4.236  1.00  0.00     0.014 C 
BRANCH  15  16
HETATM   16  C16 UNL     1      -0.423  21.398   3.372  1.00  0.00    -0.014 C 
HETATM   17  C17 UNL     1      -0.296  19.975   3.837  1.00  0.00     0.004 C 
HETATM   18  C18 UNL     1       0.753  19.312   2.942  1.00  0.00     0.000 C 
HETATM   19  C19 UNL     1       0.338  19.311   1.508  1.00  0.00     0.000 C 
HETATM   20  C20 UNL     1      -0.153  20.626   0.999  1.00  0.00     0.000 C 
HETATM   21  C21 UNL     1      -1.048  21.352   1.980  1.00  0.00     0.004 C 
ENDBRANCH  15  16
ENDBRANCH  14  15
ENDBRANCH  11  14
ENDBRANCH   9  10
BRANCH   1  22
HETATM   22  C2  UNL     1      -6.006  21.119   9.349  1.00  0.00     0.025 C 
HETATM   23  C1  UNL     1      -5.972  19.593   9.260  1.00  0.00     0.009 C 
ENDBRANCH   1  22
BRANCH   7  24
HETATM   24  C6  UNL     1      -3.148  26.965   9.898  1.00  0.00     0.235 C 
HETATM   25  C7  UNL     1      -1.697  27.230   9.472  1.00  0.00     0.088 C 
HETATM   26  C8  UNL     1      -1.437  28.541  10.219  1.00  0.00     0.153 C 
HETATM   27  C9  UNL     1      -2.520  28.549  11.228  1.00  0.00     0.176 C 
HETATM   28  O4  UNL     1      -3.081  27.269  11.255  1.00  0.00    -0.356 OA
BRANCH  26  29
HETATM   29  O2  UNL     1      -0.153  28.568  10.743  1.00  0.00    -0.393 OA
ATOM     30  H2  UNL     1      -0.082  28.000  11.500  1.00  0.00     0.210 HD
ENDBRANCH  26  29
BRANCH  27  31
HETATM   31  C10 UNL     1      -2.120  28.950  12.603  1.00  0.00     0.198 C 
BRANCH  31  32
HETATM   32  O3  UNL     1      -1.719  30.256  12.732  1.00  0.00    -0.398 OA
ATOM     33  H3  UNL     1      -0.981  30.393  13.316  1.00  0.00     0.209 HD
ENDBRANCH  31  32
ENDBRANCH  27  31
ENDBRANCH   7  24
TORSDOF 9
ENDMDL
MODEL 5
REMARK VINA RESULT: -8.916734184      1.307      1.801
REMARK  9 active torsions:
REMARK  status: ('A' for Active; 'I' for Inactive)
REMARK    1  A    between atoms: C2_2  and  C3_3 
REMARK    2  A    between atoms: N2_9  and  C6_10 
REMARK    3  A    between atoms: C8_12  and  O2_13 
REMARK    4  A    between atoms: C9_15  and  C10_16 
REMARK    5  A    between atoms: C10_16  and  O3_17 
REMARK    6  A    between atoms: C12_21  and  N3_22 
REMARK       I    between atoms: N3_22  and  C13_24 
REMARK    7  A    between atoms: C13_24  and  C14_26 
REMARK    8  A    between atoms: C14_26  and  C15_27 
REMARK    9  A    between atoms: C15_27  and  C16_28 
ROOT
HETATM    1  C3  UNL     1      -5.087  21.284   8.886  1.00  0.00     0.005 C 
HETATM    2  C4  UNL     1      -4.748  22.427   9.438  1.00  0.00     0.060 A 
HETATM    3  N1  UNL     1      -5.533  22.980  10.458  1.00  0.00    -0.307 N 
ATOM      4  H1  UNL     1      -6.359  22.485  10.795  1.00  0.00     0.170 HD
HETATM    5  C5  UNL     1      -5.167  24.243  11.024  1.00  0.00     0.329 A 
HETATM    6  O1  UNL     1      -5.903  24.705  11.944  1.00  0.00    -0.246 OA
HETATM    7  N2  UNL     1      -4.021  24.934  10.560  1.00  0.00    -0.280 N 
HETATM    8  C11 UNL     1      -3.276  24.313   9.528  1.00  0.00     0.130 A 
HETATM    9  C12 UNL     1      -3.563  23.158   8.973  1.00  0.00     0.077 A 
ENDROOT
BRANCH   9  10
HETATM   10  N3  UNL     1      -2.735  22.654   7.941  1.00  0.00    -0.324 N 
HETATM   11  C13 UNL     1      -1.467  22.087   8.193  1.00  0.00     0.222 C 
HETATM   12  O5  UNL     1      -1.039  22.031   9.367  1.00  0.00    -0.273 OA
ATOM     13  H3  UNL     1      -3.069  22.701   6.978  1.00  0.00     0.169 HD
BRANCH  11  14
HETATM   14  C14 UNL     1      -0.614  21.552   7.105  1.00  0.00     0.103 C 
BRANCH  14  15
HETATM   15  C15 UNL     1      -0.943  22.209   5.798  1.00  0.00     0.014 C 
BRANCH  15  16
HETATM   16  C16 UNL     1      -1.003  21.255   4.651  1.00  0.00    -0.014 C 
HETATM   17  C17 UNL     1      -1.217  21.925   3.323  1.00  0.00     0.004 C 
HETATM   18  C18 UNL     1      -1.404  20.809   2.293  1.00  0.00     0.000 C 
HETATM   19  C19 UNL     1      -0.199  19.932   2.200  1.00  0.00     0.000 C 
HETATM   20  C20 UNL     1       0.337  19.465   3.512  1.00  0.00     0.000 C 
HETATM   21  C21 UNL     1       0.345  20.543   4.574  1.00  0.00     0.004 C 
ENDBRANCH  15  16
ENDBRANCH  14  15
ENDBRANCH  11  14
ENDBRANCH   9  10
BRANCH   1  22
HETATM   22  C2  UNL     1      -6.263  20.498   9.259  1.00  0.00     0.025 C 
HETATM   23  C1  UNL     1      -6.066  19.014   8.955  1.00  0.00     0.009 C 
ENDBRANCH   1  22
BRANCH   7  24
HETATM   24  C6  UNL     1      -3.674  26.193  11.137  1.00  0.00     0.235 C 
HETATM   25  C7  UNL     1      -4.428  27.356  10.477  1.00  0.00     0.088 C 
HETATM   26  C8  UNL     1      -3.583  28.534  10.970  1.00  0.00     0.153 C 
HETATM   27  C9  UNL     1      -2.331  27.867  11.395  1.00  0.00     0.176 C 
HETATM   28  O4  UNL     1      -2.355  26.564  10.890  1.00  0.00    -0.356 OA
BRANCH  26  29
HETATM   29  O2  UNL     1      -3.427  29.485   9.974  1.00  0.00    -0.393 OA
ATOM     30  H2  UNL     1      -4.150  30.101   9.975  1.00  0.00     0.210 HD
ENDBRANCH  26  29
BRANCH  27  31
HETATM   31  C10 UNL     1      -1.070  28.539  10.987  1.00  0.00     0.198 C 
BRANCH  31  32
HETATM   32  O3  UNL     1      -0.618  28.212   9.733  1.00  0.00    -0.398 OA
ATOM     33  H3  UNL     1      -1.296  28.133   9.071  1.00  0.00     0.209 HD
ENDBRANCH  31  32
ENDBRANCH  27  31
ENDBRANCH   7  24
TORSDOF 9
ENDMDL
