MODEL 1
REMARK VINA RESULT: -10.256125244      0.000      0.000
REMARK  13 active torsions:
REMARK  status: ('A' for Active; 'I' for Inactive)
REMARK    1  A    between atoms: C1_2  and  C2_3 
REMARK       I    between atoms: C1_2  and  N4_23 
REMARK    2  A    between atoms: C2_3  and  C3_4 
REMARK    3  A    between atoms: C3_4  and  C4_5 
REMARK    4  A    between atoms: C4_5  and  C5_6 
REMARK    5  A    between atoms: C5_6  and  C6_7 
REMARK    6  A    between atoms: C6_7  and  C7_8 
REMARK    7  A    between atoms: C7_8  and  C8_9 
REMARK    8  A    between atoms: C8_9  and  N1_10 
REMARK    9  A    between atoms: C10_12  and  C11_13 
REMARK   10  A    between atoms: N4_23  and  C17_25 
REMARK   11  A    between atoms: C22_30  and  C23_31 
REMARK   12  A    between atoms: C26_34  and  C27_35 
REMARK   13  A    between atoms: C27_35  and  N5_36 
ROOT
HETATM    1  O1  UNL     1      62.954  87.955  61.681  1.00  0.00    -0.273 OA
HETATM    2  C1  UNL     1      63.751  87.032  61.491  1.00  0.00     0.222 C 
HETATM    3  N4  UNL     1      63.836  86.278  60.314  1.00  0.00    -0.326 N 
ATOM      4  H4  UNL     1      64.530  85.531  60.286  1.00  0.00     0.169 HD
ENDROOT
BRANCH   2   5
HETATM    5  C2  UNL     1      64.681  86.741  62.660  1.00  0.00     0.103 C 
BRANCH   5   6
HETATM    6  C3  UNL     1      64.090  85.653  63.474  1.00  0.00     0.009 C 
BRANCH   6   7
HETATM    7  C4  UNL     1      64.439  84.254  63.224  1.00  0.00     0.000 C 
BRANCH   7   8
HETATM    8  C5  UNL     1      63.981  83.153  64.076  1.00  0.00     0.000 C 
BRANCH   8   9
HETATM    9  C6  UNL     1      63.950  81.789  63.478  1.00  0.00     0.002 C 
BRANCH   9  10
HETATM   10  C7  UNL     1      62.712  81.031  63.949  1.00  0.00     0.022 C 
BRANCH  10  11
HETATM   11  C8  UNL     1      62.827  79.598  63.563  1.00  0.00     0.150 C 
BRANCH  11  12
HETATM   12  N1  UNL     1      61.527  79.124  63.083  1.00  0.00    -0.287 N 
HETATM   13  C9  UNL     1      60.322  79.468  63.643  1.00  0.00     0.143 A 
HETATM   14  C10 UNL     1      59.307  78.866  62.948  1.00  0.00     0.076 A 
HETATM   15  N2  UNL     1      59.917  78.170  61.978  1.00  0.00    -0.284 N 
HETATM   16  N3  UNL     1      61.224  78.335  62.077  1.00  0.00    -0.240 N 
ATOM     17  H2  UNL     1      59.445  77.602  61.274  1.00  0.00     0.188 HD
ATOM     18  H3  UNL     1      61.908  77.906  61.453  1.00  0.00     0.208 HD
BRANCH  14  19
HETATM   19  C11 UNL     1      57.869  78.932  63.160  1.00  0.00    -0.007 A 
HETATM   20  C12 UNL     1      57.283  79.824  64.080  1.00  0.00     0.014 A 
HETATM   21  C13 UNL     1      55.923  79.857  64.260  1.00  0.00     0.001 A 
HETATM   22  C14 UNL     1      55.068  79.032  63.558  1.00  0.00     0.000 A 
HETATM   23  C15 UNL     1      55.633  78.146  62.643  1.00  0.00     0.001 A 
HETATM   24  C16 UNL     1      57.003  78.123  62.476  1.00  0.00     0.014 A 
ENDBRANCH  14  19
ENDBRANCH  11  12
ENDBRANCH  10  11
ENDBRANCH   9  10
ENDBRANCH   8   9
ENDBRANCH   7   8
ENDBRANCH   6   7
ENDBRANCH   5   6
ENDBRANCH   2   5
BRANCH   3  25
HETATM   25  C17 UNL     1      63.041  86.468  59.165  1.00  0.00     0.045 A 
HETATM   26  C18 UNL     1      63.503  87.162  58.059  1.00  0.00     0.030 A 
HETATM   27  C19 UNL     1      62.729  87.241  56.922  1.00  0.00     0.002 A 
HETATM   28  C20 UNL     1      61.472  86.621  56.890  1.00  0.00     0.001 A 
HETATM   29  C21 UNL     1      61.046  85.950  58.003  1.00  0.00     0.014 A 
HETATM   30  C22 UNL     1      61.794  85.854  59.141  1.00  0.00     0.001 A 
BRANCH  30  31
HETATM   31  C23 UNL     1      61.222  85.197  60.295  1.00  0.00    -0.024 A 
HETATM   32  C24 UNL     1      61.651  83.977  60.762  1.00  0.00     0.013 A 
HETATM   33  C25 UNL     1      61.031  83.368  61.824  1.00  0.00     0.010 A 
HETATM   34  C26 UNL     1      59.953  83.909  62.497  1.00  0.00    -0.038 A 
HETATM   35  C30 UNL     1      59.522  85.152  62.018  1.00  0.00     0.010 A 
HETATM   36  C31 UNL     1      60.131  85.763  60.966  1.00  0.00     0.013 A 
BRANCH  34  37
HETATM   37  C27 UNL     1      59.243  83.237  63.574  1.00  0.00     0.188 C 
BRANCH  37  38
HETATM   38  N5  UNL     1      59.866  83.235  64.867  1.00  0.00    -0.283 N 
HETATM   39  C28 UNL     1      60.640  84.135  65.477  1.00  0.00     0.201 A 
HETATM   40  N6  UNL     1      60.960  83.711  66.734  1.00  0.00    -0.346 N 
HETATM   41  C29 UNL     1      60.345  82.505  66.870  1.00  0.00     0.198 A 
ATOM     42  H6  UNL     1      61.537  84.195  67.423  1.00  0.00     0.167 HD
HETATM   43  N7  UNL     1      59.696  82.239  65.735  1.00  0.00    -0.293 N 
ATOM     44  H7  UNL     1      59.150  81.397  65.559  1.00  0.00     0.188 HD
ENDBRANCH  37  38
ENDBRANCH  34  37
ENDBRANCH  30  31
ENDBRANCH   3  25
TORSDOF 13
ENDMDL
MODEL 2
REMARK VINA RESULT: -9.796544365      2.824      8.164
REMARK  13 active torsions:
REMARK  status: ('A' for Active; 'I' for Inactive)
REMARK    1  A    between atoms: C1_2  and  C2_3 
REMARK       I    between atoms: C1_2  and  N4_23 
REMARK    2  A    between atoms: C2_3  and  C3_4 
REMARK    3  A    between atoms: C3_4  and  C4_5 
REMARK    4  A    between atoms: C4_5  and  C5_6 
REMARK    5  A    between atoms: C5_6  and  C6_7 
REMARK    6  A    between atoms: C6_7  and  C7_8 
REMARK    7  A    between atoms: C7_8  and  C8_9 
REMARK    8  A    between atoms: C8_9  and  N1_10 
REMARK    9  A    between atoms: C10_12  and  C11_13 
REMARK   10  A    between atoms: N4_23  and  C17_25 
REMARK   11  A    between atoms: C22_30  and  C23_31 
REMARK   12  A    between atoms: C26_34  and  C27_35 
REMARK   13  A    between atoms: C27_35  and  N5_36 
ROOT
HETATM    1  O1  UNL     1      60.900  84.499  64.557  1.00  0.00    -0.273 OA
HETATM    2  C1  UNL     1      60.700  84.054  63.423  1.00  0.00     0.222 C 
HETATM    3  N4  UNL     1      61.607  83.272  62.698  1.00  0.00    -0.326 N 
ATOM      4  H4  UNL     1      61.328  82.977  61.762  1.00  0.00     0.169 HD
ENDROOT
BRANCH   2   5
HETATM    5  C2  UNL     1      59.350  84.420  62.824  1.00  0.00     0.103 C 
BRANCH   5   6
HETATM    6  C3  UNL     1      59.573  85.031  61.492  1.00  0.00     0.009 C 
BRANCH   6   7
HETATM    7  C4  UNL     1      60.745  85.870  61.239  1.00  0.00     0.000 C 
BRANCH   7   8
HETATM    8  C5  UNL     1      61.326  86.047  59.905  1.00  0.00     0.000 C 
BRANCH   8   9
HETATM    9  C6  UNL     1      62.697  86.624  59.825  1.00  0.00     0.002 C 
BRANCH   9  10
HETATM   10  C7  UNL     1      62.962  87.170  58.425  1.00  0.00     0.022 C 
BRANCH  10  11
HETATM   11  C8  UNL     1      64.077  86.411  57.794  1.00  0.00     0.150 C 
BRANCH  11  12
HETATM   12  N1  UNL     1      63.550  85.623  56.679  1.00  0.00    -0.287 N 
HETATM   13  C9  UNL     1      62.417  85.940  55.973  1.00  0.00     0.143 A 
HETATM   14  C10 UNL     1      62.213  85.007  54.991  1.00  0.00     0.076 A 
HETATM   15  N2  UNL     1      63.228  84.142  55.121  1.00  0.00    -0.284 N 
HETATM   16  N3  UNL     1      64.003  84.522  56.121  1.00  0.00    -0.240 N 
ATOM     17  H2  UNL     1      63.379  83.317  54.539  1.00  0.00     0.188 HD
ATOM     18  H3  UNL     1      64.843  84.027  56.421  1.00  0.00     0.208 HD
BRANCH  14  19
HETATM   19  C11 UNL     1      61.155  84.920  53.997  1.00  0.00    -0.007 A 
HETATM   20  C12 UNL     1      59.803  85.167  54.311  1.00  0.00     0.014 A 
HETATM   21  C13 UNL     1      58.828  85.071  53.349  1.00  0.00     0.001 A 
HETATM   22  C14 UNL     1      59.115  84.736  52.042  1.00  0.00     0.000 A 
HETATM   23  C15 UNL     1      60.448  84.491  51.716  1.00  0.00     0.001 A 
HETATM   24  C16 UNL     1      61.416  84.588  52.696  1.00  0.00     0.014 A 
ENDBRANCH  14  19
ENDBRANCH  11  12
ENDBRANCH  10  11
ENDBRANCH   9  10
ENDBRANCH   8   9
ENDBRANCH   7   8
ENDBRANCH   6   7
ENDBRANCH   5   6
ENDBRANCH   2   5
BRANCH   3  25
HETATM   25  C17 UNL     1      62.875  82.859  63.156  1.00  0.00     0.045 A 
HETATM   26  C18 UNL     1      63.998  83.659  63.030  1.00  0.00     0.030 A 
HETATM   27  C19 UNL     1      65.197  83.256  63.577  1.00  0.00     0.002 A 
HETATM   28  C20 UNL     1      65.277  82.033  64.258  1.00  0.00     0.001 A 
HETATM   29  C21 UNL     1      64.148  81.266  64.358  1.00  0.00     0.014 A 
HETATM   30  C22 UNL     1      62.948  81.643  63.827  1.00  0.00     0.001 A 
BRANCH  30  31
HETATM   31  C23 UNL     1      61.834  80.726  63.910  1.00  0.00    -0.024 A 
HETATM   32  C24 UNL     1      60.898  80.759  64.918  1.00  0.00     0.013 A 
HETATM   33  C25 UNL     1      59.896  79.824  64.984  1.00  0.00     0.010 A 
HETATM   34  C26 UNL     1      59.741  78.799  64.071  1.00  0.00    -0.038 A 
HETATM   35  C30 UNL     1      60.695  78.771  63.047  1.00  0.00     0.010 A 
HETATM   36  C31 UNL     1      61.692  79.694  62.975  1.00  0.00     0.013 A 
BRANCH  34  37
HETATM   37  C27 UNL     1      58.727  77.761  64.175  1.00  0.00     0.188 C 
BRANCH  37  38
HETATM   38  N5  UNL     1      57.453  78.028  63.573  1.00  0.00    -0.283 N 
HETATM   39  C28 UNL     1      57.037  77.938  62.308  1.00  0.00     0.201 A 
HETATM   40  N6  UNL     1      55.712  78.253  62.220  1.00  0.00    -0.346 N 
HETATM   41  C29 UNL     1      55.331  78.543  63.494  1.00  0.00     0.198 A 
ATOM     42  H6  UNL     1      55.133  78.269  61.380  1.00  0.00     0.167 HD
HETATM   43  N7  UNL     1      56.394  78.403  64.287  1.00  0.00    -0.293 N 
ATOM     44  H7  UNL     1      56.394  78.560  65.294  1.00  0.00     0.188 HD
ENDBRANCH  37  38
ENDBRANCH  34  37
ENDBRANCH  30  31
ENDBRANCH   3  25
TORSDOF 13
ENDMDL
MODEL 3
REMARK VINA RESULT: -9.729465045      2.382      8.013
REMARK  13 active torsions:
REMARK  status: ('A' for Active; 'I' for Inactive)
REMARK    1  A    between atoms: C1_2  and  C2_3 
REMARK       I    between atoms: C1_2  and  N4_23 
REMARK    2  A    between atoms: C2_3  and  C3_4 
REMARK    3  A    between atoms: C3_4  and  C4_5 
REMARK    4  A    between atoms: C4_5  and  C5_6 
REMARK    5  A    between atoms: C5_6  and  C6_7 
REMARK    6  A    between atoms: C6_7  and  C7_8 
REMARK    7  A    between atoms: C7_8  and  C8_9 
REMARK    8  A    between atoms: C8_9  and  N1_10 
REMARK    9  A    between atoms: C10_12  and  C11_13 
REMARK   10  A    between atoms: N4_23  and  C17_25 
REMARK   11  A    between atoms: C22_30  and  C23_31 
REMARK   12  A    between atoms: C26_34  and  C27_35 
REMARK   13  A    between atoms: C27_35  and  N5_36 
ROOT
HETATM    1  O1  UNL     1      62.375  82.674  65.773  1.00  0.00    -0.273 OA
HETATM    2  C1  UNL     1      61.738  82.763  64.719  1.00  0.00     0.222 C 
HETATM    3  N4  UNL     1      62.112  82.172  63.507  1.00  0.00    -0.326 N 
ATOM      4  H4  UNL     1      61.506  82.332  62.702  1.00  0.00     0.169 HD
ENDROOT
BRANCH   2   5
HETATM    5  C2  UNL     1      60.465  83.591  64.811  1.00  0.00     0.103 C 
BRANCH   5   6
HETATM    6  C3  UNL     1      59.667  83.370  63.583  1.00  0.00     0.009 C 
BRANCH   6   7
HETATM    7  C4  UNL     1      59.107  84.498  62.838  1.00  0.00     0.000 C 
BRANCH   7   8
HETATM    8  C5  UNL     1      59.800  85.135  61.714  1.00  0.00     0.000 C 
BRANCH   8   9
HETATM    9  C6  UNL     1      60.942  86.036  62.033  1.00  0.00     0.002 C 
BRANCH   9  10
HETATM   10  C7  UNL     1      62.171  85.646  61.216  1.00  0.00     0.022 C 
BRANCH  10  11
HETATM   11  C8  UNL     1      62.848  86.873  60.715  1.00  0.00     0.150 C 
BRANCH  11  12
HETATM   12  N1  UNL     1      62.765  86.904  59.254  1.00  0.00    -0.287 N 
HETATM   13  C9  UNL     1      61.784  86.286  58.520  1.00  0.00     0.143 A 
HETATM   14  C10 UNL     1      61.992  86.522  57.187  1.00  0.00     0.076 A 
HETATM   15  N2  UNL     1      63.096  87.281  57.139  1.00  0.00    -0.284 N 
HETATM   16  N3  UNL     1      63.535  87.493  58.367  1.00  0.00    -0.240 N 
ATOM     17  H2  UNL     1      63.529  87.639  56.287  1.00  0.00     0.188 HD
ATOM     18  H3  UNL     1      64.364  88.042  58.596  1.00  0.00     0.208 HD
BRANCH  14  19
HETATM   19  C11 UNL     1      61.223  86.082  56.034  1.00  0.00    -0.007 A 
HETATM   20  C12 UNL     1      61.792  85.320  54.993  1.00  0.00     0.014 A 
HETATM   21  C13 UNL     1      61.039  84.926  53.916  1.00  0.00     0.001 A 
HETATM   22  C14 UNL     1      59.702  85.247  53.796  1.00  0.00     0.000 A 
HETATM   23  C15 UNL     1      59.125  85.999  54.818  1.00  0.00     0.001 A 
HETATM   24  C16 UNL     1      59.897  86.390  55.894  1.00  0.00     0.014 A 
ENDBRANCH  14  19
ENDBRANCH  11  12
ENDBRANCH  10  11
ENDBRANCH   9  10
ENDBRANCH   8   9
ENDBRANCH   7   8
ENDBRANCH   6   7
ENDBRANCH   5   6
ENDBRANCH   2   5
BRANCH   3  25
HETATM   25  C17 UNL     1      63.256  81.373  63.308  1.00  0.00     0.045 A 
HETATM   26  C18 UNL     1      64.508  81.923  63.086  1.00  0.00     0.030 A 
HETATM   27  C19 UNL     1      65.613  81.107  62.992  1.00  0.00     0.002 A 
HETATM   28  C20 UNL     1      65.468  79.718  63.117  1.00  0.00     0.001 A 
HETATM   29  C21 UNL     1      64.216  79.209  63.330  1.00  0.00     0.014 A 
HETATM   30  C22 UNL     1      63.105  79.995  63.429  1.00  0.00     0.001 A 
BRANCH  30  31
HETATM   31  C23 UNL     1      61.814  79.359  63.569  1.00  0.00    -0.024 A 
HETATM   32  C24 UNL     1      60.988  79.080  62.505  1.00  0.00     0.013 A 
HETATM   33  C25 UNL     1      59.744  78.533  62.700  1.00  0.00     0.010 A 
HETATM   34  C26 UNL     1      59.229  78.221  63.943  1.00  0.00    -0.038 A 
HETATM   35  C30 UNL     1      60.075  78.504  65.021  1.00  0.00     0.010 A 
HETATM   36  C31 UNL     1      61.309  79.048  64.837  1.00  0.00     0.013 A 
BRANCH  34  37
HETATM   37  C27 UNL     1      57.885  77.710  64.163  1.00  0.00     0.188 C 
BRANCH  37  38
HETATM   38  N5  UNL     1      56.901  78.639  64.639  1.00  0.00    -0.283 N 
HETATM   39  C28 UNL     1      56.066  78.587  65.679  1.00  0.00     0.201 A 
HETATM   40  N6  UNL     1      55.340  79.739  65.763  1.00  0.00    -0.346 N 
HETATM   41  C29 UNL     1      55.768  80.506  64.723  1.00  0.00     0.198 A 
ATOM     42  H6  UNL     1      54.628  79.975  66.455  1.00  0.00     0.167 HD
HETATM   43  N7  UNL     1      56.703  79.823  64.061  1.00  0.00    -0.293 N 
ATOM     44  H7  UNL     1      57.195  80.158  63.234  1.00  0.00     0.188 HD
ENDBRANCH  37  38
ENDBRANCH  34  37
ENDBRANCH  30  31
ENDBRANCH   3  25
TORSDOF 13
ENDMDL
MODEL 4
REMARK VINA RESULT: -9.707913160      3.017      8.194
REMARK  13 active torsions:
REMARK  status: ('A' for Active; 'I' for Inactive)
REMARK    1  A    between atoms: C1_2  and  C2_3 
REMARK       I    between atoms: C1_2  and  N4_23 
REMARK    2  A    between atoms: C2_3  and  C3_4 
REMARK    3  A    between atoms: C3_4  and  C4_5 
REMARK    4  A    between atoms: C4_5  and  C5_6 
REMARK    5  A    between atoms: C5_6  and  C6_7 
REMARK    6  A    between atoms: C6_7  and  C7_8 
REMARK    7  A    between atoms: C7_8  and  C8_9 
REMARK    8  A    between atoms: C8_9  and  N1_10 
REMARK    9  A    between atoms: C10_12  and  C11_13 
REMARK   10  A    between atoms: N4_23  and  C17_25 
REMARK   11  A    between atoms: C22_30  and  C23_31 
REMARK   12  A    between atoms: C26_34  and  C27_35 
REMARK   13  A    between atoms: C27_35  and  N5_36 
ROOT
HETATM    1  O1  UNL     1      60.838  84.143  64.612  1.00  0.00    -0.273 OA
HETATM    2  C1  UNL     1      60.647  83.737  63.463  1.00  0.00     0.222 C 
HETATM    3  N4  UNL     1      61.556  82.969  62.725  1.00  0.00    -0.326 N 
ATOM      4  H4  UNL     1      61.285  82.706  61.777  1.00  0.00     0.169 HD
ENDROOT
BRANCH   2   5
HETATM    5  C2  UNL     1      59.309  84.136  62.859  1.00  0.00     0.103 C 
BRANCH   5   6
HETATM    6  C3  UNL     1      59.557  85.067  61.733  1.00  0.00     0.009 C 
BRANCH   6   7
HETATM    7  C4  UNL     1      60.656  86.032  61.785  1.00  0.00     0.000 C 
BRANCH   7   8
HETATM    8  C5  UNL     1      61.498  86.345  60.627  1.00  0.00     0.000 C 
BRANCH   8   9
HETATM    9  C6  UNL     1      62.727  85.528  60.431  1.00  0.00     0.002 C 
BRANCH   9  10
HETATM   10  C7  UNL     1      62.503  84.483  59.341  1.00  0.00     0.022 C 
BRANCH  10  11
HETATM   11  C8  UNL     1      63.216  84.893  58.101  1.00  0.00     0.150 C 
BRANCH  11  12
HETATM   12  N1  UNL     1      62.232  85.248  57.076  1.00  0.00    -0.287 N 
HETATM   13  C9  UNL     1      62.127  84.632  55.855  1.00  0.00     0.143 A 
HETATM   14  C10 UNL     1      61.099  85.193  55.145  1.00  0.00     0.076 A 
HETATM   15  N2  UNL     1      60.599  86.140  55.952  1.00  0.00    -0.284 N 
HETATM   16  N3  UNL     1      61.281  86.156  57.083  1.00  0.00    -0.240 N 
ATOM     17  H2  UNL     1      59.815  86.752  55.727  1.00  0.00     0.188 HD
ATOM     18  H3  UNL     1      61.095  86.790  57.860  1.00  0.00     0.208 HD
BRANCH  14  19
HETATM   19  C11 UNL     1      60.607  84.876  53.814  1.00  0.00    -0.007 A 
HETATM   20  C12 UNL     1      59.231  84.790  53.520  1.00  0.00     0.014 A 
HETATM   21  C13 UNL     1      58.799  84.482  52.254  1.00  0.00     0.001 A 
HETATM   22  C14 UNL     1      59.677  84.247  51.215  1.00  0.00     0.000 A 
HETATM   23  C15 UNL     1      61.040  84.330  51.491  1.00  0.00     0.001 A 
HETATM   24  C16 UNL     1      61.458  84.637  52.770  1.00  0.00     0.014 A 
ENDBRANCH  14  19
ENDBRANCH  11  12
ENDBRANCH  10  11
ENDBRANCH   9  10
ENDBRANCH   8   9
ENDBRANCH   7   8
ENDBRANCH   6   7
ENDBRANCH   5   6
ENDBRANCH   2   5
BRANCH   3  25
HETATM   25  C17 UNL     1      62.813  82.527  63.185  1.00  0.00     0.045 A 
HETATM   26  C18 UNL     1      63.959  83.292  63.039  1.00  0.00     0.030 A 
HETATM   27  C19 UNL     1      65.148  82.864  63.587  1.00  0.00     0.002 A 
HETATM   28  C20 UNL     1      65.195  81.652  64.291  1.00  0.00     0.001 A 
HETATM   29  C21 UNL     1      64.045  80.921  64.411  1.00  0.00     0.014 A 
HETATM   30  C22 UNL     1      62.854  81.322  63.879  1.00  0.00     0.001 A 
BRANCH  30  31
HETATM   31  C23 UNL     1      61.714  80.440  63.984  1.00  0.00    -0.024 A 
HETATM   32  C24 UNL     1      60.831  80.465  65.039  1.00  0.00     0.013 A 
HETATM   33  C25 UNL     1      59.801  79.562  65.121  1.00  0.00     0.010 A 
HETATM   34  C26 UNL     1      59.566  78.578  64.180  1.00  0.00    -0.038 A 
HETATM   35  C30 UNL     1      60.466  78.559  63.108  1.00  0.00     0.010 A 
HETATM   36  C31 UNL     1      61.490  79.450  63.020  1.00  0.00     0.013 A 
BRANCH  34  37
HETATM   37  C27 UNL     1      58.523  77.571  64.297  1.00  0.00     0.188 C 
BRANCH  37  38
HETATM   38  N5  UNL     1      57.275  77.843  63.644  1.00  0.00    -0.283 N 
HETATM   39  C28 UNL     1      56.954  77.929  62.351  1.00  0.00     0.201 A 
HETATM   40  N6  UNL     1      55.617  78.162  62.208  1.00  0.00    -0.346 N 
HETATM   41  C29 UNL     1      55.128  78.214  63.477  1.00  0.00     0.198 A 
ATOM     42  H6  UNL     1      55.096  78.273  61.338  1.00  0.00     0.167 HD
HETATM   43  N7  UNL     1      56.142  78.023  64.321  1.00  0.00    -0.293 N 
ATOM     44  H7  UNL     1      56.062  78.016  65.338  1.00  0.00     0.188 HD
ENDBRANCH  37  38
ENDBRANCH  34  37
ENDBRANCH  30  31
ENDBRANCH   3  25
TORSDOF 13
ENDMDL
MODEL 5
REMARK VINA RESULT: -9.665832751      2.952      8.283
REMARK  13 active torsions:
REMARK  status: ('A' for Active; 'I' for Inactive)
REMARK    1  A    between atoms: C1_2  and  C2_3 
REMARK       I    between atoms: C1_2  and  N4_23 
REMARK    2  A    between atoms: C2_3  and  C3_4 
REMARK    3  A    between atoms: C3_4  and  C4_5 
REMARK    4  A    between atoms: C4_5  and  C5_6 
REMARK    5  A    between atoms: C5_6  and  C6_7 
REMARK    6  A    between atoms: C6_7  and  C7_8 
REMARK    7  A    between atoms: C7_8  and  C8_9 
REMARK    8  A    between atoms: C8_9  and  N1_10 
REMARK    9  A    between atoms: C10_12  and  C11_13 
REMARK   10  A    between atoms: N4_23  and  C17_25 
REMARK   11  A    between atoms: C22_30  and  C23_31 
REMARK   12  A    between atoms: C26_34  and  C27_35 
REMARK   13  A    between atoms: C27_35  and  N5_36 
ROOT
HETATM    1  O1  UNL     1      60.758  84.385  64.380  1.00  0.00    -0.273 OA
HETATM    2  C1  UNL     1      60.414  83.937  63.282  1.00  0.00     0.222 C 
HETATM    3  N4  UNL     1      61.065  82.902  62.602  1.00  0.00    -0.326 N 
ATOM      4  H4  UNL     1      60.691  82.631  61.692  1.00  0.00     0.169 HD
ENDROOT
BRANCH   2   5
HETATM    5  C2  UNL     1      59.188  84.605  62.677  1.00  0.00     0.103 C 
BRANCH   5   6
HETATM    6  C3  UNL     1      59.542  85.109  61.329  1.00  0.00     0.009 C 
BRANCH   6   7
HETATM    7  C4  UNL     1      60.747  85.912  61.120  1.00  0.00     0.000 C 
BRANCH   7   8
HETATM    8  C5  UNL     1      61.423  86.014  59.824  1.00  0.00     0.000 C 
BRANCH   8   9
HETATM    9  C6  UNL     1      62.761  86.667  59.798  1.00  0.00     0.002 C 
BRANCH   9  10
HETATM   10  C7  UNL     1      63.094  87.139  58.385  1.00  0.00     0.022 C 
BRANCH  10  11
HETATM   11  C8  UNL     1      64.152  86.266  57.803  1.00  0.00     0.150 C 
BRANCH  11  12
HETATM   12  N1  UNL     1      63.612  85.578  56.628  1.00  0.00    -0.287 N 
HETATM   13  C9  UNL     1      62.426  85.900  56.018  1.00  0.00     0.143 A 
HETATM   14  C10 UNL     1      62.225  85.073  54.944  1.00  0.00     0.076 A 
HETATM   15  N2  UNL     1      63.295  84.267  54.924  1.00  0.00    -0.284 N 
HETATM   16  N3  UNL     1      64.099  84.580  55.925  1.00  0.00    -0.240 N 
ATOM     17  H2  UNL     1      63.463  83.526  54.243  1.00  0.00     0.188 HD
ATOM     18  H3  UNL     1      64.981  84.109  56.125  1.00  0.00     0.208 HD
BRANCH  14  19
HETATM   19  C11 UNL     1      61.122  85.033  53.997  1.00  0.00    -0.007 A 
HETATM   20  C12 UNL     1      61.276  84.552  52.681  1.00  0.00     0.014 A 
HETATM   21  C13 UNL     1      60.216  84.533  51.810  1.00  0.00     0.001 A 
HETATM   22  C14 UNL     1      58.959  84.973  52.171  1.00  0.00     0.000 A 
HETATM   23  C15 UNL     1      58.791  85.450  53.470  1.00  0.00     0.001 A 
HETATM   24  C16 UNL     1      59.869  85.465  54.333  1.00  0.00     0.014 A 
ENDBRANCH  14  19
ENDBRANCH  11  12
ENDBRANCH  10  11
ENDBRANCH   9  10
ENDBRANCH   8   9
ENDBRANCH   7   8
ENDBRANCH   6   7
ENDBRANCH   5   6
ENDBRANCH   2   5
BRANCH   3  25
HETATM   25  C17 UNL     1      62.195  82.201  63.071  1.00  0.00     0.045 A 
HETATM   26  C18 UNL     1      63.428  82.814  63.224  1.00  0.00     0.030 A 
HETATM   27  C19 UNL     1      64.480  82.116  63.775  1.00  0.00     0.002 A 
HETATM   28  C20 UNL     1      64.301  80.785  64.177  1.00  0.00     0.001 A 
HETATM   29  C21 UNL     1      63.071  80.211  64.006  1.00  0.00     0.014 A 
HETATM   30  C22 UNL     1      62.012  80.880  63.464  1.00  0.00     0.001 A 
BRANCH  30  31
HETATM   31  C23 UNL     1      60.776  80.161  63.245  1.00  0.00    -0.024 A 
HETATM   32  C24 UNL     1      60.699  78.986  62.534  1.00  0.00     0.013 A 
HETATM   33  C25 UNL     1      59.491  78.379  62.301  1.00  0.00     0.010 A 
HETATM   34  C26 UNL     1      58.282  78.878  62.746  1.00  0.00    -0.038 A 
HETATM   35  C30 UNL     1      58.368  80.072  63.471  1.00  0.00     0.010 A 
HETATM   36  C31 UNL     1      59.561  80.681  63.706  1.00  0.00     0.013 A 
BRANCH  34  37
HETATM   37  C27 UNL     1      56.992  78.280  62.441  1.00  0.00     0.188 C 
BRANCH  37  38
HETATM   38  N5  UNL     1      56.116  78.014  63.545  1.00  0.00    -0.283 N 
HETATM   39  C28 UNL     1      54.856  78.387  63.784  1.00  0.00     0.201 A 
HETATM   40  N6  UNL     1      54.416  77.847  64.958  1.00  0.00    -0.346 N 
HETATM   41  C29 UNL     1      55.466  77.123  65.432  1.00  0.00     0.198 A 
ATOM     42  H6  UNL     1      53.498  77.963  65.388  1.00  0.00     0.167 HD
HETATM   43  N7  UNL     1      56.475  77.241  64.568  1.00  0.00    -0.293 N 
ATOM     44  H7  UNL     1      57.389  76.802  64.675  1.00  0.00     0.188 HD
ENDBRANCH  37  38
ENDBRANCH  34  37
ENDBRANCH  30  31
ENDBRANCH   3  25
TORSDOF 13
ENDMDL
