MODEL 1
REMARK VINA RESULT: -7.283189386      0.000      0.000
REMARK  5 active torsions:
REMARK  status: ('A' for Active; 'I' for Inactive)
REMARK    1  A    between atoms: C2_2  and  C5_14 
REMARK    2  A    between atoms: N1_3  and  N2_5 
REMARK       I    between atoms: C3_7  and  N4_9 
REMARK    3  A    between atoms: N7_16  and  C7_18 
REMARK    4  A    between atoms: C7_18  and  N8_20 
REMARK    5  A    between atoms: N8_20  and  O1_22 
ROOT
HETATM    1  C1  UNL     1       4.376  19.587  25.611  1.00  0.00     0.072 C 
HETATM    2  C2  UNL     1       4.070  18.151  25.596  1.00  0.00     0.044 C 
HETATM    3  N1  UNL     1       4.911  17.331  25.069  1.00  0.00    -0.301 N 
ATOM      4  H1  UNL     1       4.671  16.339  25.074  1.00  0.00     0.186 HD
ENDROOT
BRANCH   2   5
HETATM    5  C5  UNL     1       2.845  17.589  26.153  1.00  0.00     0.031 C 
HETATM    6  C6  UNL     1       1.584  17.495  25.385  1.00  0.00     0.070 C 
HETATM    7  N7  UNL     1       2.897  17.167  27.367  1.00  0.00    -0.334 N 
ATOM      8  H7  UNL     1       3.768  17.233  27.893  1.00  0.00     0.168 HD
BRANCH   7   9
HETATM    9  C7  UNL     1       1.740  16.606  27.972  1.00  0.00     0.196 C 
HETATM   10  S1  UNL     1       0.968  17.461  29.150  1.00  0.00    -0.039 SA
BRANCH   9  11
HETATM   11  N8  UNL     1       1.262  15.350  27.579  1.00  0.00    -0.243 N 
ATOM     12  H8  UNL     1       0.261  15.156  27.594  1.00  0.00     0.196 HD
BRANCH  11  13
HETATM   13  O1  UNL     1       2.123  14.404  27.184  1.00  0.00    -0.288 OA
ATOM     14  H1  UNL     1       2.237  13.620  27.707  1.00  0.00     0.244 HD
ENDBRANCH  11  13
ENDBRANCH   9  11
ENDBRANCH   7   9
ENDBRANCH   2   5
BRANCH   3  15
HETATM   15  N2  UNL     1       6.112  17.697  24.499  1.00  0.00    -0.273 N 
HETATM   16  C3  UNL     1       6.652  17.074  23.501  1.00  0.00     0.209 C 
HETATM   17  N3  UNL     1       6.077  15.949  22.876  1.00  0.00    -0.062 NA
HETATM   18  N4  UNL     1       7.897  17.544  22.997  1.00  0.00    -0.306 N 
HETATM   19  C4  UNL     1       7.884  18.483  22.095  1.00  0.00     0.203 C 
ATOM     20  H4  UNL     1       8.779  17.155  23.334  1.00  0.00     0.170 HD
HETATM   21  N5  UNL     1       9.143  18.924  21.619  1.00  0.00    -0.066 NA
HETATM   22  N6  UNL     1       6.664  19.041  21.607  1.00  0.00    -0.066 NA
ATOM     23  H2  UNL     1       6.603  18.503  24.886  1.00  0.00     0.189 HD
ENDBRANCH   3  15
TORSDOF 5
ENDMDL
MODEL 2
REMARK VINA RESULT: -7.209264908      1.554      1.554
REMARK  5 active torsions:
REMARK  status: ('A' for Active; 'I' for Inactive)
REMARK    1  A    between atoms: C2_2  and  C5_14 
REMARK    2  A    between atoms: N1_3  and  N2_5 
REMARK       I    between atoms: C3_7  and  N4_9 
REMARK    3  A    between atoms: N7_16  and  C7_18 
REMARK    4  A    between atoms: C7_18  and  N8_20 
REMARK    5  A    between atoms: N8_20  and  O1_22 
ROOT
HETATM    1  C1  UNL     1       4.305  19.732  24.596  1.00  0.00     0.072 C 
HETATM    2  C2  UNL     1       4.219  18.352  25.091  1.00  0.00     0.044 C 
HETATM    3  N1  UNL     1       5.214  17.554  24.915  1.00  0.00    -0.301 N 
ATOM      4  H1  UNL     1       5.126  16.602  25.271  1.00  0.00     0.186 HD
ENDROOT
BRANCH   2   5
HETATM    5  C5  UNL     1       3.050  17.822  25.784  1.00  0.00     0.031 C 
HETATM    6  C6  UNL     1       1.707  17.774  25.168  1.00  0.00     0.070 C 
HETATM    7  N7  UNL     1       3.230  17.388  26.981  1.00  0.00    -0.334 N 
ATOM      8  H7  UNL     1       4.157  17.423  27.404  1.00  0.00     0.168 HD
BRANCH   7   9
HETATM    9  C7  UNL     1       2.134  16.857  27.714  1.00  0.00     0.196 C 
HETATM   10  S1  UNL     1       1.664  15.304  27.429  1.00  0.00    -0.039 SA
BRANCH   9  11
HETATM   11  N8  UNL     1       1.461  17.638  28.662  1.00  0.00    -0.243 N 
ATOM     12  H8  UNL     1       0.623  17.279  29.119  1.00  0.00     0.196 HD
BRANCH  11  13
HETATM   13  O1  UNL     1       1.920  18.858  28.967  1.00  0.00    -0.288 OA
ATOM     14  H1  UNL     1       2.645  18.952  29.573  1.00  0.00     0.244 HD
ENDBRANCH  11  13
ENDBRANCH   9  11
ENDBRANCH   7   9
ENDBRANCH   2   5
BRANCH   3  15
HETATM   15  N2  UNL     1       6.390  17.895  24.281  1.00  0.00    -0.273 N 
HETATM   16  C3  UNL     1       6.883  17.237  23.281  1.00  0.00     0.209 C 
HETATM   17  N3  UNL     1       6.277  16.094  22.721  1.00  0.00    -0.062 NA
HETATM   18  N4  UNL     1       8.106  17.683  22.707  1.00  0.00    -0.306 N 
HETATM   19  C4  UNL     1       8.056  18.591  21.775  1.00  0.00     0.203 C 
ATOM     20  H4  UNL     1       9.000  17.302  23.017  1.00  0.00     0.170 HD
HETATM   21  N5  UNL     1       9.294  19.010  21.228  1.00  0.00    -0.066 NA
HETATM   22  N6  UNL     1       6.817  19.139  21.323  1.00  0.00    -0.066 NA
ATOM     23  H2  UNL     1       6.900  18.712  24.618  1.00  0.00     0.189 HD
ENDBRANCH   3  15
TORSDOF 5
ENDMDL
MODEL 3
REMARK VINA RESULT: -6.074954872      5.138      6.855
REMARK  5 active torsions:
REMARK  status: ('A' for Active; 'I' for Inactive)
REMARK    1  A    between atoms: C2_2  and  C5_14 
REMARK    2  A    between atoms: N1_3  and  N2_5 
REMARK       I    between atoms: C3_7  and  N4_9 
REMARK    3  A    between atoms: N7_16  and  C7_18 
REMARK    4  A    between atoms: C7_18  and  N8_20 
REMARK    5  A    between atoms: N8_20  and  O1_22 
ROOT
HETATM    1  C1  UNL     1       3.359  19.627  24.726  1.00  0.00     0.072 C 
HETATM    2  C2  UNL     1       3.741  19.089  23.415  1.00  0.00     0.044 C 
HETATM    3  N1  UNL     1       3.003  19.338  22.390  1.00  0.00    -0.301 N 
ATOM      4  H1  UNL     1       3.294  18.952  21.492  1.00  0.00     0.186 HD
ENDROOT
BRANCH   2   5
HETATM    5  C5  UNL     1       4.931  18.273  23.201  1.00  0.00     0.031 C 
HETATM    6  C6  UNL     1       4.940  17.084  22.322  1.00  0.00     0.070 C 
HETATM    7  N7  UNL     1       6.001  18.631  23.818  1.00  0.00    -0.334 N 
ATOM      8  H7  UNL     1       5.992  19.451  24.424  1.00  0.00     0.168 HD
BRANCH   7   9
HETATM    9  C7  UNL     1       7.198  17.881  23.655  1.00  0.00     0.196 C 
HETATM   10  S1  UNL     1       8.225  18.281  22.430  1.00  0.00    -0.039 SA
BRANCH   9  11
HETATM   11  N8  UNL     1       7.501  16.819  24.515  1.00  0.00    -0.243 N 
ATOM     12  H8  UNL     1       7.954  16.999  25.411  1.00  0.00     0.196 HD
BRANCH  11  13
HETATM   13  O1  UNL     1       7.194  15.565  24.160  1.00  0.00    -0.288 OA
ATOM     14  H1  UNL     1       7.858  15.007  23.774  1.00  0.00     0.244 HD
ENDBRANCH  11  13
ENDBRANCH   9  11
ENDBRANCH   7   9
ENDBRANCH   2   5
BRANCH   3  15
HETATM   15  N2  UNL     1       1.847  20.090  22.420  1.00  0.00    -0.273 N 
HETATM   16  C3  UNL     1       1.115  20.323  21.378  1.00  0.00     0.209 C 
HETATM   17  N3  UNL     1       1.411  19.837  20.089  1.00  0.00    -0.062 NA
HETATM   18  N4  UNL     1      -0.057  21.115  21.531  1.00  0.00    -0.306 N 
HETATM   19  C4  UNL     1      -1.163  20.521  21.878  1.00  0.00     0.203 C 
ATOM     20  H4  UNL     1      -0.032  22.123  21.374  1.00  0.00     0.170 HD
HETATM   21  N5  UNL     1      -2.308  21.343  22.021  1.00  0.00    -0.066 NA
HETATM   22  N6  UNL     1      -1.222  19.113  22.102  1.00  0.00    -0.066 NA
ATOM     23  H2  UNL     1       1.552  20.484  23.314  1.00  0.00     0.189 HD
ENDBRANCH   3  15
TORSDOF 5
ENDMDL
MODEL 4
REMARK VINA RESULT: -6.029746382      5.297      6.818
REMARK  5 active torsions:
REMARK  status: ('A' for Active; 'I' for Inactive)
REMARK    1  A    between atoms: C2_2  and  C5_14 
REMARK    2  A    between atoms: N1_3  and  N2_5 
REMARK       I    between atoms: C3_7  and  N4_9 
REMARK    3  A    between atoms: N7_16  and  C7_18 
REMARK    4  A    between atoms: C7_18  and  N8_20 
REMARK    5  A    between atoms: N8_20  and  O1_22 
ROOT
HETATM    1  C1  UNL     1       2.405  18.227  23.472  1.00  0.00     0.072 C 
HETATM    2  C2  UNL     1       3.542  18.635  22.638  1.00  0.00     0.044 C 
HETATM    3  N1  UNL     1       3.332  19.019  21.427  1.00  0.00    -0.301 N 
ATOM      4  H1  UNL     1       4.141  19.298  20.872  1.00  0.00     0.186 HD
ENDROOT
BRANCH   2   5
HETATM    5  C5  UNL     1       4.922  18.631  23.110  1.00  0.00     0.031 C 
HETATM    6  C6  UNL     1       5.425  19.580  24.126  1.00  0.00     0.070 C 
HETATM    7  N7  UNL     1       5.710  17.752  22.598  1.00  0.00    -0.334 N 
ATOM      8  H7  UNL     1       5.361  17.099  21.897  1.00  0.00     0.168 HD
BRANCH   7   9
HETATM    9  C7  UNL     1       7.068  17.692  23.012  1.00  0.00     0.196 C 
HETATM   10  S1  UNL     1       8.198  18.530  22.155  1.00  0.00    -0.039 SA
BRANCH   9  11
HETATM   11  N8  UNL     1       7.444  16.934  24.128  1.00  0.00    -0.243 N 
ATOM     12  H8  UNL     1       7.934  17.376  24.906  1.00  0.00     0.196 HD
BRANCH  11  13
HETATM   13  O1  UNL     1       7.159  15.626  24.171  1.00  0.00    -0.288 OA
ATOM     14  H1  UNL     1       7.598  15.027  23.579  1.00  0.00     0.244 HD
ENDBRANCH  11  13
ENDBRANCH   9  11
ENDBRANCH   7   9
ENDBRANCH   2   5
BRANCH   3  15
HETATM   15  N2  UNL     1       2.092  19.081  20.828  1.00  0.00    -0.273 N 
HETATM   16  C3  UNL     1       1.489  20.189  20.538  1.00  0.00     0.209 C 
HETATM   17  N3  UNL     1       2.029  21.465  20.798  1.00  0.00    -0.062 NA
HETATM   18  N4  UNL     1       0.208  20.128  19.920  1.00  0.00    -0.306 N 
HETATM   19  C4  UNL     1       0.152  20.037  18.622  1.00  0.00     0.203 C 
ATOM     20  H4  UNL     1      -0.645  20.155  20.480  1.00  0.00     0.170 HD
HETATM   21  N5  UNL     1      -1.140  19.978  18.045  1.00  0.00    -0.066 NA
HETATM   22  N6  UNL     1       1.331  19.999  17.819  1.00  0.00    -0.066 NA
ATOM     23  H2  UNL     1       1.622  18.204  20.600  1.00  0.00     0.189 HD
ENDBRANCH   3  15
TORSDOF 5
ENDMDL
MODEL 5
REMARK VINA RESULT: -6.028579328      5.596      6.849
REMARK  5 active torsions:
REMARK  status: ('A' for Active; 'I' for Inactive)
REMARK    1  A    between atoms: C2_2  and  C5_14 
REMARK    2  A    between atoms: N1_3  and  N2_5 
REMARK       I    between atoms: C3_7  and  N4_9 
REMARK    3  A    between atoms: N7_16  and  C7_18 
REMARK    4  A    between atoms: C7_18  and  N8_20 
REMARK    5  A    between atoms: N8_20  and  O1_22 
ROOT
HETATM    1  C1  UNL     1       5.344  19.785  20.678  1.00  0.00     0.072 C 
HETATM    2  C2  UNL     1       4.317  20.426  21.508  1.00  0.00     0.044 C 
HETATM    3  N1  UNL     1       4.266  20.162  22.768  1.00  0.00    -0.301 N 
ATOM      4  H1  UNL     1       3.542  20.623  23.319  1.00  0.00     0.186 HD
ENDROOT
BRANCH   2   5
HETATM    5  C5  UNL     1       3.331  21.362  20.980  1.00  0.00     0.031 C 
HETATM    6  C6  UNL     1       1.992  20.940  20.517  1.00  0.00     0.070 C 
HETATM    7  N7  UNL     1       3.673  22.601  20.928  1.00  0.00    -0.334 N 
ATOM      8  H7  UNL     1       4.598  22.889  21.248  1.00  0.00     0.168 HD
BRANCH   7   9
HETATM    9  C7  UNL     1       2.761  23.567  20.424  1.00  0.00     0.196 C 
HETATM   10  S1  UNL     1       2.945  24.103  18.878  1.00  0.00    -0.039 SA
BRANCH   9  11
HETATM   11  N8  UNL     1       1.724  24.060  21.226  1.00  0.00    -0.243 N 
ATOM     12  H8  UNL     1       1.792  24.003  22.242  1.00  0.00     0.196 HD
BRANCH  11  13
HETATM   13  O1  UNL     1       0.643  24.606  20.656  1.00  0.00    -0.288 OA
ATOM     14  H1  UNL     1       0.638  24.778  19.722  1.00  0.00     0.244 HD
ENDBRANCH  11  13
ENDBRANCH   9  11
ENDBRANCH   7   9
ENDBRANCH   2   5
BRANCH   3  15
HETATM   15  N2  UNL     1       5.121  19.301  23.423  1.00  0.00    -0.273 N 
HETATM   16  C3  UNL     1       4.773  18.127  23.844  1.00  0.00     0.209 C 
HETATM   17  N3  UNL     1       3.481  17.588  23.682  1.00  0.00    -0.062 NA
HETATM   18  N4  UNL     1       5.743  17.326  24.510  1.00  0.00    -0.306 N 
HETATM   19  C4  UNL     1       6.523  16.574  23.789  1.00  0.00     0.203 C 
ATOM     20  H4  UNL     1       5.826  17.342  25.527  1.00  0.00     0.170 HD
HETATM   21  N5  UNL     1       7.475  15.792  24.487  1.00  0.00    -0.066 NA
HETATM   22  N6  UNL     1       6.425  16.535  22.365  1.00  0.00    -0.066 NA
ATOM     23  H2  UNL     1       6.081  19.606  23.586  1.00  0.00     0.189 HD
ENDBRANCH   3  15
TORSDOF 5
ENDMDL
