MODEL 1
REMARK VINA RESULT: -6.628359024      0.000      0.000
REMARK  15 active torsions:
REMARK  status: ('A' for Active; 'I' for Inactive)
REMARK    1  A    between atoms: C2_2  and  O2_4 
REMARK    2  A    between atoms: O2_4  and  C3_5 
REMARK    3  A    between atoms: C3_5  and  N1_6 
REMARK    4  A    between atoms: C3_5  and  C8_16 
REMARK    5  A    between atoms: C3_5  and  C14_22 
REMARK       I    between atoms: N1_6  and  C4_8 
REMARK    6  A    between atoms: C4_8  and  O4_10 
REMARK    7  A    between atoms: O4_10  and  C5_11 
REMARK    8  A    between atoms: C5_11  and  O5_14 
REMARK    9  A    between atoms: C14_22  and  O6_23 
REMARK   10  A    between atoms: C14_22  and  C15_25 
REMARK   11  A    between atoms: C15_25  and  O7_26 
REMARK   12  A    between atoms: C15_25  and  C16_28 
REMARK   13  A    between atoms: C16_28  and  O8_29 
REMARK   14  A    between atoms: C16_28  and  C17_31 
REMARK   15  A    between atoms: C17_31  and  O9_32 
ROOT
HETATM    1  C3  UNL     1      22.596  47.098   6.729  1.00  0.00     0.204 C 
ENDROOT
BRANCH   1   2
HETATM    2  O2  UNL     1      23.367  46.262   5.937  1.00  0.00    -0.282 OA
BRANCH   2   3
HETATM    3  C2  UNL     1      24.675  46.006   5.984  1.00  0.00     0.257 C 
HETATM    4  C1  UNL     1      25.246  44.767   6.676  1.00  0.00     0.126 C 
HETATM    5  O1  UNL     1      25.485  46.800   5.447  1.00  0.00    -0.266 OA
ENDBRANCH   2   3
ENDBRANCH   1   2
BRANCH   1   6
HETATM    6  N1  UNL     1      22.497  46.386   8.013  1.00  0.00    -0.298 N 
HETATM    7  C4  UNL     1      22.110  45.026   8.154  1.00  0.00     0.365 C 
HETATM    8  O3  UNL     1      21.779  44.319   7.186  1.00  0.00    -0.238 OA
ATOM      9  H1  UNL     1      22.722  46.905   8.862  1.00  0.00     0.168 HD
BRANCH   7  10
HETATM   10  O4  UNL     1      22.098  44.471   9.408  1.00  0.00    -0.267 OA
BRANCH  10  11
HETATM   11  C5  UNL     1      22.142  43.108   9.723  1.00  0.00     0.165 C 
HETATM   12  C6  UNL     1      23.220  42.333   8.999  1.00  0.00     0.079 C 
HETATM   13  C7  UNL     1      22.528  43.044  11.217  1.00  0.00     0.079 C 
BRANCH  11  14
HETATM   14  O5  UNL     1      20.923  42.481   9.523  1.00  0.00    -0.365 OA
ATOM     15  H5  UNL     1      20.677  41.928  10.255  1.00  0.00     0.213 HD
ENDBRANCH  11  14
ENDBRANCH  10  11
ENDBRANCH   7  10
ENDBRANCH   1   6
BRANCH   1  16
HETATM   16  C8  UNL     1      23.181  48.446   6.930  1.00  0.00     0.000 A 
HETATM   17  C9  UNL     1      23.469  49.280   5.890  1.00  0.00     0.012 A 
HETATM   18  C10 UNL     1      24.000  50.574   6.053  1.00  0.00     0.001 A 
HETATM   19  C11 UNL     1      24.251  51.042   7.310  1.00  0.00     0.000 A 
HETATM   20  C12 UNL     1      23.975  50.224   8.387  1.00  0.00     0.001 A 
HETATM   21  C13 UNL     1      23.456  48.962   8.209  1.00  0.00     0.012 A 
ENDBRANCH   1  16
BRANCH   1  22
HETATM   22  C14 UNL     1      21.216  47.183   6.199  1.00  0.00     0.210 C 
BRANCH  22  23
HETATM   23  O6  UNL     1      20.378  47.690   7.231  1.00  0.00    -0.388 OA
ATOM     24  H6  UNL     1      19.503  47.792   6.876  1.00  0.00     0.210 HD
ENDBRANCH  22  23
BRANCH  22  25
HETATM   25  C15 UNL     1      20.862  47.762   4.903  1.00  0.00     0.182 C 
BRANCH  25  26
HETATM   26  O7  UNL     1      20.889  46.605   4.010  1.00  0.00    -0.390 OA
ATOM     27  H7  UNL     1      21.269  46.960   3.215  1.00  0.00     0.210 HD
ENDBRANCH  25  26
BRANCH  25  28
HETATM   28  C16 UNL     1      19.383  48.167   4.740  1.00  0.00     0.173 C 
BRANCH  28  29
HETATM   29  O8  UNL     1      18.541  47.078   4.715  1.00  0.00    -0.391 OA
ATOM     30  H8  UNL     1      18.039  47.027   3.911  1.00  0.00     0.210 HD
ENDBRANCH  28  29
BRANCH  28  31
HETATM   31  C17 UNL     1      19.314  48.693   3.273  1.00  0.00     0.198 C 
BRANCH  31  32
HETATM   32  O9  UNL     1      20.460  49.466   3.094  1.00  0.00    -0.398 OA
ATOM     33  H9  UNL     1      20.542  49.591   2.156  1.00  0.00     0.209 HD
ENDBRANCH  31  32
ENDBRANCH  28  31
ENDBRANCH  25  28
ENDBRANCH  22  25
ENDBRANCH   1  22
TORSDOF 15
ENDMDL
MODEL 2
REMARK VINA RESULT: -6.478983648      1.663      6.040
REMARK  15 active torsions:
REMARK  status: ('A' for Active; 'I' for Inactive)
REMARK    1  A    between atoms: C2_2  and  O2_4 
REMARK    2  A    between atoms: O2_4  and  C3_5 
REMARK    3  A    between atoms: C3_5  and  N1_6 
REMARK    4  A    between atoms: C3_5  and  C8_16 
REMARK    5  A    between atoms: C3_5  and  C14_22 
REMARK       I    between atoms: N1_6  and  C4_8 
REMARK    6  A    between atoms: C4_8  and  O4_10 
REMARK    7  A    between atoms: O4_10  and  C5_11 
REMARK    8  A    between atoms: C5_11  and  O5_14 
REMARK    9  A    between atoms: C14_22  and  O6_23 
REMARK   10  A    between atoms: C14_22  and  C15_25 
REMARK   11  A    between atoms: C15_25  and  O7_26 
REMARK   12  A    between atoms: C15_25  and  C16_28 
REMARK   13  A    between atoms: C16_28  and  O8_29 
REMARK   14  A    between atoms: C16_28  and  C17_31 
REMARK   15  A    between atoms: C17_31  and  O9_32 
ROOT
HETATM    1  C3  UNL     1      22.228  46.572   6.477  1.00  0.00     0.204 C 
ENDROOT
BRANCH   1   2
HETATM    2  O2  UNL     1      23.254  46.146   5.647  1.00  0.00    -0.282 OA
BRANCH   2   3
HETATM    3  C2  UNL     1      24.568  46.096   5.868  1.00  0.00     0.257 C 
HETATM    4  C1  UNL     1      25.245  44.894   6.531  1.00  0.00     0.126 C 
HETATM    5  O1  UNL     1      25.294  47.061   5.528  1.00  0.00    -0.266 OA
ENDBRANCH   2   3
ENDBRANCH   1   2
BRANCH   1   6
HETATM    6  N1  UNL     1      22.847  47.619   7.304  1.00  0.00    -0.298 N 
HETATM    7  C4  UNL     1      23.063  48.959   6.882  1.00  0.00     0.365 C 
HETATM    8  O3  UNL     1      22.774  49.358   5.739  1.00  0.00    -0.238 OA
ATOM      9  H1  UNL     1      23.143  47.366   8.247  1.00  0.00     0.168 HD
BRANCH   7  10
HETATM   10  O4  UNL     1      23.614  49.848   7.768  1.00  0.00    -0.267 OA
BRANCH  10  11
HETATM   11  C5  UNL     1      24.028  51.158   7.496  1.00  0.00     0.165 C 
HETATM   12  C6  UNL     1      24.550  51.912   8.698  1.00  0.00     0.079 C 
HETATM   13  C7  UNL     1      25.238  51.017   6.547  1.00  0.00     0.079 C 
BRANCH  11  14
HETATM   14  O5  UNL     1      23.035  51.908   6.888  1.00  0.00    -0.365 OA
ATOM     15  H5  UNL     1      23.349  52.365   6.117  1.00  0.00     0.213 HD
ENDBRANCH  11  14
ENDBRANCH  10  11
ENDBRANCH   7  10
ENDBRANCH   1   6
BRANCH   1  16
HETATM   16  C8  UNL     1      21.053  47.114   5.752  1.00  0.00     0.000 A 
HETATM   17  C9  UNL     1      19.922  47.520   6.396  1.00  0.00     0.012 A 
HETATM   18  C10 UNL     1      18.801  48.061   5.737  1.00  0.00     0.001 A 
HETATM   19  C11 UNL     1      18.824  48.197   4.379  1.00  0.00     0.000 A 
HETATM   20  C12 UNL     1      19.952  47.793   3.693  1.00  0.00     0.001 A 
HETATM   21  C13 UNL     1      21.038  47.266   4.354  1.00  0.00     0.012 A 
ENDBRANCH   1  16
BRANCH   1  22
HETATM   22  C14 UNL     1      21.836  45.491   7.409  1.00  0.00     0.210 C 
BRANCH  22  23
HETATM   23  O6  UNL     1      21.507  44.341   6.638  1.00  0.00    -0.388 OA
ATOM     24  H6  UNL     1      21.101  43.705   7.216  1.00  0.00     0.210 HD
ENDBRANCH  22  23
BRANCH  22  25
HETATM   25  C15 UNL     1      22.586  45.120   8.609  1.00  0.00     0.182 C 
BRANCH  25  26
HETATM   26  O7  UNL     1      21.758  45.652   9.690  1.00  0.00    -0.390 OA
ATOM     27  H7  UNL     1      21.065  45.006   9.764  1.00  0.00     0.210 HD
ENDBRANCH  25  26
BRANCH  25  28
HETATM   28  C16 UNL     1      22.548  43.623   8.980  1.00  0.00     0.173 C 
BRANCH  28  29
HETATM   29  O8  UNL     1      21.263  43.163   9.168  1.00  0.00    -0.391 OA
ATOM     30  H8  UNL     1      21.243  42.266   9.479  1.00  0.00     0.210 HD
ENDBRANCH  28  29
BRANCH  28  31
HETATM   31  C17 UNL     1      23.142  43.595  10.422  1.00  0.00     0.198 C 
BRANCH  31  32
HETATM   32  O9  UNL     1      22.252  42.839  11.183  1.00  0.00    -0.398 OA
ATOM     33  H9  UNL     1      22.108  42.039  10.691  1.00  0.00     0.209 HD
ENDBRANCH  31  32
ENDBRANCH  28  31
ENDBRANCH  25  28
ENDBRANCH  22  25
ENDBRANCH   1  22
TORSDOF 15
ENDMDL
MODEL 3
REMARK VINA RESULT: -6.387621615      1.776      5.912
REMARK  15 active torsions:
REMARK  status: ('A' for Active; 'I' for Inactive)
REMARK    1  A    between atoms: C2_2  and  O2_4 
REMARK    2  A    between atoms: O2_4  and  C3_5 
REMARK    3  A    between atoms: C3_5  and  N1_6 
REMARK    4  A    between atoms: C3_5  and  C8_16 
REMARK    5  A    between atoms: C3_5  and  C14_22 
REMARK       I    between atoms: N1_6  and  C4_8 
REMARK    6  A    between atoms: C4_8  and  O4_10 
REMARK    7  A    between atoms: O4_10  and  C5_11 
REMARK    8  A    between atoms: C5_11  and  O5_14 
REMARK    9  A    between atoms: C14_22  and  O6_23 
REMARK   10  A    between atoms: C14_22  and  C15_25 
REMARK   11  A    between atoms: C15_25  and  O7_26 
REMARK   12  A    between atoms: C15_25  and  C16_28 
REMARK   13  A    between atoms: C16_28  and  O8_29 
REMARK   14  A    between atoms: C16_28  and  C17_31 
REMARK   15  A    between atoms: C17_31  and  O9_32 
ROOT
HETATM    1  C3  UNL     1      22.497  46.653   6.690  1.00  0.00     0.204 C 
ENDROOT
BRANCH   1   2
HETATM    2  O2  UNL     1      23.459  46.212   5.794  1.00  0.00    -0.282 OA
BRANCH   2   3
HETATM    3  C2  UNL     1      24.785  46.154   5.923  1.00  0.00     0.257 C 
HETATM    4  C1  UNL     1      25.496  44.971   6.586  1.00  0.00     0.126 C 
HETATM    5  O1  UNL     1      25.495  47.095   5.494  1.00  0.00    -0.266 OA
ENDBRANCH   2   3
ENDBRANCH   1   2
BRANCH   1   6
HETATM    6  N1  UNL     1      23.136  47.788   7.374  1.00  0.00    -0.298 N 
HETATM    7  C4  UNL     1      23.189  49.113   6.860  1.00  0.00     0.365 C 
HETATM    8  O3  UNL     1      22.722  49.422   5.750  1.00  0.00    -0.238 OA
ATOM      9  H1  UNL     1      23.572  47.613   8.279  1.00  0.00     0.168 HD
BRANCH   7  10
HETATM   10  O4  UNL     1      23.781  50.089   7.620  1.00  0.00    -0.267 OA
BRANCH  10  11
HETATM   11  C5  UNL     1      24.041  51.410   7.234  1.00  0.00     0.165 C 
HETATM   12  C6  UNL     1      24.572  52.292   8.342  1.00  0.00     0.079 C 
HETATM   13  C7  UNL     1      25.186  51.318   6.203  1.00  0.00     0.079 C 
BRANCH  11  14
HETATM   14  O5  UNL     1      22.937  52.019   6.663  1.00  0.00    -0.365 OA
ATOM     15  H5  UNL     1      22.666  52.796   7.137  1.00  0.00     0.213 HD
ENDBRANCH  11  14
ENDBRANCH  10  11
ENDBRANCH   7  10
ENDBRANCH   1   6
BRANCH   1  16
HETATM   16  C8  UNL     1      21.230  47.082   6.049  1.00  0.00     0.000 A 
HETATM   17  C9  UNL     1      20.169  47.547   6.769  1.00  0.00     0.012 A 
HETATM   18  C10 UNL     1      18.964  47.985   6.186  1.00  0.00     0.001 A 
HETATM   19  C11 UNL     1      18.826  47.952   4.829  1.00  0.00     0.000 A 
HETATM   20  C12 UNL     1      19.879  47.484   4.068  1.00  0.00     0.001 A 
HETATM   21  C13 UNL     1      21.049  47.060   4.655  1.00  0.00     0.012 A 
ENDBRANCH   1  16
BRANCH   1  22
HETATM   22  C14 UNL     1      22.255  45.629   7.732  1.00  0.00     0.210 C 
BRANCH  22  23
HETATM   23  O6  UNL     1      21.749  46.288   8.888  1.00  0.00    -0.388 OA
ATOM     24  H6  UNL     1      20.931  45.870   9.130  1.00  0.00     0.210 HD
ENDBRANCH  22  23
BRANCH  22  25
HETATM   25  C15 UNL     1      21.557  44.364   7.502  1.00  0.00     0.182 C 
BRANCH  25  26
HETATM   26  O7  UNL     1      22.505  43.613   6.681  1.00  0.00    -0.390 OA
ATOM     27  H7  UNL     1      22.069  43.571   5.838  1.00  0.00     0.210 HD
ENDBRANCH  25  26
BRANCH  25  28
HETATM   28  C16 UNL     1      21.478  43.419   8.719  1.00  0.00     0.173 C 
BRANCH  28  29
HETATM   29  O8  UNL     1      22.377  43.760   9.705  1.00  0.00    -0.391 OA
ATOM     30  H8  UNL     1      23.269  43.804   9.382  1.00  0.00     0.210 HD
ENDBRANCH  28  29
BRANCH  28  31
HETATM   31  C17 UNL     1      22.056  42.078   8.170  1.00  0.00     0.198 C 
BRANCH  31  32
HETATM   32  O9  UNL     1      20.953  41.329   7.764  1.00  0.00    -0.398 OA
ATOM     33  H9  UNL     1      21.084  40.461   8.127  1.00  0.00     0.209 HD
ENDBRANCH  31  32
ENDBRANCH  28  31
ENDBRANCH  25  28
ENDBRANCH  22  25
ENDBRANCH   1  22
TORSDOF 15
ENDMDL
MODEL 4
REMARK VINA RESULT: -6.313864230      1.056      1.879
REMARK  15 active torsions:
REMARK  status: ('A' for Active; 'I' for Inactive)
REMARK    1  A    between atoms: C2_2  and  O2_4 
REMARK    2  A    between atoms: O2_4  and  C3_5 
REMARK    3  A    between atoms: C3_5  and  N1_6 
REMARK    4  A    between atoms: C3_5  and  C8_16 
REMARK    5  A    between atoms: C3_5  and  C14_22 
REMARK       I    between atoms: N1_6  and  C4_8 
REMARK    6  A    between atoms: C4_8  and  O4_10 
REMARK    7  A    between atoms: O4_10  and  C5_11 
REMARK    8  A    between atoms: C5_11  and  O5_14 
REMARK    9  A    between atoms: C14_22  and  O6_23 
REMARK   10  A    between atoms: C14_22  and  C15_25 
REMARK   11  A    between atoms: C15_25  and  O7_26 
REMARK   12  A    between atoms: C15_25  and  C16_28 
REMARK   13  A    between atoms: C16_28  and  O8_29 
REMARK   14  A    between atoms: C16_28  and  C17_31 
REMARK   15  A    between atoms: C17_31  and  O9_32 
ROOT
HETATM    1  C3  UNL     1      22.464  47.242   6.262  1.00  0.00     0.204 C 
ENDROOT
BRANCH   1   2
HETATM    2  O2  UNL     1      23.379  46.448   5.588  1.00  0.00    -0.282 OA
BRANCH   2   3
HETATM    3  C2  UNL     1      24.688  46.292   5.790  1.00  0.00     0.257 C 
HETATM    4  C1  UNL     1      25.269  45.075   6.513  1.00  0.00     0.126 C 
HETATM    5  O1  UNL     1      25.489  47.166   5.380  1.00  0.00    -0.266 OA
ENDBRANCH   2   3
ENDBRANCH   1   2
BRANCH   1   6
HETATM    6  N1  UNL     1      22.218  46.519   7.520  1.00  0.00    -0.298 N 
HETATM    7  C4  UNL     1      21.992  45.119   7.615  1.00  0.00     0.365 C 
HETATM    8  O3  UNL     1      21.946  44.377   6.618  1.00  0.00    -0.238 OA
ATOM      9  H1  UNL     1      22.209  47.061   8.384  1.00  0.00     0.168 HD
BRANCH   7  10
HETATM   10  O4  UNL     1      21.816  44.564   8.856  1.00  0.00    -0.267 OA
BRANCH  10  11
HETATM   11  C5  UNL     1      22.239  43.297   9.277  1.00  0.00     0.165 C 
HETATM   12  C6  UNL     1      22.637  43.222  10.734  1.00  0.00     0.079 C 
HETATM   13  C7  UNL     1      20.999  42.386   9.146  1.00  0.00     0.079 C 
BRANCH  11  14
HETATM   14  O5  UNL     1      23.273  42.802   8.500  1.00  0.00    -0.365 OA
ATOM     15  H5  UNL     1      22.975  42.158   7.869  1.00  0.00     0.213 HD
ENDBRANCH  11  14
ENDBRANCH  10  11
ENDBRANCH   7  10
ENDBRANCH   1   6
BRANCH   1  16
HETATM   16  C8  UNL     1      22.949  48.615   6.542  1.00  0.00     0.000 A 
HETATM   17  C9  UNL     1      22.879  49.617   5.620  1.00  0.00     0.012 A 
HETATM   18  C10 UNL     1      23.308  50.935   5.866  1.00  0.00     0.001 A 
HETATM   19  C11 UNL     1      23.828  51.253   7.088  1.00  0.00     0.000 A 
HETATM   20  C12 UNL     1      23.918  50.263   8.046  1.00  0.00     0.001 A 
HETATM   21  C13 UNL     1      23.493  48.979   7.786  1.00  0.00     0.012 A 
ENDBRANCH   1  16
BRANCH   1  22
HETATM   22  C14 UNL     1      21.171  47.264   5.541  1.00  0.00     0.210 C 
BRANCH  22  23
HETATM   23  O6  UNL     1      21.304  46.468   4.370  1.00  0.00    -0.388 OA
ATOM     24  H6  UNL     1      20.969  46.967   3.634  1.00  0.00     0.210 HD
ENDBRANCH  22  23
BRANCH  22  25
HETATM   25  C15 UNL     1      19.868  47.051   6.173  1.00  0.00     0.182 C 
BRANCH  25  26
HETATM   26  O7  UNL     1      19.725  48.228   7.029  1.00  0.00    -0.390 OA
ATOM     27  H7  UNL     1      18.793  48.409   6.986  1.00  0.00     0.210 HD
ENDBRANCH  25  26
BRANCH  25  28
HETATM   28  C16 UNL     1      18.644  47.260   5.258  1.00  0.00     0.173 C 
BRANCH  28  29
HETATM   29  O8  UNL     1      18.911  48.118   4.214  1.00  0.00    -0.391 OA
ATOM     30  H8  UNL     1      18.119  48.439   3.799  1.00  0.00     0.210 HD
ENDBRANCH  28  29
BRANCH  28  31
HETATM   31  C17 UNL     1      17.666  48.087   6.148  1.00  0.00     0.198 C 
BRANCH  31  32
HETATM   32  O9  UNL     1      16.661  47.200   6.530  1.00  0.00    -0.398 OA
ATOM     33  H9  UNL     1      15.850  47.692   6.474  1.00  0.00     0.209 HD
ENDBRANCH  31  32
ENDBRANCH  28  31
ENDBRANCH  25  28
ENDBRANCH  22  25
ENDBRANCH   1  22
TORSDOF 15
ENDMDL
MODEL 5
REMARK VINA RESULT: -6.094619315      3.302      5.572
REMARK  15 active torsions:
REMARK  status: ('A' for Active; 'I' for Inactive)
REMARK    1  A    between atoms: C2_2  and  O2_4 
REMARK    2  A    between atoms: O2_4  and  C3_5 
REMARK    3  A    between atoms: C3_5  and  N1_6 
REMARK    4  A    between atoms: C3_5  and  C8_16 
REMARK    5  A    between atoms: C3_5  and  C14_22 
REMARK       I    between atoms: N1_6  and  C4_8 
REMARK    6  A    between atoms: C4_8  and  O4_10 
REMARK    7  A    between atoms: O4_10  and  C5_11 
REMARK    8  A    between atoms: C5_11  and  O5_14 
REMARK    9  A    between atoms: C14_22  and  O6_23 
REMARK   10  A    between atoms: C14_22  and  C15_25 
REMARK   11  A    between atoms: C15_25  and  O7_26 
REMARK   12  A    between atoms: C15_25  and  C16_28 
REMARK   13  A    between atoms: C16_28  and  O8_29 
REMARK   14  A    between atoms: C16_28  and  C17_31 
REMARK   15  A    between atoms: C17_31  and  O9_32 
ROOT
HETATM    1  C3  UNL     1      22.303  43.908   8.845  1.00  0.00     0.204 C 
ENDROOT
BRANCH   1   2
HETATM    2  O2  UNL     1      23.593  43.410   8.748  1.00  0.00    -0.282 OA
BRANCH   2   3
HETATM    3  C2  UNL     1      24.351  43.202   7.670  1.00  0.00     0.257 C 
HETATM    4  C1  UNL     1      25.117  44.329   6.973  1.00  0.00     0.126 C 
HETATM    5  O1  UNL     1      24.451  42.046   7.193  1.00  0.00    -0.266 OA
ENDBRANCH   2   3
ENDBRANCH   1   2
BRANCH   1   6
HETATM    6  N1  UNL     1      22.033  43.926  10.292  1.00  0.00    -0.298 N 
HETATM    7  C4  UNL     1      22.668  43.080  11.241  1.00  0.00     0.365 C 
HETATM    8  O3  UNL     1      23.496  42.209  10.917  1.00  0.00    -0.238 OA
ATOM      9  H1  UNL     1      21.342  44.591  10.637  1.00  0.00     0.168 HD
BRANCH   7  10
HETATM   10  O4  UNL     1      22.353  43.227  12.567  1.00  0.00    -0.267 OA
BRANCH  10  11
HETATM   11  C5  UNL     1      21.621  42.335  13.360  1.00  0.00     0.165 C 
HETATM   12  C6  UNL     1      22.467  41.429  14.227  1.00  0.00     0.079 C 
HETATM   13  C7  UNL     1      20.829  43.219  14.349  1.00  0.00     0.079 C 
BRANCH  11  14
HETATM   14  O5  UNL     1      20.748  41.561  12.614  1.00  0.00    -0.365 OA
ATOM     15  H5  UNL     1      19.849  41.860  12.686  1.00  0.00     0.213 HD
ENDBRANCH  11  14
ENDBRANCH  10  11
ENDBRANCH   7  10
ENDBRANCH   1   6
BRANCH   1  16
HETATM   16  C8  UNL     1      22.137  45.267   8.272  1.00  0.00     0.000 A 
HETATM   17  C9  UNL     1      22.622  46.383   8.887  1.00  0.00     0.012 A 
HETATM   18  C10 UNL     1      22.502  47.681   8.355  1.00  0.00     0.001 A 
HETATM   19  C11 UNL     1      21.868  47.857   7.159  1.00  0.00     0.000 A 
HETATM   20  C12 UNL     1      21.362  46.750   6.508  1.00  0.00     0.001 A 
HETATM   21  C13 UNL     1      21.489  45.489   7.044  1.00  0.00     0.012 A 
ENDBRANCH   1  16
BRANCH   1  22
HETATM   22  C14 UNL     1      21.336  42.954   8.258  1.00  0.00     0.210 C 
BRANCH  22  23
HETATM   23  O6  UNL     1      21.665  42.779   6.885  1.00  0.00    -0.388 OA
ATOM     24  H6  UNL     1      21.848  41.858   6.742  1.00  0.00     0.210 HD
ENDBRANCH  22  23
BRANCH  22  25
HETATM   25  C15 UNL     1      20.953  41.682   8.872  1.00  0.00     0.182 C 
BRANCH  25  26
HETATM   26  O7  UNL     1      19.723  42.021   9.587  1.00  0.00    -0.390 OA
ATOM     27  H7  UNL     1      19.482  41.198   9.996  1.00  0.00     0.210 HD
ENDBRANCH  25  26
BRANCH  25  28
HETATM   28  C16 UNL     1      20.392  40.620   7.903  1.00  0.00     0.173 C 
BRANCH  28  29
HETATM   29  O8  UNL     1      19.015  40.607   7.880  1.00  0.00    -0.391 OA
ATOM     30  H8  UNL     1      18.669  39.883   7.373  1.00  0.00     0.210 HD
ENDBRANCH  28  29
BRANCH  28  31
HETATM   31  C17 UNL     1      20.741  39.272   8.607  1.00  0.00     0.198 C 
BRANCH  31  32
HETATM   32  O9  UNL     1      19.924  39.211   9.734  1.00  0.00    -0.398 OA
ATOM     33  H9  UNL     1      20.102  38.369  10.136  1.00  0.00     0.209 HD
ENDBRANCH  31  32
ENDBRANCH  28  31
ENDBRANCH  25  28
ENDBRANCH  22  25
ENDBRANCH   1  22
TORSDOF 15
ENDMDL
