MODEL 1
REMARK VINA RESULT: -6.928994560      0.000      0.000
REMARK  7 active torsions:
REMARK  status: ('A' for Active; 'I' for Inactive)
REMARK       I    between atoms: C2_2  and  N1_4 
REMARK    1  A    between atoms: N1_4  and  C3_6 
REMARK    2  A    between atoms: C3_6  and  O2_7 
REMARK    3  A    between atoms: O2_7  and  N2_8 
REMARK    4  A    between atoms: C4_11  and  O3_12 
REMARK    5  A    between atoms: C9_19  and  C10_20 
REMARK    6  A    between atoms: N4_21  and  O4_23 
REMARK    7  A    between atoms: C11_25  and  O5_26 
ROOT
HETATM    1  C3  UNL     1       0.538  27.578  -2.832  1.00  0.00     0.216 C 
HETATM    2  C4  UNL     1       1.266  28.264  -3.927  1.00  0.00     0.196 C 
HETATM    3  C5  UNL     1       1.230  27.359  -5.146  1.00  0.00     0.131 C 
HETATM    4  C6  UNL     1       1.836  28.152  -6.246  1.00  0.00     0.067 C 
HETATM    5  N3  UNL     1       2.309  28.760  -7.105  1.00  0.00    -0.197 NA
HETATM    6  C7  UNL     1      -0.093  26.825  -5.510  1.00  0.00     0.013 C 
HETATM    7  C8  UNL     1      -0.502  27.209  -6.943  1.00  0.00     0.012 C 
HETATM    8  C9  UNL     1      -1.223  27.119  -4.613  1.00  0.00     0.065 C 
HETATM    9  C11 UNL     1      -0.953  27.556  -3.244  1.00  0.00     0.188 C 
ENDROOT
BRANCH   2  10
HETATM   10  O3  UNL     1       2.606  28.437  -3.646  1.00  0.00    -0.389 OA
ATOM     11  H3  UNL     1       3.134  27.695  -3.917  1.00  0.00     0.210 HD
ENDBRANCH   2  10
BRANCH   1  12
HETATM   12  N1  UNL     1       0.593  28.322  -1.611  1.00  0.00    -0.323 N 
HETATM   13  C2  UNL     1       1.537  28.391  -0.590  1.00  0.00     0.216 C 
HETATM   14  C1  UNL     1       1.283  29.307   0.595  1.00  0.00     0.117 C 
HETATM   15  O1  UNL     1       2.598  27.763  -0.541  1.00  0.00    -0.274 OA
ATOM     16  H1  UNL     1      -0.219  28.919  -1.458  1.00  0.00     0.165 HD
ENDBRANCH   1  12
BRANCH   1  17
HETATM   17  O2  UNL     1       0.860  26.238  -2.712  1.00  0.00    -0.249 OA
BRANCH  17  18
HETATM   18  N2  UNL     1       0.682  25.718  -1.519  1.00  0.00    -0.308 N 
ATOM     19  H22 UNL     1       1.470  25.393  -0.958  1.00  0.00     0.184 HD
ATOM     20  H21 UNL     1      -0.286  25.666  -1.202  1.00  0.00     0.184 HD
ENDBRANCH  17  18
ENDBRANCH   1  17
BRANCH   8  21
HETATM   21  C10 UNL     1      -2.143  25.921  -4.536  1.00  0.00     0.094 C 
HETATM   22  N4  UNL     1      -1.667  24.782  -4.238  1.00  0.00    -0.284 N 
ATOM     23  H4  UNL     1      -0.668  24.692  -4.054  1.00  0.00     0.192 HD
BRANCH  22  24
HETATM   24  O4  UNL     1      -2.457  23.683  -4.160  1.00  0.00    -0.291 OA
ATOM     25  H4  UNL     1      -2.914  23.346  -4.921  1.00  0.00     0.244 HD
ENDBRANCH  22  24
ENDBRANCH   8  21
BRANCH   9  26
HETATM   26  O5  UNL     1      -1.566  26.760  -2.262  1.00  0.00    -0.390 OA
ATOM     27  H5  UNL     1      -1.073  25.948  -2.284  1.00  0.00     0.210 HD
ENDBRANCH   9  26
TORSDOF 7
ENDMDL
MODEL 2
REMARK VINA RESULT: -6.816096609      1.030      1.041
REMARK  7 active torsions:
REMARK  status: ('A' for Active; 'I' for Inactive)
REMARK       I    between atoms: C2_2  and  N1_4 
REMARK    1  A    between atoms: N1_4  and  C3_6 
REMARK    2  A    between atoms: C3_6  and  O2_7 
REMARK    3  A    between atoms: O2_7  and  N2_8 
REMARK    4  A    between atoms: C4_11  and  O3_12 
REMARK    5  A    between atoms: C9_19  and  C10_20 
REMARK    6  A    between atoms: N4_21  and  O4_23 
REMARK    7  A    between atoms: C11_25  and  O5_26 
ROOT
HETATM    1  C3  UNL     1       1.029  27.765  -3.210  1.00  0.00     0.216 C 
HETATM    2  C4  UNL     1       1.630  28.376  -4.420  1.00  0.00     0.196 C 
HETATM    3  C5  UNL     1       1.437  27.410  -5.575  1.00  0.00     0.131 C 
HETATM    4  C6  UNL     1       1.918  28.131  -6.781  1.00  0.00     0.067 C 
HETATM    5  N3  UNL     1       2.293  28.683  -7.721  1.00  0.00    -0.197 NA
HETATM    6  C7  UNL     1       0.072  26.884  -5.749  1.00  0.00     0.013 C 
HETATM    7  C8  UNL     1      -0.499  27.201  -7.143  1.00  0.00     0.012 C 
HETATM    8  C9  UNL     1      -0.938  27.249  -4.742  1.00  0.00     0.065 C 
HETATM    9  C11 UNL     1      -0.501  27.751  -3.441  1.00  0.00     0.188 C 
ENDROOT
BRANCH   2  10
HETATM   10  O3  UNL     1       2.997  28.536  -4.309  1.00  0.00    -0.389 OA
ATOM     11  H3  UNL     1       3.439  28.486  -5.148  1.00  0.00     0.210 HD
ENDBRANCH   2  10
BRANCH   1  12
HETATM   12  N1  UNL     1       1.240  28.570  -2.047  1.00  0.00    -0.323 N 
HETATM   13  C2  UNL     1       2.067  29.660  -1.791  1.00  0.00     0.216 C 
HETATM   14  C1  UNL     1       2.044  30.302  -0.414  1.00  0.00     0.117 C 
HETATM   15  O1  UNL     1       2.847  30.181  -2.593  1.00  0.00    -0.274 OA
ATOM     16  H1  UNL     1       0.674  28.290  -1.247  1.00  0.00     0.165 HD
ENDBRANCH   1  12
BRANCH   1  17
HETATM   17  O2  UNL     1       1.345  26.426  -3.056  1.00  0.00    -0.249 OA
BRANCH  17  18
HETATM   18  N2  UNL     1       1.576  26.038  -1.823  1.00  0.00    -0.308 N 
ATOM     19  H22 UNL     1       2.021  25.143  -1.622  1.00  0.00     0.184 HD
ATOM     20  H21 UNL     1       1.280  26.689  -1.095  1.00  0.00     0.184 HD
ENDBRANCH  17  18
ENDBRANCH   1  17
BRANCH   8  21
HETATM   21  C10 UNL     1      -1.859  26.075  -4.492  1.00  0.00     0.094 C 
HETATM   22  N4  UNL     1      -1.375  24.904  -4.404  1.00  0.00    -0.284 N 
ATOM     23  H4  UNL     1      -0.369  24.772  -4.505  1.00  0.00     0.192 HD
BRANCH  22  24
HETATM   24  O4  UNL     1      -2.166  23.826  -4.181  1.00  0.00    -0.291 OA
ATOM     25  H4  UNL     1      -2.055  23.282  -3.410  1.00  0.00     0.244 HD
ENDBRANCH  22  24
ENDBRANCH   8  21
BRANCH   9  26
HETATM   26  O5  UNL     1      -1.003  27.020  -2.352  1.00  0.00    -0.390 OA
ATOM     27  H5  UNL     1      -1.815  27.463  -2.133  1.00  0.00     0.210 HD
ENDBRANCH   9  26
TORSDOF 7
ENDMDL
MODEL 3
REMARK VINA RESULT: -6.071674348      2.223      3.830
REMARK  7 active torsions:
REMARK  status: ('A' for Active; 'I' for Inactive)
REMARK       I    between atoms: C2_2  and  N1_4 
REMARK    1  A    between atoms: N1_4  and  C3_6 
REMARK    2  A    between atoms: C3_6  and  O2_7 
REMARK    3  A    between atoms: O2_7  and  N2_8 
REMARK    4  A    between atoms: C4_11  and  O3_12 
REMARK    5  A    between atoms: C9_19  and  C10_20 
REMARK    6  A    between atoms: N4_21  and  O4_23 
REMARK    7  A    between atoms: C11_25  and  O5_26 
ROOT
HETATM    1  C3  UNL     1       1.754  28.007  -4.586  1.00  0.00     0.216 C 
HETATM    2  C4  UNL     1       0.754  28.073  -5.679  1.00  0.00     0.196 C 
HETATM    3  C5  UNL     1      -0.270  26.978  -5.439  1.00  0.00     0.131 C 
HETATM    4  C6  UNL     1      -1.320  27.184  -6.468  1.00  0.00     0.067 C 
HETATM    5  N3  UNL     1      -2.139  27.336  -7.267  1.00  0.00    -0.197 NA
HETATM    6  C7  UNL     1      -0.831  26.912  -4.078  1.00  0.00     0.013 C 
HETATM    7  C8  UNL     1      -2.363  27.054  -4.074  1.00  0.00     0.012 C 
HETATM    8  C9  UNL     1      -0.278  27.823  -3.063  1.00  0.00     0.065 C 
HETATM    9  C11 UNL     1       1.021  28.449  -3.297  1.00  0.00     0.188 C 
ENDROOT
BRANCH   2  10
HETATM   10  O3  UNL     1       1.301  27.790  -6.914  1.00  0.00    -0.389 OA
ATOM     11  H3  UNL     1       2.177  27.429  -6.852  1.00  0.00     0.210 HD
ENDBRANCH   2  10
BRANCH   1  12
HETATM   12  N1  UNL     1       2.812  28.952  -4.776  1.00  0.00    -0.323 N 
HETATM   13  C2  UNL     1       2.902  30.132  -5.507  1.00  0.00     0.216 C 
HETATM   14  C1  UNL     1       4.203  30.918  -5.490  1.00  0.00     0.117 C 
HETATM   15  O1  UNL     1       2.006  30.629  -6.194  1.00  0.00    -0.274 OA
ATOM     16  H1  UNL     1       3.669  28.712  -4.278  1.00  0.00     0.165 HD
ENDBRANCH   1  12
BRANCH   1  17
HETATM   17  O2  UNL     1       2.169  26.719  -4.297  1.00  0.00    -0.249 OA
BRANCH  17  18
HETATM   18  N2  UNL     1       3.302  26.353  -4.850  1.00  0.00    -0.308 N 
ATOM     19  H22 UNL     1       4.138  26.935  -4.785  1.00  0.00     0.184 HD
ATOM     20  H21 UNL     1       3.282  25.459  -5.341  1.00  0.00     0.184 HD
ENDBRANCH  17  18
ENDBRANCH   1  17
BRANCH   8  21
HETATM   21  C10 UNL     1      -0.213  27.121  -1.724  1.00  0.00     0.094 C 
HETATM   22  N4  UNL     1      -0.183  25.852  -1.682  1.00  0.00    -0.284 N 
ATOM     23  H4  UNL     1      -0.204  25.324  -2.554  1.00  0.00     0.192 HD
BRANCH  22  24
HETATM   24  O4  UNL     1      -0.125  25.184  -0.504  1.00  0.00    -0.291 OA
ATOM     25  H4  UNL     1       0.706  24.961  -0.102  1.00  0.00     0.244 HD
ENDBRANCH  22  24
ENDBRANCH   8  21
BRANCH   9  26
HETATM   26  O5  UNL     1       1.957  28.213  -2.276  1.00  0.00    -0.390 OA
ATOM     27  H5  UNL     1       2.364  29.061  -2.135  1.00  0.00     0.210 HD
ENDBRANCH   9  26
TORSDOF 7
ENDMDL
MODEL 4
REMARK VINA RESULT: -6.037226303      3.823      6.487
REMARK  7 active torsions:
REMARK  status: ('A' for Active; 'I' for Inactive)
REMARK       I    between atoms: C2_2  and  N1_4 
REMARK    1  A    between atoms: N1_4  and  C3_6 
REMARK    2  A    between atoms: C3_6  and  O2_7 
REMARK    3  A    between atoms: O2_7  and  N2_8 
REMARK    4  A    between atoms: C4_11  and  O3_12 
REMARK    5  A    between atoms: C9_19  and  C10_20 
REMARK    6  A    between atoms: N4_21  and  O4_23 
REMARK    7  A    between atoms: C11_25  and  O5_26 
ROOT
HETATM    1  C3  UNL     1       1.416  29.498  -8.554  1.00  0.00     0.216 C 
HETATM    2  C4  UNL     1       2.790  29.873  -8.139  1.00  0.00     0.196 C 
HETATM    3  C5  UNL     1       2.826  29.901  -6.621  1.00  0.00     0.131 C 
HETATM    4  C6  UNL     1       4.248  30.132  -6.262  1.00  0.00     0.067 C 
HETATM    5  N3  UNL     1       5.351  30.314  -5.975  1.00  0.00    -0.197 NA
HETATM    6  C7  UNL     1       2.267  28.719  -5.944  1.00  0.00     0.013 C 
HETATM    7  C8  UNL     1       3.294  28.036  -5.024  1.00  0.00     0.012 C 
HETATM    8  C9  UNL     1       1.635  27.685  -6.780  1.00  0.00     0.065 C 
HETATM    9  C11 UNL     1       1.224  28.019  -8.142  1.00  0.00     0.188 C 
ENDROOT
BRANCH   2  10
HETATM   10  O3  UNL     1       3.131  31.152  -8.531  1.00  0.00    -0.389 OA
ATOM     11  H3  UNL     1       4.011  31.202  -8.887  1.00  0.00     0.210 HD
ENDBRANCH   2  10
BRANCH   1  12
HETATM   12  N1  UNL     1       1.264  29.530  -9.976  1.00  0.00    -0.323 N 
HETATM   13  C2  UNL     1       2.001  28.972 -11.016  1.00  0.00     0.216 C 
HETATM   14  C1  UNL     1       1.551  29.200 -12.450  1.00  0.00     0.117 C 
HETATM   15  O1  UNL     1       3.020  28.287 -10.896  1.00  0.00    -0.274 OA
ATOM     16  H1  UNL     1       0.456  30.067 -10.289  1.00  0.00     0.165 HD
ENDBRANCH   1  12
BRANCH   1  17
HETATM   17  O2  UNL     1       0.428  30.161  -7.848  1.00  0.00    -0.249 OA
BRANCH  17  18
HETATM   18  N2  UNL     1      -0.194  31.113  -8.505  1.00  0.00    -0.308 N 
ATOM     19  H22 UNL     1      -0.417  32.005  -8.063  1.00  0.00     0.184 HD
ATOM     20  H21 UNL     1      -0.432  30.895  -9.472  1.00  0.00     0.184 HD
ENDBRANCH  17  18
ENDBRANCH   1  17
BRANCH   8  21
HETATM   21  C10 UNL     1       0.428  27.116  -6.066  1.00  0.00     0.094 C 
HETATM   22  N4  UNL     1       0.163  25.878  -6.171  1.00  0.00    -0.284 N 
ATOM     23  H4  UNL     1       0.769  25.284  -6.736  1.00  0.00     0.192 HD
BRANCH  22  24
HETATM   24  O4  UNL     1      -0.909  25.329  -5.549  1.00  0.00    -0.291 OA
ATOM     25  H4  UNL     1      -1.442  24.666  -5.972  1.00  0.00     0.244 HD
ENDBRANCH  22  24
ENDBRANCH   8  21
BRANCH   9  26
HETATM   26  O5  UNL     1      -0.133  27.766  -8.405  1.00  0.00    -0.390 OA
ATOM     27  H5  UNL     1      -0.336  28.337  -9.137  1.00  0.00     0.210 HD
ENDBRANCH   9  26
TORSDOF 7
ENDMDL
MODEL 5
REMARK VINA RESULT: -5.773688285      3.191      5.372
REMARK  7 active torsions:
REMARK  status: ('A' for Active; 'I' for Inactive)
REMARK       I    between atoms: C2_2  and  N1_4 
REMARK    1  A    between atoms: N1_4  and  C3_6 
REMARK    2  A    between atoms: C3_6  and  O2_7 
REMARK    3  A    between atoms: O2_7  and  N2_8 
REMARK    4  A    between atoms: C4_11  and  O3_12 
REMARK    5  A    between atoms: C9_19  and  C10_20 
REMARK    6  A    between atoms: N4_21  and  O4_23 
REMARK    7  A    between atoms: C11_25  and  O5_26 
ROOT
HETATM    1  C3  UNL     1       2.955  30.205  -6.281  1.00  0.00     0.216 C 
HETATM    2  C4  UNL     1       2.006  29.986  -7.399  1.00  0.00     0.196 C 
HETATM    3  C5  UNL     1       1.827  28.488  -7.570  1.00  0.00     0.131 C 
HETATM    4  C6  UNL     1       0.762  28.329  -8.593  1.00  0.00     0.067 C 
HETATM    5  N3  UNL     1      -0.063  28.198  -9.389  1.00  0.00    -0.197 NA
HETATM    6  C7  UNL     1       1.533  27.732  -6.340  1.00  0.00     0.013 C 
HETATM    7  C8  UNL     1       0.207  26.958  -6.437  1.00  0.00     0.012 C 
HETATM    8  C9  UNL     1       1.549  28.466  -5.064  1.00  0.00     0.065 C 
HETATM    9  C11 UNL     1       2.222  29.761  -4.993  1.00  0.00     0.188 C 
ENDROOT
BRANCH   2  10
HETATM   10  O3  UNL     1       2.501  30.430  -8.609  1.00  0.00    -0.389 OA
ATOM     11  H3  UNL     1       1.860  30.375  -9.308  1.00  0.00     0.210 HD
ENDBRANCH   2  10
BRANCH   1  12
HETATM   12  N1  UNL     1       3.252  31.593  -6.101  1.00  0.00    -0.323 N 
HETATM   13  C2  UNL     1       3.995  32.502  -6.848  1.00  0.00     0.216 C 
HETATM   14  C1  UNL     1       4.110  33.939  -6.366  1.00  0.00     0.117 C 
HETATM   15  O1  UNL     1       4.595  32.259  -7.898  1.00  0.00    -0.274 OA
ATOM     16  H1  UNL     1       2.839  31.994  -5.260  1.00  0.00     0.165 HD
ENDBRANCH   1  12
BRANCH   1  17
HETATM   17  O2  UNL     1       4.060  29.374  -6.327  1.00  0.00    -0.249 OA
BRANCH  17  18
HETATM   18  N2  UNL     1       5.198  29.926  -5.971  1.00  0.00    -0.308 N 
ATOM     19  H22 UNL     1       5.265  30.926  -5.778  1.00  0.00     0.184 HD
ATOM     20  H21 UNL     1       5.992  29.290  -5.904  1.00  0.00     0.184 HD
ENDBRANCH  17  18
ENDBRANCH   1  17
BRANCH   8  21
HETATM   21  C10 UNL     1       2.128  27.589  -3.976  1.00  0.00     0.094 C 
HETATM   22  N4  UNL     1       1.373  27.154  -3.052  1.00  0.00    -0.284 N 
ATOM     23  H4  UNL     1       0.385  27.403  -3.057  1.00  0.00     0.192 HD
BRANCH  22  24
HETATM   24  O4  UNL     1       1.853  26.367  -2.058  1.00  0.00    -0.291 OA
ATOM     25  H4  UNL     1       1.704  25.429  -2.053  1.00  0.00     0.244 HD
ENDBRANCH  22  24
ENDBRANCH   8  21
BRANCH   9  26
HETATM   26  O5  UNL     1       3.211  29.833  -3.997  1.00  0.00    -0.390 OA
ATOM     27  H5  UNL     1       2.729  29.723  -3.186  1.00  0.00     0.210 HD
ENDBRANCH   9  26
TORSDOF 7
ENDMDL
