MODEL 1
REMARK VINA RESULT: -6.557668509      0.000      0.000
REMARK  6 active torsions:
REMARK  status: ('A' for Active; 'I' for Inactive)
REMARK    1  A    between atoms: O1_2  and  N1_3 
REMARK    2  A    between atoms: N1_3  and  C2_5 
REMARK    3  A    between atoms: C3_8  and  N3_9 
REMARK    4  A    between atoms: C4_14  and  S1_15 
REMARK    5  A    between atoms: S1_15  and  N5_16 
REMARK    6  A    between atoms: S1_15  and  N6_20 
ROOT
HETATM    1  N6  UNL     1      -1.123  12.546  24.615  1.00  0.00    -0.233 N 
ATOM      2  H6  UNL     1      -1.440  11.615  24.884  1.00  0.00     0.190 HD
HETATM    3  C5  UNL     1      -1.679  13.721  25.171  1.00  0.00     0.191 C 
HETATM    4  N7  UNL     1      -2.149  14.678  25.625  1.00  0.00    -0.171 NA
ENDROOT
BRANCH   1   5
HETATM    5  S1  UNL     1       0.011  12.769  23.558  1.00  0.00     0.163 S 
HETATM    6  O2  UNL     1      -0.636  12.697  22.209  1.00  0.00    -0.221 OA
BRANCH   5   7
HETATM    7  C4  UNL     1       1.193  11.498  23.762  1.00  0.00     0.168 A 
HETATM    8  N4  UNL     1       1.446  10.626  22.774  1.00  0.00    -0.179 N 
HETATM    9  C3  UNL     1       2.348   9.633  22.889  1.00  0.00     0.678 A 
ATOM     10  H4  UNL     1       0.933  10.720  21.898  1.00  0.00     0.185 HD
HETATM   11  N2  UNL     1       3.030   9.503  24.043  1.00  0.00    -0.174 N 
HETATM   12  C2  UNL     1       2.810  10.356  25.065  1.00  0.00     0.164 A 
ATOM     13  H2  UNL     1       3.716   8.755  24.145  1.00  0.00     0.186 HD
HETATM   14  C6  UNL     1       1.886  11.376  24.952  1.00  0.00     0.129 A 
HETATM   15  C7  UNL     1       1.630  12.300  26.022  1.00  0.00     0.106 C 
HETATM   16  N8  UNL     1       1.440  13.050  26.883  1.00  0.00    -0.191 NA
BRANCH   9  17
HETATM   17  N3  UNL     1       2.537   8.826  21.882  1.00  0.00    -0.234 N 
ATOM     18  H32 UNL     1       2.494   7.819  22.038  1.00  0.00     0.174 HD
ATOM     19  H31 UNL     1       2.727   9.173  20.942  1.00  0.00     0.174 HD
ENDBRANCH   9  17
BRANCH  12  20
HETATM   20  N1  UNL     1       3.443  10.264  26.189  1.00  0.00    -0.249 N 
ATOM     21  H1  UNL     1       3.049  10.709  27.018  1.00  0.00     0.196 HD
BRANCH  20  22
HETATM   22  O1  UNL     1       4.636   9.583  26.297  1.00  0.00    -0.284 OA
HETATM   23  C1  UNL     1       5.045   9.205  27.594  1.00  0.00     0.237 C 
ENDBRANCH  20  22
ENDBRANCH  12  20
ENDBRANCH   5   7
BRANCH   5  24
HETATM   24  N5  UNL     1       0.820  14.270  23.799  1.00  0.00    -0.339 N 
ATOM     25  H52 UNL     1       1.831  14.397  23.840  1.00  0.00     0.167 HD
ATOM     26  H51 UNL     1       0.104  14.991  23.892  1.00  0.00     0.167 HD
ENDBRANCH   5  24
ENDBRANCH   1   5
TORSDOF 6
ENDMDL
MODEL 2
REMARK VINA RESULT: -6.461612773      1.777      3.797
REMARK  6 active torsions:
REMARK  status: ('A' for Active; 'I' for Inactive)
REMARK    1  A    between atoms: O1_2  and  N1_3 
REMARK    2  A    between atoms: N1_3  and  C2_5 
REMARK    3  A    between atoms: C3_8  and  N3_9 
REMARK    4  A    between atoms: C4_14  and  S1_15 
REMARK    5  A    between atoms: S1_15  and  N5_16 
REMARK    6  A    between atoms: S1_15  and  N6_20 
ROOT
HETATM    1  N6  UNL     1       0.738  13.901  23.804  1.00  0.00    -0.233 N 
ATOM      2  H6  UNL     1       1.706  14.184  23.960  1.00  0.00     0.190 HD
HETATM    3  C5  UNL     1       0.129  13.977  22.531  1.00  0.00     0.191 C 
HETATM    4  N7  UNL     1      -0.366  14.053  21.485  1.00  0.00    -0.171 NA
ENDROOT
BRANCH   1   5
HETATM    5  S1  UNL     1      -0.168  13.354  24.957  1.00  0.00     0.163 S 
HETATM    6  O2  UNL     1      -0.886  14.533  25.538  1.00  0.00    -0.221 OA
BRANCH   5   7
HETATM    7  C4  UNL     1       0.868  12.596  26.142  1.00  0.00     0.168 A 
HETATM    8  N4  UNL     1       0.869  13.004  27.421  1.00  0.00    -0.179 N 
HETATM    9  C3  UNL     1       1.650  12.449  28.365  1.00  0.00     0.678 A 
ATOM     10  H4  UNL     1       0.249  13.769  27.688  1.00  0.00     0.185 HD
HETATM   11  N2  UNL     1       2.471  11.439  28.020  1.00  0.00    -0.174 N 
HETATM   12  C2  UNL     1       2.507  10.993  26.747  1.00  0.00     0.164 A 
ATOM     13  H2  UNL     1       3.070  11.008  28.725  1.00  0.00     0.186 HD
HETATM   14  C6  UNL     1       1.706  11.559  25.774  1.00  0.00     0.129 A 
HETATM   15  C7  UNL     1       1.720  11.107  24.410  1.00  0.00     0.106 C 
HETATM   16  N8  UNL     1       1.726  10.727  23.317  1.00  0.00    -0.191 NA
BRANCH   9  17
HETATM   17  N3  UNL     1       1.593  12.903  29.586  1.00  0.00    -0.234 N 
ATOM     18  H32 UNL     1       0.908  12.509  30.231  1.00  0.00     0.174 HD
ATOM     19  H31 UNL     1       2.213  13.642  29.916  1.00  0.00     0.174 HD
ENDBRANCH   9  17
BRANCH  12  20
HETATM   20  N1  UNL     1       3.281  10.026  26.375  1.00  0.00    -0.249 N 
ATOM     21  H1  UNL     1       2.881   9.238  25.865  1.00  0.00     0.196 HD
BRANCH  20  22
HETATM   22  O1  UNL     1       4.631  10.031  26.648  1.00  0.00    -0.284 OA
HETATM   23  C1  UNL     1       5.122   9.002  27.480  1.00  0.00     0.237 C 
ENDBRANCH  20  22
ENDBRANCH  12  20
ENDBRANCH   5   7
BRANCH   5  24
HETATM   24  N5  UNL     1      -1.266  12.154  24.389  1.00  0.00    -0.339 N 
ATOM     25  H52 UNL     1      -1.148  11.598  23.543  1.00  0.00     0.167 HD
ATOM     26  H51 UNL     1      -2.040  12.110  25.052  1.00  0.00     0.167 HD
ENDBRANCH   5  24
ENDBRANCH   1   5
TORSDOF 6
ENDMDL
MODEL 3
REMARK VINA RESULT: -6.416599033      1.457      1.810
REMARK  6 active torsions:
REMARK  status: ('A' for Active; 'I' for Inactive)
REMARK    1  A    between atoms: O1_2  and  N1_3 
REMARK    2  A    between atoms: N1_3  and  C2_5 
REMARK    3  A    between atoms: C3_8  and  N3_9 
REMARK    4  A    between atoms: C4_14  and  S1_15 
REMARK    5  A    between atoms: S1_15  and  N5_16 
REMARK    6  A    between atoms: S1_15  and  N6_20 
ROOT
HETATM    1  N6  UNL     1      -0.806  12.615  23.175  1.00  0.00    -0.233 N 
ATOM      2  H6  UNL     1      -1.485  11.861  23.068  1.00  0.00     0.190 HD
HETATM    3  C5  UNL     1      -0.570  13.566  22.157  1.00  0.00     0.191 C 
HETATM    4  N7  UNL     1      -0.375  14.335  21.312  1.00  0.00    -0.171 NA
ENDROOT
BRANCH   1   5
HETATM    5  S1  UNL     1       0.042  12.794  24.480  1.00  0.00     0.163 S 
HETATM    6  O2  UNL     1       0.621  14.174  24.432  1.00  0.00    -0.221 OA
BRANCH   5   7
HETATM    7  C4  UNL     1       1.298  11.580  24.475  1.00  0.00     0.168 A 
HETATM    8  N4  UNL     1       1.466  10.765  23.422  1.00  0.00    -0.179 N 
HETATM    9  C3  UNL     1       2.420   9.816  23.377  1.00  0.00     0.678 A 
ATOM     10  H4  UNL     1       0.844  10.869  22.621  1.00  0.00     0.185 HD
HETATM   11  N2  UNL     1       3.247   9.673  24.431  1.00  0.00    -0.174 N 
HETATM   12  C2  UNL     1       3.118  10.469  25.512  1.00  0.00     0.164 A 
ATOM     13  H2  UNL     1       3.975   8.958  24.411  1.00  0.00     0.186 HD
HETATM   14  C6  UNL     1       2.140  11.443  25.564  1.00  0.00     0.129 A 
HETATM   15  C7  UNL     1       1.977  12.307  26.701  1.00  0.00     0.106 C 
HETATM   16  N8  UNL     1       1.862  13.008  27.614  1.00  0.00    -0.191 NA
BRANCH   9  17
HETATM   17  N3  UNL     1       2.519   9.063  22.317  1.00  0.00    -0.234 N 
ATOM     18  H32 UNL     1       2.097   8.135  22.325  1.00  0.00     0.174 HD
ATOM     19  H31 UNL     1       3.008   9.376  21.478  1.00  0.00     0.174 HD
ENDBRANCH   9  17
BRANCH  12  20
HETATM   20  N1  UNL     1       3.890  10.363  26.544  1.00  0.00    -0.249 N 
ATOM     21  H1  UNL     1       3.752  10.994  27.334  1.00  0.00     0.196 HD
BRANCH  20  22
HETATM   22  O1  UNL     1       4.894   9.421  26.606  1.00  0.00    -0.284 OA
HETATM   23  C1  UNL     1       4.929   8.593  27.749  1.00  0.00     0.237 C 
ENDBRANCH  20  22
ENDBRANCH  12  20
ENDBRANCH   5   7
BRANCH   5  24
HETATM   24  N5  UNL     1      -0.908  12.548  25.895  1.00  0.00    -0.339 N 
ATOM     25  H52 UNL     1      -1.852  12.904  26.043  1.00  0.00     0.167 HD
ATOM     26  H51 UNL     1      -0.353  11.988  26.542  1.00  0.00     0.167 HD
ENDBRANCH   5  24
ENDBRANCH   1   5
TORSDOF 6
ENDMDL
MODEL 4
REMARK VINA RESULT: -6.282336716      1.681      3.612
REMARK  6 active torsions:
REMARK  status: ('A' for Active; 'I' for Inactive)
REMARK    1  A    between atoms: O1_2  and  N1_3 
REMARK    2  A    between atoms: N1_3  and  C2_5 
REMARK    3  A    between atoms: C3_8  and  N3_9 
REMARK    4  A    between atoms: C4_14  and  S1_15 
REMARK    5  A    between atoms: S1_15  and  N5_16 
REMARK    6  A    between atoms: S1_15  and  N6_20 
ROOT
HETATM    1  N6  UNL     1       0.496  11.055  21.955  1.00  0.00    -0.233 N 
ATOM      2  H6  UNL     1       1.138  10.267  21.873  1.00  0.00     0.190 HD
HETATM    3  C5  UNL     1      -0.835  10.994  21.483  1.00  0.00     0.191 C 
HETATM    4  N7  UNL     1      -1.921  10.939  21.083  1.00  0.00    -0.171 NA
ENDROOT
BRANCH   1   5
HETATM    5  S1  UNL     1       0.920  12.412  22.613  1.00  0.00     0.163 S 
HETATM    6  O2  UNL     1       2.116  12.902  21.857  1.00  0.00    -0.221 OA
BRANCH   5   7
HETATM    7  C4  UNL     1       1.312  12.098  24.286  1.00  0.00     0.168 A 
HETATM    8  N4  UNL     1       0.890  12.920  25.260  1.00  0.00    -0.179 N 
HETATM    9  C3  UNL     1       1.169  12.716  26.560  1.00  0.00     0.678 A 
ATOM     10  H4  UNL     1       0.333  13.734  25.002  1.00  0.00     0.185 HD
HETATM   11  N2  UNL     1       1.904  11.642  26.909  1.00  0.00    -0.174 N 
HETATM   12  C2  UNL     1       2.351  10.787  25.966  1.00  0.00     0.164 A 
ATOM     13  H2  UNL     1       2.123  11.475  27.891  1.00  0.00     0.186 HD
HETATM   14  C6  UNL     1       2.067  10.992  24.630  1.00  0.00     0.129 A 
HETATM   15  C7  UNL     1       2.529  10.099  23.603  1.00  0.00     0.106 C 
HETATM   16  N8  UNL     1       2.891   9.367  22.782  1.00  0.00    -0.191 NA
BRANCH   9  17
HETATM   17  N3  UNL     1       0.722  13.562  27.447  1.00  0.00    -0.234 N 
ATOM     18  H32 UNL     1      -0.279  13.593  27.644  1.00  0.00     0.174 HD
ATOM     19  H31 UNL     1       1.344  14.194  27.950  1.00  0.00     0.174 HD
ENDBRANCH   9  17
BRANCH  12  20
HETATM   20  N1  UNL     1       3.059   9.745  26.259  1.00  0.00    -0.249 N 
ATOM     21  H1  UNL     1       2.588   8.855  26.423  1.00  0.00     0.196 HD
BRANCH  20  22
HETATM   22  O1  UNL     1       4.432   9.805  26.356  1.00  0.00    -0.284 OA
HETATM   23  C1  UNL     1       5.037   9.059  27.390  1.00  0.00     0.237 C 
ENDBRANCH  20  22
ENDBRANCH  12  20
ENDBRANCH   5   7
BRANCH   5  24
HETATM   24  N5  UNL     1      -0.365  13.558  22.589  1.00  0.00    -0.339 N 
ATOM     25  H52 UNL     1      -0.637  14.158  23.368  1.00  0.00     0.167 HD
ATOM     26  H51 UNL     1      -0.790  13.521  21.663  1.00  0.00     0.167 HD
ENDBRANCH   5  24
ENDBRANCH   1   5
TORSDOF 6
ENDMDL
MODEL 5
REMARK VINA RESULT: -6.256135275      2.476      3.389
REMARK  6 active torsions:
REMARK  status: ('A' for Active; 'I' for Inactive)
REMARK    1  A    between atoms: O1_2  and  N1_3 
REMARK    2  A    between atoms: N1_3  and  C2_5 
REMARK    3  A    between atoms: C3_8  and  N3_9 
REMARK    4  A    between atoms: C4_14  and  S1_15 
REMARK    5  A    between atoms: S1_15  and  N5_16 
REMARK    6  A    between atoms: S1_15  and  N6_20 
ROOT
HETATM    1  N6  UNL     1      -2.019  12.823  26.451  1.00  0.00    -0.233 N 
ATOM      2  H6  UNL     1      -1.724  12.000  26.977  1.00  0.00     0.190 HD
HETATM    3  C5  UNL     1      -3.374  13.068  26.133  1.00  0.00     0.191 C 
HETATM    4  N7  UNL     1      -4.486  13.254  25.867  1.00  0.00    -0.171 NA
ENDROOT
BRANCH   1   5
HETATM    5  S1  UNL     1      -0.999  13.897  25.943  1.00  0.00     0.163 S 
HETATM    6  O2  UNL     1      -1.799  15.101  25.552  1.00  0.00    -0.221 OA
BRANCH   5   7
HETATM    7  C4  UNL     1      -0.151  13.227  24.571  1.00  0.00     0.168 A 
HETATM    8  N4  UNL     1      -0.400  13.662  23.326  1.00  0.00    -0.179 N 
HETATM    9  C3  UNL     1       0.230  13.173  22.241  1.00  0.00     0.678 A 
ATOM     10  H4  UNL     1      -1.097  14.395  23.196  1.00  0.00     0.185 HD
HETATM   11  N2  UNL     1       1.152  12.205  22.404  1.00  0.00    -0.174 N 
HETATM   12  C2  UNL     1       1.438  11.736  23.636  1.00  0.00     0.164 A 
ATOM     13  H2  UNL     1       1.638  11.825  21.591  1.00  0.00     0.186 HD
HETATM   14  C6  UNL     1       0.794  12.233  24.752  1.00  0.00     0.129 A 
HETATM   15  C7  UNL     1       1.076  11.754  26.078  1.00  0.00     0.106 C 
HETATM   16  N8  UNL     1       1.319  11.375  27.144  1.00  0.00    -0.191 NA
BRANCH   9  17
HETATM   17  N3  UNL     1      -0.068  13.649  21.064  1.00  0.00    -0.234 N 
ATOM     18  H32 UNL     1       0.548  14.340  20.636  1.00  0.00     0.174 HD
ATOM     19  H31 UNL     1      -0.902  13.350  20.558  1.00  0.00     0.174 HD
ENDBRANCH   9  17
BRANCH  12  20
HETATM   20  N1  UNL     1       2.316  10.807  23.835  1.00  0.00    -0.249 N 
ATOM     21  H1  UNL     1       2.710  10.689  24.768  1.00  0.00     0.196 HD
BRANCH  20  22
HETATM   22  O1  UNL     1       2.733   9.973  22.821  1.00  0.00    -0.284 OA
HETATM   23  C1  UNL     1       1.790   9.052  22.317  1.00  0.00     0.237 C 
ENDBRANCH  20  22
ENDBRANCH  12  20
ENDBRANCH   5   7
BRANCH   5  24
HETATM   24  N5  UNL     1       0.178  14.274  27.143  1.00  0.00    -0.339 N 
ATOM     25  H52 UNL     1       1.171  14.428  26.970  1.00  0.00     0.167 HD
ATOM     26  H51 UNL     1      -0.304  14.313  28.042  1.00  0.00     0.167 HD
ENDBRANCH   5  24
ENDBRANCH   1   5
TORSDOF 6
ENDMDL
