MODEL 1
REMARK VINA RESULT: -6.537662476      0.000      0.000
REMARK  9 active torsions:
REMARK  status: ('A' for Active; 'I' for Inactive)
REMARK    1  A    between atoms: O1_2  and  C2_3 
REMARK    2  A    between atoms: C2_3  and  O3_5 
REMARK    3  A    between atoms: O3_5  and  C3_6 
REMARK    4  A    between atoms: C3_6  and  C4_7 
REMARK    5  A    between atoms: C5_8  and  O4_9 
REMARK    6  A    between atoms: C6_11  and  O5_12 
REMARK    7  A    between atoms: C7_14  and  O6_15 
REMARK    8  A    between atoms: C10_19  and  C11_20 
REMARK    9  A    between atoms: C11_20  and  O7_21 
ROOT
HETATM    1  C4  UNL     1       2.243  10.669  24.402  1.00  0.00     0.036 A 
HETATM    2  C5  UNL     1       2.203  10.320  23.016  1.00  0.00     0.115 A 
HETATM    3  C6  UNL     1       1.673  11.167  22.083  1.00  0.00     0.135 A 
HETATM    4  C7  UNL     1       1.156  12.393  22.449  1.00  0.00     0.129 A 
HETATM    5  C9  UNL     1       1.186  12.739  23.761  1.00  0.00     0.095 A 
HETATM    6  N1  UNL     1       0.658  14.009  24.194  1.00  0.00    -0.098 NA
HETATM    7  C10 UNL     1       1.726  11.891  24.757  1.00  0.00     0.028 A 
ENDROOT
BRANCH   1   8
HETATM    8  C3  UNL     1       2.770   9.784  25.189  1.00  0.00     0.163 C 
BRANCH   8   9
HETATM    9  O3  UNL     1       4.035   9.598  25.627  1.00  0.00    -0.267 OA
BRANCH   9  10
HETATM   10  C2  UNL     1       4.340   9.699  27.003  1.00  0.00     0.410 C 
HETATM   11  O2  UNL     1       5.460   9.371  27.447  1.00  0.00    -0.229 OA
BRANCH  10  12
HETATM   12  O1  UNL     1       3.383  10.173  27.901  1.00  0.00    -0.303 OA
HETATM   13  C1  UNL     1       2.869   9.393  28.943  1.00  0.00     0.215 C 
ENDBRANCH  10  12
ENDBRANCH   9  10
ENDBRANCH   8   9
ENDBRANCH   1   8
BRANCH   2  14
HETATM   14  O4  UNL     1       2.721   9.094  22.652  1.00  0.00    -0.357 OA
ATOM     15  H4  UNL     1       3.311   9.070  21.908  1.00  0.00     0.217 HD
ENDBRANCH   2  14
BRANCH   7  16
HETATM   16  C11 UNL     1       1.678  12.370  25.961  1.00  0.00     0.145 C 
BRANCH  16  17
HETATM   17  O7  UNL     1       2.655  12.989  26.681  1.00  0.00    -0.372 OA
ATOM     18  H7  UNL     1       2.858  13.915  26.746  1.00  0.00     0.216 HD
ENDBRANCH  16  17
ENDBRANCH   7  16
BRANCH   3  19
HETATM   19  O5  UNL     1       1.639  10.819  20.738  1.00  0.00    -0.356 OA
ATOM     20  H5  UNL     1       0.884  10.378  20.366  1.00  0.00     0.218 HD
ENDBRANCH   3  19
BRANCH   4  21
HETATM   21  O6  UNL     1       0.621  13.252  21.518  1.00  0.00    -0.351 OA
HETATM   22  C8  UNL     1      -0.710  13.679  21.476  1.00  0.00     0.210 C 
ENDBRANCH   4  21
TORSDOF 9
ENDMDL
MODEL 2
REMARK VINA RESULT: -6.415218120      1.372      2.881
REMARK  9 active torsions:
REMARK  status: ('A' for Active; 'I' for Inactive)
REMARK    1  A    between atoms: O1_2  and  C2_3 
REMARK    2  A    between atoms: C2_3  and  O3_5 
REMARK    3  A    between atoms: O3_5  and  C3_6 
REMARK    4  A    between atoms: C3_6  and  C4_7 
REMARK    5  A    between atoms: C5_8  and  O4_9 
REMARK    6  A    between atoms: C6_11  and  O5_12 
REMARK    7  A    between atoms: C7_14  and  O6_15 
REMARK    8  A    between atoms: C10_19  and  C11_20 
REMARK    9  A    between atoms: C11_20  and  O7_21 
ROOT
HETATM    1  C4  UNL     1       1.980  10.826  24.209  1.00  0.00     0.036 A 
HETATM    2  C5  UNL     1       1.788  12.199  24.562  1.00  0.00     0.115 A 
HETATM    3  C6  UNL     1       1.249  13.092  23.678  1.00  0.00     0.135 A 
HETATM    4  C7  UNL     1       0.870  12.698  22.412  1.00  0.00     0.129 A 
HETATM    5  C9  UNL     1       1.046  11.399  22.062  1.00  0.00     0.095 A 
HETATM    6  N1  UNL     1       0.666  10.938  20.750  1.00  0.00    -0.098 NA
HETATM    7  C10 UNL     1       1.599  10.444  22.947  1.00  0.00     0.028 A 
ENDROOT
BRANCH   1   8
HETATM    8  C3  UNL     1       2.499  10.077  25.132  1.00  0.00     0.163 C 
BRANCH   8   9
HETATM    9  O3  UNL     1       3.775   9.893  25.539  1.00  0.00    -0.267 OA
BRANCH   9  10
HETATM   10  C2  UNL     1       4.104   9.935  26.912  1.00  0.00     0.410 C 
HETATM   11  O2  UNL     1       5.210   9.536  27.329  1.00  0.00    -0.229 OA
BRANCH  10  12
HETATM   12  O1  UNL     1       3.185  10.432  27.838  1.00  0.00    -0.303 OA
HETATM   13  C1  UNL     1       2.670   9.659  28.885  1.00  0.00     0.215 C 
ENDBRANCH  10  12
ENDBRANCH   9  10
ENDBRANCH   8   9
ENDBRANCH   1   8
BRANCH   2  14
HETATM   14  O4  UNL     1       2.168  12.590  25.829  1.00  0.00    -0.357 OA
ATOM     15  H4  UNL     1       1.480  12.824  26.441  1.00  0.00     0.217 HD
ENDBRANCH   2  14
BRANCH   7  16
HETATM   16  C11 UNL     1       1.700   9.247  22.457  1.00  0.00     0.145 C 
BRANCH  16  17
HETATM   17  O7  UNL     1       2.670   8.722  21.657  1.00  0.00    -0.372 OA
ATOM     18  H7  UNL     1       2.879   7.811  21.486  1.00  0.00     0.216 HD
ENDBRANCH  16  17
ENDBRANCH   7  16
BRANCH   3  19
HETATM   19  O5  UNL     1       1.066  14.424  24.031  1.00  0.00    -0.356 OA
ATOM     20  H5  UNL     1       0.458  14.668  24.719  1.00  0.00     0.218 HD
ENDBRANCH   3  19
BRANCH   4  21
HETATM   21  O6  UNL     1       0.327  13.589  21.517  1.00  0.00    -0.351 OA
HETATM   22  C8  UNL     1      -0.997  14.038  21.516  1.00  0.00     0.210 C 
ENDBRANCH   4  21
TORSDOF 9
ENDMDL
MODEL 3
REMARK VINA RESULT: -6.294264658      1.761      3.394
REMARK  9 active torsions:
REMARK  status: ('A' for Active; 'I' for Inactive)
REMARK    1  A    between atoms: O1_2  and  C2_3 
REMARK    2  A    between atoms: C2_3  and  O3_5 
REMARK    3  A    between atoms: O3_5  and  C3_6 
REMARK    4  A    between atoms: C3_6  and  C4_7 
REMARK    5  A    between atoms: C5_8  and  O4_9 
REMARK    6  A    between atoms: C6_11  and  O5_12 
REMARK    7  A    between atoms: C7_14  and  O6_15 
REMARK    8  A    between atoms: C10_19  and  C11_20 
REMARK    9  A    between atoms: C11_20  and  O7_21 
ROOT
HETATM    1  C4  UNL     1       2.252  10.824  25.384  1.00  0.00     0.036 A 
HETATM    2  C5  UNL     1       1.880  11.658  26.485  1.00  0.00     0.115 A 
HETATM    3  C6  UNL     1       0.993  12.687  26.331  1.00  0.00     0.135 A 
HETATM    4  C7  UNL     1       0.424  12.957  25.104  1.00  0.00     0.129 A 
HETATM    5  C9  UNL     1       0.767  12.175  24.049  1.00  0.00     0.095 A 
HETATM    6  N1  UNL     1       0.200  12.416  22.745  1.00  0.00    -0.098 NA
HETATM    7  C10 UNL     1       1.680  11.101  24.167  1.00  0.00     0.028 A 
ENDROOT
BRANCH   1   8
HETATM    8  C3  UNL     1       3.100   9.882  25.656  1.00  0.00     0.163 C 
BRANCH   8   9
HETATM    9  O3  UNL     1       4.361   9.910  26.142  1.00  0.00    -0.267 OA
BRANCH   9  10
HETATM   10  C2  UNL     1       4.696   9.191  27.312  1.00  0.00     0.410 C 
HETATM   11  O2  UNL     1       5.863   9.174  27.753  1.00  0.00    -0.229 OA
BRANCH  10  12
HETATM   12  O1  UNL     1       3.714   8.479  28.002  1.00  0.00    -0.303 OA
HETATM   13  C1  UNL     1       3.753   7.089  28.158  1.00  0.00     0.215 C 
ENDBRANCH  10  12
ENDBRANCH   9  10
ENDBRANCH   8   9
ENDBRANCH   1   8
BRANCH   2  14
HETATM   14  O4  UNL     1       2.450  11.386  27.712  1.00  0.00    -0.357 OA
ATOM     15  H4  UNL     1       2.651  10.479  27.911  1.00  0.00     0.217 HD
ENDBRANCH   2  14
BRANCH   7  16
HETATM   16  C11 UNL     1       1.900  10.453  23.065  1.00  0.00     0.145 C 
BRANCH  16  17
HETATM   17  O7  UNL     1       1.088   9.583  22.400  1.00  0.00    -0.372 OA
ATOM     18  H7  UNL     1       1.100   9.331  21.485  1.00  0.00     0.216 HD
ENDBRANCH  16  17
ENDBRANCH   7  16
BRANCH   3  19
HETATM   19  O5  UNL     1       0.637  13.491  27.408  1.00  0.00    -0.356 OA
ATOM     20  H5  UNL     1       1.056  13.388  28.254  1.00  0.00     0.218 HD
ENDBRANCH   3  19
BRANCH   4  21
HETATM   21  O6  UNL     1      -0.469  13.989  24.939  1.00  0.00    -0.351 OA
HETATM   22  C8  UNL     1      -1.813  13.972  25.324  1.00  0.00     0.210 C 
ENDBRANCH   4  21
TORSDOF 9
ENDMDL
MODEL 4
REMARK VINA RESULT: -6.269654861      2.457      5.192
REMARK  9 active torsions:
REMARK  status: ('A' for Active; 'I' for Inactive)
REMARK    1  A    between atoms: O1_2  and  C2_3 
REMARK    2  A    between atoms: C2_3  and  O3_5 
REMARK    3  A    between atoms: O3_5  and  C3_6 
REMARK    4  A    between atoms: C3_6  and  C4_7 
REMARK    5  A    between atoms: C5_8  and  O4_9 
REMARK    6  A    between atoms: C6_11  and  O5_12 
REMARK    7  A    between atoms: C7_14  and  O6_15 
REMARK    8  A    between atoms: C10_19  and  C11_20 
REMARK    9  A    between atoms: C11_20  and  O7_21 
ROOT
HETATM    1  C4  UNL     1       1.025  12.640  23.949  1.00  0.00     0.036 A 
HETATM    2  C5  UNL     1      -0.143  13.464  23.890  1.00  0.00     0.115 A 
HETATM    3  C6  UNL     1      -0.891  13.719  25.006  1.00  0.00     0.135 A 
HETATM    4  C7  UNL     1      -0.543  13.190  26.231  1.00  0.00     0.129 A 
HETATM    5  C9  UNL     1       0.562  12.405  26.303  1.00  0.00     0.095 A 
HETATM    6  N1  UNL     1       0.968  11.828  27.561  1.00  0.00    -0.098 NA
HETATM    7  C10 UNL     1       1.363  12.117  25.173  1.00  0.00     0.028 A 
ENDROOT
BRANCH   1   8
HETATM    8  C3  UNL     1       1.649  12.472  22.825  1.00  0.00     0.163 C 
BRANCH   8   9
HETATM    9  O3  UNL     1       1.291  11.868  21.670  1.00  0.00    -0.267 OA
BRANCH   9  10
HETATM   10  C2  UNL     1       0.356  10.809  21.674  1.00  0.00     0.410 C 
HETATM   11  O2  UNL     1      -0.820  10.978  21.294  1.00  0.00    -0.229 OA
BRANCH  10  12
HETATM   12  O1  UNL     1       0.737   9.538  22.107  1.00  0.00    -0.303 OA
HETATM   13  C1  UNL     1       2.067   9.103  22.106  1.00  0.00     0.215 C 
ENDBRANCH  10  12
ENDBRANCH   9  10
ENDBRANCH   8   9
ENDBRANCH   1   8
BRANCH   2  14
HETATM   14  O4  UNL     1      -0.489  13.993  22.664  1.00  0.00    -0.357 OA
ATOM     15  H4  UNL     1      -0.249  13.498  21.889  1.00  0.00     0.217 HD
ENDBRANCH   2  14
BRANCH   7  16
HETATM   16  C11 UNL     1       2.382  11.353  25.412  1.00  0.00     0.145 C 
BRANCH  16  17
HETATM   17  O7  UNL     1       2.437   9.994  25.506  1.00  0.00    -0.372 OA
ATOM     18  H7  UNL     1       3.094   9.447  25.920  1.00  0.00     0.216 HD
ENDBRANCH  16  17
ENDBRANCH   7  16
BRANCH   3  19
HETATM   19  O5  UNL     1      -2.024  14.522  24.938  1.00  0.00    -0.356 OA
ATOM     20  H5  UNL     1      -2.893  14.149  25.036  1.00  0.00     0.218 HD
ENDBRANCH   3  19
BRANCH   4  21
HETATM   21  O6  UNL     1      -1.289  13.441  27.359  1.00  0.00    -0.351 OA
HETATM   22  C8  UNL     1      -2.528  12.869  27.659  1.00  0.00     0.210 C 
ENDBRANCH   4  21
TORSDOF 9
ENDMDL
MODEL 5
REMARK VINA RESULT: -6.258414863      1.902      5.710
REMARK  9 active torsions:
REMARK  status: ('A' for Active; 'I' for Inactive)
REMARK    1  A    between atoms: O1_2  and  C2_3 
REMARK    2  A    between atoms: C2_3  and  O3_5 
REMARK    3  A    between atoms: O3_5  and  C3_6 
REMARK    4  A    between atoms: C3_6  and  C4_7 
REMARK    5  A    between atoms: C5_8  and  O4_9 
REMARK    6  A    between atoms: C6_11  and  O5_12 
REMARK    7  A    between atoms: C7_14  and  O6_15 
REMARK    8  A    between atoms: C10_19  and  C11_20 
REMARK    9  A    between atoms: C11_20  and  O7_21 
ROOT
HETATM    1  C4  UNL     1       0.968  11.943  25.213  1.00  0.00     0.036 A 
HETATM    2  C5  UNL     1       1.995  11.041  24.794  1.00  0.00     0.115 A 
HETATM    3  C6  UNL     1       2.822  10.435  25.698  1.00  0.00     0.135 A 
HETATM    4  C7  UNL     1       2.694  10.673  27.050  1.00  0.00     0.129 A 
HETATM    5  C9  UNL     1       1.724  11.529  27.464  1.00  0.00     0.095 A 
HETATM    6  N1  UNL     1       1.549  11.812  28.867  1.00  0.00    -0.098 NA
HETATM    7  C10 UNL     1       0.848  12.175  26.561  1.00  0.00     0.028 A 
ENDROOT
BRANCH   1   8
HETATM    8  C3  UNL     1       0.249  12.454  24.263  1.00  0.00     0.163 C 
BRANCH   8   9
HETATM    9  O3  UNL     1       0.369  13.595  23.547  1.00  0.00    -0.267 OA
BRANCH   9  10
HETATM   10  C2  UNL     1       0.265  13.573  22.138  1.00  0.00     0.410 C 
HETATM   11  O2  UNL     1      -0.533  14.318  21.533  1.00  0.00    -0.229 OA
BRANCH  10  12
HETATM   12  O1  UNL     1       1.062  12.706  21.389  1.00  0.00    -0.303 OA
HETATM   13  C1  UNL     1       0.569  11.533  20.808  1.00  0.00     0.215 C 
ENDBRANCH  10  12
ENDBRANCH   9  10
ENDBRANCH   8   9
ENDBRANCH   1   8
BRANCH   2  14
HETATM   14  O4  UNL     1       2.122  10.803  23.441  1.00  0.00    -0.357 OA
ATOM     15  H4  UNL     1       2.423  11.520  22.895  1.00  0.00     0.217 HD
ENDBRANCH   2  14
BRANCH   7  16
HETATM   16  C11 UNL     1      -0.021  12.960  27.118  1.00  0.00     0.145 C 
BRANCH  16  17
HETATM   17  O7  UNL     1       0.038  14.307  27.318  1.00  0.00    -0.372 OA
ATOM     18  H7  UNL     1      -0.381  14.832  27.990  1.00  0.00     0.216 HD
ENDBRANCH  16  17
ENDBRANCH   7  16
BRANCH   3  19
HETATM   19  O5  UNL     1       3.818   9.558  25.281  1.00  0.00    -0.356 OA
ATOM     20  H5  UNL     1       4.163   8.895  25.868  1.00  0.00     0.218 HD
ENDBRANCH   3  19
BRANCH   4  21
HETATM   21  O6  UNL     1       3.521  10.069  27.967  1.00  0.00    -0.351 OA
HETATM   22  C8  UNL     1       3.317   8.811  28.542  1.00  0.00     0.210 C 
ENDBRANCH   4  21
TORSDOF 9
ENDMDL
