MODEL 1
REMARK VINA RESULT: -5.774119794      0.000      0.000
REMARK  5 active torsions:
REMARK  status: ('A' for Active; 'I' for Inactive)
REMARK    1  A    between atoms: C3_4  and  O2_6 
REMARK    2  A    between atoms: C5_8  and  O3_9 
REMARK    3  A    between atoms: O3_9  and  C6_10 
REMARK    4  A    between atoms: C8_15  and  O4_16 
REMARK    5  A    between atoms: C9_18  and  O5_19 
ROOT
HETATM    1  C1  UNL     1      11.960  -0.641  -2.331  1.00  0.00     0.042 C 
HETATM    2  C2  UNL     1      11.865  -0.419  -0.853  1.00  0.00     0.152 C 
HETATM    3  O1  UNL     1      11.290   0.808  -0.595  1.00  0.00    -0.345 OA
HETATM    4  C3  UNL     1      11.056   1.058   0.734  1.00  0.00     0.187 C 
HETATM    5  C4  UNL     1      11.446   2.475   1.088  1.00  0.00     0.082 C 
HETATM    6  C5  UNL     1      11.670   0.047   1.665  1.00  0.00     0.217 C 
HETATM    7  C8  UNL     1      13.052  -0.371   1.270  1.00  0.00     0.183 C 
HETATM    8  C9  UNL     1      13.259  -0.390  -0.216  1.00  0.00     0.178 C 
ENDROOT
BRANCH   6   9
HETATM    9  O3  UNL     1      11.690   0.608   2.938  1.00  0.00    -0.346 OA
BRANCH   9  10
HETATM   10  C6  UNL     1      11.399  -0.277   3.936  1.00  0.00     0.295 C 
HETATM   11  N1  UNL     1      12.482  -0.400   4.896  1.00  0.00    -0.105 NA
HETATM   12  N2  UNL     1      11.938  -0.898   6.084  1.00  0.00    -0.135 NA
HETATM   13  C7  UNL     1      11.028   0.111   6.601  1.00  0.00     0.208 C 
HETATM   14  S1  UNL     1      10.161   0.539   5.031  1.00  0.00    -0.102 SA
ENDBRANCH   9  10
ENDBRANCH   6   9
BRANCH   4  15
HETATM   15  O2  UNL     1       9.658   0.978   0.933  1.00  0.00    -0.363 OA
ATOM     16  H2  UNL     1       9.439   1.589   1.627  1.00  0.00     0.213 HD
ENDBRANCH   4  15
BRANCH   7  17
HETATM   17  O4  UNL     1      13.981   0.422   1.941  1.00  0.00    -0.390 OA
ATOM     18  H4  UNL     1      14.292   1.103   1.356  1.00  0.00     0.210 HD
ENDBRANCH   7  17
BRANCH   8  19
HETATM   19  O5  UNL     1      13.927  -1.513  -0.660  1.00  0.00    -0.390 OA
ATOM     20  H5  UNL     1      14.804  -1.474  -0.296  1.00  0.00     0.210 HD
ENDBRANCH   8  19
TORSDOF 5
ENDMDL
MODEL 2
REMARK VINA RESULT: -5.698299642      3.415      5.684
REMARK  5 active torsions:
REMARK  status: ('A' for Active; 'I' for Inactive)
REMARK    1  A    between atoms: C3_4  and  O2_6 
REMARK    2  A    between atoms: C5_8  and  O3_9 
REMARK    3  A    between atoms: O3_9  and  C6_10 
REMARK    4  A    between atoms: C8_15  and  O4_16 
REMARK    5  A    between atoms: C9_18  and  O5_19 
ROOT
HETATM    1  C1  UNL     1       9.892   0.332   6.185  1.00  0.00     0.042 C 
HETATM    2  C2  UNL     1      10.607  -0.270   5.015  1.00  0.00     0.152 C 
HETATM    3  O1  UNL     1      11.732  -0.945   5.444  1.00  0.00    -0.345 OA
HETATM    4  C3  UNL     1      12.395  -1.629   4.456  1.00  0.00     0.187 C 
HETATM    5  C4  UNL     1      13.890  -1.437   4.586  1.00  0.00     0.082 C 
HETATM    6  C5  UNL     1      11.899  -1.333   3.067  1.00  0.00     0.217 C 
HETATM    7  C8  UNL     1      11.605   0.116   2.830  1.00  0.00     0.183 C 
HETATM    8  C9  UNL     1      11.093   0.819   4.053  1.00  0.00     0.178 C 
ENDROOT
BRANCH   6   9
HETATM    9  O3  UNL     1      12.872  -1.771   2.174  1.00  0.00    -0.346 OA
BRANCH   9  10
HETATM   10  C6  UNL     1      12.372  -2.475   1.116  1.00  0.00     0.295 C 
HETATM   11  N1  UNL     1      13.189  -2.332  -0.077  1.00  0.00    -0.105 NA
HETATM   12  N2  UNL     1      12.915  -3.422  -0.908  1.00  0.00    -0.135 NA
HETATM   13  C7  UNL     1      13.375  -4.618  -0.223  1.00  0.00     0.208 C 
HETATM   14  S1  UNL     1      12.703  -4.257   1.456  1.00  0.00    -0.102 SA
ENDBRANCH   9  10
ENDBRANCH   6   9
BRANCH   4  15
HETATM   15  O2  UNL     1      12.160  -3.006   4.674  1.00  0.00    -0.363 OA
ATOM     16  H2  UNL     1      11.769  -3.352   3.880  1.00  0.00     0.213 HD
ENDBRANCH   4  15
BRANCH   7  17
HETATM   17  O4  UNL     1      12.726   0.728   2.277  1.00  0.00    -0.390 OA
ATOM     18  H4  UNL     1      12.453   1.482   1.767  1.00  0.00     0.210 HD
ENDBRANCH   7  17
BRANCH   8  19
HETATM   19  O5  UNL     1      10.013   1.640   3.799  1.00  0.00    -0.390 OA
ATOM     20  H5  UNL     1      10.356   2.520   3.689  1.00  0.00     0.210 HD
ENDBRANCH   8  19
TORSDOF 5
ENDMDL
MODEL 3
REMARK VINA RESULT: -5.657095107      3.851      5.935
REMARK  5 active torsions:
REMARK  status: ('A' for Active; 'I' for Inactive)
REMARK    1  A    between atoms: C3_4  and  O2_6 
REMARK    2  A    between atoms: C5_8  and  O3_9 
REMARK    3  A    between atoms: O3_9  and  C6_10 
REMARK    4  A    between atoms: C8_15  and  O4_16 
REMARK    5  A    between atoms: C9_18  and  O5_19 
ROOT
HETATM    1  C1  UNL     1       9.552   0.617   6.039  1.00  0.00     0.042 C 
HETATM    2  C2  UNL     1      10.362  -0.428   5.335  1.00  0.00     0.152 C 
HETATM    3  O1  UNL     1      11.317  -0.941   6.189  1.00  0.00    -0.345 OA
HETATM    4  C3  UNL     1      12.039  -1.987   5.671  1.00  0.00     0.187 C 
HETATM    5  C4  UNL     1      13.507  -1.837   6.001  1.00  0.00     0.082 C 
HETATM    6  C5  UNL     1      11.804  -2.227   4.204  1.00  0.00     0.217 C 
HETATM    7  C8  UNL     1      11.727  -0.969   3.395  1.00  0.00     0.183 C 
HETATM    8  C9  UNL     1      11.119   0.178   4.148  1.00  0.00     0.178 C 
ENDROOT
BRANCH   6   9
HETATM    9  O3  UNL     1      12.844  -3.026   3.740  1.00  0.00    -0.346 OA
BRANCH   9  10
HETATM   10  C6  UNL     1      12.443  -4.009   2.881  1.00  0.00     0.295 C 
HETATM   11  N1  UNL     1      12.520  -3.592   1.492  1.00  0.00    -0.105 NA
HETATM   12  N2  UNL     1      12.582  -4.749   0.708  1.00  0.00    -0.135 NA
HETATM   13  C7  UNL     1      13.835  -5.416   1.018  1.00  0.00     0.208 C 
HETATM   14  S1  UNL     1      13.782  -5.276   2.856  1.00  0.00    -0.102 SA
ENDBRANCH   9  10
ENDBRANCH   6   9
BRANCH   4  15
HETATM   15  O2  UNL     1      11.609  -3.159   6.336  1.00  0.00    -0.363 OA
ATOM     16  H2  UNL     1      11.720  -3.881   5.729  1.00  0.00     0.213 HD
ENDBRANCH   4  15
BRANCH   7  17
HETATM   17  O4  UNL     1      12.986  -0.677   2.878  1.00  0.00    -0.390 OA
ATOM     18  H4  UNL     1      13.219   0.216   3.104  1.00  0.00     0.210 HD
ENDBRANCH   7  17
BRANCH   8  19
HETATM   19  O5  UNL     1      10.199   0.891   3.407  1.00  0.00    -0.390 OA
ATOM     20  H5  UNL     1      10.693   1.466   2.834  1.00  0.00     0.210 HD
ENDBRANCH   8  19
TORSDOF 5
ENDMDL
MODEL 4
REMARK VINA RESULT: -5.504820322      1.371      1.438
REMARK  5 active torsions:
REMARK  status: ('A' for Active; 'I' for Inactive)
REMARK    1  A    between atoms: C3_4  and  O2_6 
REMARK    2  A    between atoms: C5_8  and  O3_9 
REMARK    3  A    between atoms: O3_9  and  C6_10 
REMARK    4  A    between atoms: C8_15  and  O4_16 
REMARK    5  A    between atoms: C9_18  and  O5_19 
ROOT
HETATM    1  C1  UNL     1      12.012  -0.306  -2.518  1.00  0.00     0.042 C 
HETATM    2  C2  UNL     1      12.042  -0.264  -1.022  1.00  0.00     0.152 C 
HETATM    3  O1  UNL     1      11.345   0.836  -0.565  1.00  0.00    -0.345 OA
HETATM    4  C3  UNL     1      11.219   0.902   0.800  1.00  0.00     0.187 C 
HETATM    5  C4  UNL     1      11.459   2.312   1.291  1.00  0.00     0.082 C 
HETATM    6  C5  UNL     1      12.048  -0.111   1.542  1.00  0.00     0.217 C 
HETATM    7  C8  UNL     1      13.425  -0.287   0.981  1.00  0.00     0.183 C 
HETATM    8  C9  UNL     1      13.479  -0.113  -0.508  1.00  0.00     0.178 C 
ENDROOT
BRANCH   6   9
HETATM    9  O3  UNL     1      12.126   0.303   2.868  1.00  0.00    -0.346 OA
BRANCH   9  10
HETATM   10  C6  UNL     1      11.672  -0.623   3.763  1.00  0.00     0.295 C 
HETATM   11  N1  UNL     1      11.894  -1.984   3.306  1.00  0.00    -0.105 NA
HETATM   12  N2  UNL     1      11.874  -2.814   4.431  1.00  0.00    -0.135 NA
HETATM   13  C7  UNL     1      13.016  -2.455   5.256  1.00  0.00     0.208 C 
HETATM   14  S1  UNL     1      12.853  -0.620   5.180  1.00  0.00    -0.102 SA
ENDBRANCH   9  10
ENDBRANCH   6   9
BRANCH   4  15
HETATM   15  O2  UNL     1       9.869   0.609   1.107  1.00  0.00    -0.363 OA
ATOM     16  H2  UNL     1       9.848   0.302   2.007  1.00  0.00     0.213 HD
ENDBRANCH   4  15
BRANCH   7  17
HETATM   17  O4  UNL     1      14.308   0.547   1.661  1.00  0.00    -0.390 OA
ATOM     18  H4  UNL     1      15.139   0.566   1.200  1.00  0.00     0.210 HD
ENDBRANCH   7  17
BRANCH   8  19
HETATM   19  O5  UNL     1      14.235  -1.077  -1.144  1.00  0.00    -0.390 OA
ATOM     20  H5  UNL     1      14.169  -1.867  -0.621  1.00  0.00     0.210 HD
ENDBRANCH   8  19
TORSDOF 5
ENDMDL
MODEL 5
REMARK VINA RESULT: -5.385044435      3.858      5.477
REMARK  5 active torsions:
REMARK  status: ('A' for Active; 'I' for Inactive)
REMARK    1  A    between atoms: C3_4  and  O2_6 
REMARK    2  A    between atoms: C5_8  and  O3_9 
REMARK    3  A    between atoms: O3_9  and  C6_10 
REMARK    4  A    between atoms: C8_15  and  O4_16 
REMARK    5  A    between atoms: C9_18  and  O5_19 
ROOT
HETATM    1  C1  UNL     1      10.168   1.124   4.556  1.00  0.00     0.042 C 
HETATM    2  C2  UNL     1      10.857  -0.072   3.977  1.00  0.00     0.152 C 
HETATM    3  O1  UNL     1      11.806  -0.546   4.860  1.00  0.00    -0.345 OA
HETATM    4  C3  UNL     1      12.416  -1.711   4.469  1.00  0.00     0.187 C 
HETATM    5  C4  UNL     1      13.905  -1.646   4.725  1.00  0.00     0.082 C 
HETATM    6  C5  UNL     1      12.096  -2.127   3.058  1.00  0.00     0.217 C 
HETATM    7  C8  UNL     1      12.084  -0.988   2.085  1.00  0.00     0.183 C 
HETATM    8  C9  UNL     1      11.607   0.298   2.692  1.00  0.00     0.178 C 
ENDROOT
BRANCH   6   9
HETATM    9  O3  UNL     1      13.045  -3.068   2.674  1.00  0.00    -0.346 OA
BRANCH   9  10
HETATM   10  C6  UNL     1      12.526  -4.310   2.438  1.00  0.00     0.295 C 
HETATM   11  N1  UNL     1      12.240  -4.528   1.031  1.00  0.00    -0.105 NA
HETATM   12  N2  UNL     1      12.201  -5.910   0.819  1.00  0.00    -0.135 NA
HETATM   13  C7  UNL     1      13.539  -6.424   1.062  1.00  0.00     0.208 C 
HETATM   14  S1  UNL     1      13.913  -5.512   2.620  1.00  0.00    -0.102 SA
ENDBRANCH   9  10
ENDBRANCH   6   9
BRANCH   4  15
HETATM   15  O2  UNL     1      11.923  -2.740   5.304  1.00  0.00    -0.363 OA
ATOM     16  H2  UNL     1      12.147  -3.567   4.892  1.00  0.00     0.213 HD
ENDBRANCH   4  15
BRANCH   7  17
HETATM   17  O4  UNL     1      13.338  -0.879   1.491  1.00  0.00    -0.390 OA
ATOM     18  H4  UNL     1      13.755  -0.077   1.782  1.00  0.00     0.210 HD
ENDBRANCH   7  17
BRANCH   8  19
HETATM   19  O5  UNL     1      10.715   0.982   1.891  1.00  0.00    -0.390 OA
ATOM     20  H5  UNL     1      10.361   0.352   1.273  1.00  0.00     0.210 HD
ENDBRANCH   8  19
TORSDOF 5
ENDMDL
