MODEL 1
REMARK VINA RESULT: -6.320422290      0.000      0.000
REMARK  6 active torsions:
REMARK  status: ('A' for Active; 'I' for Inactive)
REMARK    1  A    between atoms: O1_2  and  C2_3 
REMARK    2  A    between atoms: N1_5  and  O2_7 
REMARK    3  A    between atoms: O2_7  and  C4_8 
REMARK    4  A    between atoms: C7_13  and  O4_14 
REMARK    5  A    between atoms: C8_16  and  O5_17 
REMARK    6  A    between atoms: C9_19  and  O6_20 
ROOT
HETATM    1  C4  UNL     1      11.371   0.380   4.318  1.00  0.00     0.322 C 
HETATM    2  O3  UNL     1      11.934  -0.732   3.809  1.00  0.00    -0.331 OA
HETATM    3  C5  UNL     1      12.800  -1.458   4.518  1.00  0.00     0.146 C 
HETATM    4  C6  UNL     1      14.251  -1.244   4.091  1.00  0.00     0.062 C 
HETATM    5  S1  UNL     1      12.456  -3.230   4.167  1.00  0.00    -0.053 SA
HETATM    6  C7  UNL     1      12.754  -1.311   6.009  1.00  0.00     0.195 C 
HETATM    7  C8  UNL     1      11.297  -1.000   6.367  1.00  0.00     0.184 C 
HETATM    8  C9  UNL     1      11.053   0.374   5.774  1.00  0.00     0.207 C 
ENDROOT
BRANCH   1   9
HETATM    9  O2  UNL     1      10.212   0.656   3.526  1.00  0.00    -0.243 OA
BRANCH   9  10
HETATM   10  N1  UNL     1       9.973   1.827   2.909  1.00  0.00    -0.246 N 
HETATM   11  C2  UNL     1      10.502   2.235   1.815  1.00  0.00     0.133 C 
HETATM   12  C3  UNL     1      11.488   1.416   1.069  1.00  0.00     0.099 C 
ATOM     13  H1  UNL     1       9.305   2.453   3.357  1.00  0.00     0.196 HD
BRANCH  11  14
HETATM   14  O1  UNL     1      10.123   3.481   1.337  1.00  0.00    -0.343 OA
HETATM   15  C1  UNL     1       9.253   3.597   0.200  1.00  0.00     0.211 C 
ENDBRANCH  11  14
ENDBRANCH   9  10
ENDBRANCH   1   9
BRANCH   8  16
HETATM   16  O6  UNL     1       9.737   0.716   6.058  1.00  0.00    -0.388 OA
ATOM     17  H6  UNL     1       9.176  -0.033   6.224  1.00  0.00     0.210 HD
ENDBRANCH   8  16
BRANCH   7  18
HETATM   18  O5  UNL     1      11.087  -1.028   7.728  1.00  0.00    -0.390 OA
ATOM     19  H5  UNL     1      10.394  -0.434   7.991  1.00  0.00     0.210 HD
ENDBRANCH   7  18
BRANCH   6  20
HETATM   20  O4  UNL     1      13.172  -2.496   6.580  1.00  0.00    -0.389 OA
ATOM     21  H4  UNL     1      12.536  -2.756   7.237  1.00  0.00     0.210 HD
ENDBRANCH   6  20
TORSDOF 6
ENDMDL
MODEL 2
REMARK VINA RESULT: -6.139882067      3.109      4.368
REMARK  6 active torsions:
REMARK  status: ('A' for Active; 'I' for Inactive)
REMARK    1  A    between atoms: O1_2  and  C2_3 
REMARK    2  A    between atoms: N1_5  and  O2_7 
REMARK    3  A    between atoms: O2_7  and  C4_8 
REMARK    4  A    between atoms: C7_13  and  O4_14 
REMARK    5  A    between atoms: C8_16  and  O5_17 
REMARK    6  A    between atoms: C9_19  and  O6_20 
ROOT
HETATM    1  C4  UNL     1      11.932  -1.889   3.694  1.00  0.00     0.322 C 
HETATM    2  O3  UNL     1      11.530  -0.731   4.252  1.00  0.00    -0.331 OA
HETATM    3  C5  UNL     1      11.092  -0.684   5.511  1.00  0.00     0.146 C 
HETATM    4  C6  UNL     1       9.571  -0.573   5.612  1.00  0.00     0.062 C 
HETATM    5  S1  UNL     1      11.733   0.867   6.262  1.00  0.00    -0.053 SA
HETATM    6  C7  UNL     1      11.514  -1.795   6.424  1.00  0.00     0.195 C 
HETATM    7  C8  UNL     1      12.896  -2.247   5.942  1.00  0.00     0.184 C 
HETATM    8  C9  UNL     1      12.634  -2.860   4.580  1.00  0.00     0.207 C 
ENDROOT
BRANCH   1   9
HETATM    9  O2  UNL     1      12.727  -1.544   2.555  1.00  0.00    -0.243 OA
BRANCH   9  10
HETATM   10  N1  UNL     1      12.711  -2.212   1.387  1.00  0.00    -0.246 N 
HETATM   11  C2  UNL     1      13.064  -1.755   0.243  1.00  0.00     0.133 C 
HETATM   12  C3  UNL     1      13.554  -0.366   0.072  1.00  0.00     0.099 C 
ATOM     13  H1  UNL     1      12.387  -3.178   1.416  1.00  0.00     0.196 HD
BRANCH  11  14
HETATM   14  O1  UNL     1      12.975  -2.605  -0.850  1.00  0.00    -0.343 OA
HETATM   15  C1  UNL     1      12.861  -4.026  -0.666  1.00  0.00     0.211 C 
ENDBRANCH  11  14
ENDBRANCH   9  10
ENDBRANCH   1   9
BRANCH   8  16
HETATM   16  O6  UNL     1      13.858  -3.287   4.079  1.00  0.00    -0.388 OA
ATOM     17  H6  UNL     1      13.858  -3.423   3.140  1.00  0.00     0.210 HD
ENDBRANCH   8  16
BRANCH   7  18
HETATM   18  O5  UNL     1      13.477  -3.140   6.816  1.00  0.00    -0.390 OA
ATOM     19  H5  UNL     1      13.382  -2.862   7.719  1.00  0.00     0.210 HD
ENDBRANCH   7  18
BRANCH   6  20
HETATM   20  O4  UNL     1      11.564  -1.309   7.714  1.00  0.00    -0.389 OA
ATOM     21  H4  UNL     1      11.662  -2.042   8.310  1.00  0.00     0.210 HD
ENDBRANCH   6  20
TORSDOF 6
ENDMDL
MODEL 3
REMARK VINA RESULT: -6.084563931      2.924      4.961
REMARK  6 active torsions:
REMARK  status: ('A' for Active; 'I' for Inactive)
REMARK    1  A    between atoms: O1_2  and  C2_3 
REMARK    2  A    between atoms: N1_5  and  O2_7 
REMARK    3  A    between atoms: O2_7  and  C4_8 
REMARK    4  A    between atoms: C7_13  and  O4_14 
REMARK    5  A    between atoms: C8_16  and  O5_17 
REMARK    6  A    between atoms: C9_19  and  O6_20 
ROOT
HETATM    1  C4  UNL     1      13.756  -1.226   4.229  1.00  0.00     0.322 C 
HETATM    2  O3  UNL     1      13.041  -0.276   3.597  1.00  0.00    -0.331 OA
HETATM    3  C5  UNL     1      12.843  -0.318   2.279  1.00  0.00     0.146 C 
HETATM    4  C6  UNL     1      13.719   0.667   1.509  1.00  0.00     0.062 C 
HETATM    5  S1  UNL     1      11.116   0.230   1.961  1.00  0.00    -0.053 SA
HETATM    6  C7  UNL     1      12.986  -1.651   1.610  1.00  0.00     0.195 C 
HETATM    7  C8  UNL     1      12.565  -2.701   2.643  1.00  0.00     0.184 C 
HETATM    8  C9  UNL     1      13.634  -2.620   3.714  1.00  0.00     0.207 C 
ENDROOT
BRANCH   1   9
HETATM    9  O2  UNL     1      13.417  -1.144   5.616  1.00  0.00    -0.243 OA
BRANCH   9  10
HETATM   10  N1  UNL     1      12.384  -0.435   6.106  1.00  0.00    -0.246 N 
HETATM   11  C2  UNL     1      11.253  -0.900   6.489  1.00  0.00     0.133 C 
HETATM   12  C3  UNL     1      10.942  -2.349   6.431  1.00  0.00     0.099 C 
ATOM     13  H1  UNL     1      12.515   0.573   6.180  1.00  0.00     0.196 HD
BRANCH  11  14
HETATM   14  O1  UNL     1      10.311  -0.001   6.967  1.00  0.00    -0.343 OA
HETATM   15  C1  UNL     1       9.387   0.638   6.072  1.00  0.00     0.211 C 
ENDBRANCH  11  14
ENDBRANCH   9  10
ENDBRANCH   1   9
BRANCH   8  16
HETATM   16  O6  UNL     1      13.305  -3.548   4.694  1.00  0.00    -0.388 OA
ATOM     17  H6  UNL     1      13.799  -3.444   5.499  1.00  0.00     0.210 HD
ENDBRANCH   8  16
BRANCH   7  18
HETATM   18  O5  UNL     1      12.474  -3.958   2.088  1.00  0.00    -0.390 OA
ATOM     19  H5  UNL     1      13.302  -4.244   1.721  1.00  0.00     0.210 HD
ENDBRANCH   7  18
BRANCH   6  20
HETATM   20  O4  UNL     1      12.166  -1.677   0.500  1.00  0.00    -0.389 OA
ATOM     21  H4  UNL     1      12.201  -2.546   0.118  1.00  0.00     0.210 HD
ENDBRANCH   6  20
TORSDOF 6
ENDMDL
MODEL 4
REMARK VINA RESULT: -6.015590934      2.448      3.550
REMARK  6 active torsions:
REMARK  status: ('A' for Active; 'I' for Inactive)
REMARK    1  A    between atoms: O1_2  and  C2_3 
REMARK    2  A    between atoms: N1_5  and  O2_7 
REMARK    3  A    between atoms: O2_7  and  C4_8 
REMARK    4  A    between atoms: C7_13  and  O4_14 
REMARK    5  A    between atoms: C8_16  and  O5_17 
REMARK    6  A    between atoms: C9_19  and  O6_20 
ROOT
HETATM    1  C4  UNL     1      12.012  -1.652   3.696  1.00  0.00     0.322 C 
HETATM    2  O3  UNL     1      11.569  -0.542   4.315  1.00  0.00    -0.331 OA
HETATM    3  C5  UNL     1      11.079  -0.588   5.555  1.00  0.00     0.146 C 
HETATM    4  C6  UNL     1       9.554  -0.504   5.599  1.00  0.00     0.062 C 
HETATM    5  S1  UNL     1      11.665   0.915   6.438  1.00  0.00    -0.053 SA
HETATM    6  C7  UNL     1      11.481  -1.754   6.405  1.00  0.00     0.195 C 
HETATM    7  C8  UNL     1      12.888  -2.154   5.951  1.00  0.00     0.184 C 
HETATM    8  C9  UNL     1      12.692  -2.674   4.541  1.00  0.00     0.207 C 
ENDROOT
BRANCH   1   9
HETATM    9  O2  UNL     1      12.847  -1.218   2.618  1.00  0.00    -0.243 OA
BRANCH   9  10
HETATM   10  N1  UNL     1      12.419  -1.014   1.359  1.00  0.00    -0.246 N 
HETATM   11  C2  UNL     1      12.171   0.117   0.811  1.00  0.00     0.133 C 
HETATM   12  C3  UNL     1      12.337   1.395   1.545  1.00  0.00     0.099 C 
ATOM     13  H1  UNL     1      12.279  -1.844   0.783  1.00  0.00     0.196 HD
BRANCH  11  14
HETATM   14  O1  UNL     1      11.736   0.118  -0.506  1.00  0.00    -0.343 OA
HETATM   15  C1  UNL     1      12.530  -0.484  -1.541  1.00  0.00     0.211 C 
ENDBRANCH  11  14
ENDBRANCH   9  10
ENDBRANCH   1   9
BRANCH   8  16
HETATM   16  O6  UNL     1      13.942  -3.049   4.064  1.00  0.00    -0.388 OA
ATOM     17  H6  UNL     1      14.574  -3.226   4.750  1.00  0.00     0.210 HD
ENDBRANCH   8  16
BRANCH   7  18
HETATM   18  O5  UNL     1      13.446  -3.098   6.785  1.00  0.00    -0.390 OA
ATOM     19  H5  UNL     1      13.888  -2.699   7.525  1.00  0.00     0.210 HD
ENDBRANCH   7  18
BRANCH   6  20
HETATM   20  O4  UNL     1      11.469  -1.359   7.727  1.00  0.00    -0.389 OA
ATOM     21  H4  UNL     1      12.342  -1.067   7.963  1.00  0.00     0.210 HD
ENDBRANCH   6  20
TORSDOF 6
ENDMDL
MODEL 5
REMARK VINA RESULT: -6.015203460      1.747      2.754
REMARK  6 active torsions:
REMARK  status: ('A' for Active; 'I' for Inactive)
REMARK    1  A    between atoms: O1_2  and  C2_3 
REMARK    2  A    between atoms: N1_5  and  O2_7 
REMARK    3  A    between atoms: O2_7  and  C4_8 
REMARK    4  A    between atoms: C7_13  and  O4_14 
REMARK    5  A    between atoms: C8_16  and  O5_17 
REMARK    6  A    between atoms: C9_19  and  O6_20 
ROOT
HETATM    1  C4  UNL     1      11.520  -0.554   3.486  1.00  0.00     0.322 C 
HETATM    2  O3  UNL     1      11.082  -0.546   4.760  1.00  0.00    -0.331 OA
HETATM    3  C5  UNL     1      11.525  -1.434   5.651  1.00  0.00     0.146 C 
HETATM    4  C6  UNL     1      10.520  -2.548   5.938  1.00  0.00     0.062 C 
HETATM    5  S1  UNL     1      11.731  -0.554   7.253  1.00  0.00    -0.053 SA
HETATM    6  C7  UNL     1      12.841  -2.091   5.364  1.00  0.00     0.195 C 
HETATM    7  C8  UNL     1      13.674  -1.069   4.585  1.00  0.00     0.184 C 
HETATM    8  C9  UNL     1      12.946  -0.925   3.263  1.00  0.00     0.207 C 
ENDROOT
BRANCH   1   9
HETATM    9  O2  UNL     1      11.217   0.731   2.937  1.00  0.00    -0.243 OA
BRANCH   9  10
HETATM   10  N1  UNL     1      10.109   1.013   2.229  1.00  0.00    -0.246 N 
HETATM   11  C2  UNL     1       9.991   1.911   1.322  1.00  0.00     0.133 C 
HETATM   12  C3  UNL     1      11.125   2.785   0.933  1.00  0.00     0.099 C 
ATOM     13  H1  UNL     1       9.280   0.457   2.433  1.00  0.00     0.196 HD
BRANCH  11  14
HETATM   14  O1  UNL     1       8.757   2.048   0.702  1.00  0.00    -0.343 OA
HETATM   15  C1  UNL     1       8.394   3.280   0.057  1.00  0.00     0.211 C 
ENDBRANCH  11  14
ENDBRANCH   9  10
ENDBRANCH   1   9
BRANCH   8  16
HETATM   16  O6  UNL     1      13.651   0.003   2.505  1.00  0.00    -0.388 OA
ATOM     17  H6  UNL     1      13.915  -0.324   1.653  1.00  0.00     0.210 HD
ENDBRANCH   8  16
BRANCH   7  18
HETATM   18  O5  UNL     1      14.977  -1.484   4.424  1.00  0.00    -0.390 OA
ATOM     19  H5  UNL     1      15.111  -1.911   3.586  1.00  0.00     0.210 HD
ENDBRANCH   7  18
BRANCH   6  20
HETATM   20  O4  UNL     1      13.439  -2.420   6.564  1.00  0.00    -0.389 OA
ATOM     21  H4  UNL     1      14.365  -2.216   6.506  1.00  0.00     0.210 HD
ENDBRANCH   6  20
TORSDOF 6
ENDMDL
