MODEL 1
REMARK VINA RESULT: -7.742365799      0.000      0.000
REMARK  1 active torsions:
REMARK  status: ('A' for Active; 'I' for Inactive)
REMARK    1  A    between atoms: N1_1  and  C1_4 
ROOT
HETATM    1  C1  UNL     1      40.962   2.303  41.175  1.00  0.00     0.680 A 
HETATM    2  N2  UNL     1      40.215   2.018  40.092  1.00  0.00    -0.155 N 
ATOM      3  H2  UNL     1      40.684   1.726  39.235  1.00  0.00     0.187 HD
HETATM    4  C2  UNL     1      38.871   2.104  40.098  1.00  0.00     0.279 A 
HETATM    5  O1  UNL     1      38.162   1.842  39.097  1.00  0.00    -0.266 OA
HETATM    6  C3  UNL     1      38.242   2.495  41.252  1.00  0.00     0.147 A 
HETATM    7  C4  UNL     1      36.860   2.596  41.297  1.00  0.00     0.280 A 
HETATM    8  O2  UNL     1      36.176   2.326  40.275  1.00  0.00    -0.266 OA
HETATM    9  N3  UNL     1      36.308   2.987  42.462  1.00  0.00    -0.251 N 
ATOM     10  H3  UNL     1      35.294   3.071  42.533  1.00  0.00     0.192 HD
HETATM   11  N4  UNL     1      37.068   3.265  43.530  1.00  0.00    -0.238 N 
ATOM     12  H4  UNL     1      36.619   3.558  44.398  1.00  0.00     0.208 HD
HETATM   13  N5  UNL     1      38.387   3.169  43.483  1.00  0.00    -0.269 N 
ATOM     14  H5  UNL     1      38.931   3.391  44.318  1.00  0.00     0.190 HD
HETATM   15  C5  UNL     1      39.038   2.784  42.355  1.00  0.00     0.158 A 
HETATM   16  N6  UNL     1      40.377   2.690  42.323  1.00  0.00    -0.174 N 
ATOM     17  H6  UNL     1      40.936   2.908  43.148  1.00  0.00     0.186 HD
ENDROOT
BRANCH   1  18
HETATM   18  N1  UNL     1      42.262   2.196  41.089  1.00  0.00    -0.234 N 
ATOM     19  H12 UNL     1      42.734   2.270  40.187  1.00  0.00     0.174 HD
ATOM     20  H11 UNL     1      42.799   2.038  41.941  1.00  0.00     0.174 HD
ENDBRANCH   1  18
TORSDOF 1
ENDMDL
MODEL 2
REMARK VINA RESULT: -7.633816101      1.888      2.677
REMARK  1 active torsions:
REMARK  status: ('A' for Active; 'I' for Inactive)
REMARK    1  A    between atoms: N1_1  and  C1_4 
ROOT
HETATM    1  C1  UNL     1      40.768   2.285  41.239  1.00  0.00     0.680 A 
HETATM    2  N2  UNL     1      40.230   2.360  42.470  1.00  0.00    -0.155 N 
ATOM      3  H2  UNL     1      40.852   2.388  43.277  1.00  0.00     0.187 HD
HETATM    4  C2  UNL     1      38.900   2.401  42.675  1.00  0.00     0.279 A 
HETATM    5  O1  UNL     1      38.383   2.470  43.816  1.00  0.00    -0.266 OA
HETATM    6  C3  UNL     1      38.064   2.365  41.588  1.00  0.00     0.147 A 
HETATM    7  C4  UNL     1      36.689   2.404  41.760  1.00  0.00     0.280 A 
HETATM    8  O2  UNL     1      36.201   2.474  42.918  1.00  0.00    -0.266 OA
HETATM    9  N3  UNL     1      35.928   2.365  40.649  1.00  0.00    -0.251 N 
ATOM     10  H3  UNL     1      34.913   2.393  40.735  1.00  0.00     0.192 HD
HETATM   11  N4  UNL     1      36.483   2.290  39.431  1.00  0.00    -0.238 N 
ATOM     12  H4  UNL     1      35.879   2.263  38.610  1.00  0.00     0.208 HD
HETATM   13  N5  UNL     1      37.796   2.252  39.271  1.00  0.00    -0.269 N 
ATOM     14  H5  UNL     1      38.180   2.195  38.327  1.00  0.00     0.190 HD
HETATM   15  C5  UNL     1      38.648   2.287  40.329  1.00  0.00     0.158 A 
HETATM   16  N6  UNL     1      39.978   2.248  40.151  1.00  0.00    -0.174 N 
ATOM     17  H6  UNL     1      40.378   2.191  39.214  1.00  0.00     0.186 HD
ENDROOT
BRANCH   1  18
HETATM   18  N1  UNL     1      42.070   2.249  41.122  1.00  0.00    -0.234 N 
ATOM     19  H12 UNL     1      42.659   1.996  41.916  1.00  0.00     0.174 HD
ATOM     20  H11 UNL     1      42.489   2.480  40.221  1.00  0.00     0.174 HD
ENDBRANCH   1  18
TORSDOF 1
ENDMDL
MODEL 3
REMARK VINA RESULT: -7.390797160      2.128      4.031
REMARK  1 active torsions:
REMARK  status: ('A' for Active; 'I' for Inactive)
REMARK    1  A    between atoms: N1_1  and  C1_4 
ROOT
HETATM    1  C1  UNL     1      36.539   2.444  39.446  1.00  0.00     0.680 A 
HETATM    2  N2  UNL     1      36.025   2.421  40.689  1.00  0.00    -0.155 N 
ATOM      3  H2  UNL     1      35.012   2.392  40.800  1.00  0.00     0.187 HD
HETATM    4  C2  UNL     1      36.798   2.435  41.791  1.00  0.00     0.279 A 
HETATM    5  O1  UNL     1      36.332   2.415  42.956  1.00  0.00    -0.266 OA
HETATM    6  C3  UNL     1      38.160   2.474  41.640  1.00  0.00     0.147 A 
HETATM    7  C4  UNL     1      38.988   2.490  42.751  1.00  0.00     0.280 A 
HETATM    8  O2  UNL     1      38.490   2.468  43.907  1.00  0.00    -0.266 OA
HETATM    9  N3  UNL     1      40.317   2.528  42.529  1.00  0.00    -0.251 N 
ATOM     10  H3  UNL     1      40.957   2.540  43.322  1.00  0.00     0.192 HD
HETATM   11  N4  UNL     1      40.810   2.550  41.284  1.00  0.00    -0.238 N 
ATOM     12  H4  UNL     1      41.821   2.578  41.149  1.00  0.00     0.208 HD
HETATM   13  N5  UNL     1      40.017   2.535  40.225  1.00  0.00    -0.269 N 
ATOM     14  H5  UNL     1      40.432   2.553  39.293  1.00  0.00     0.190 HD
HETATM   15  C5  UNL     1      38.664   2.496  40.344  1.00  0.00     0.158 A 
HETATM   16  N6  UNL     1      37.872   2.482  39.261  1.00  0.00    -0.174 N 
ATOM     17  H6  UNL     1      38.270   2.499  38.322  1.00  0.00     0.186 HD
ENDROOT
BRANCH   1  18
HETATM   18  N1  UNL     1      35.722   2.428  38.425  1.00  0.00    -0.234 N 
ATOM     19  H12 UNL     1      35.080   1.649  38.282  1.00  0.00     0.174 HD
ATOM     20  H11 UNL     1      35.737   3.212  37.772  1.00  0.00     0.174 HD
ENDBRANCH   1  18
TORSDOF 1
ENDMDL
MODEL 4
REMARK VINA RESULT: -7.360541072      0.867      3.661
REMARK  1 active torsions:
REMARK  status: ('A' for Active; 'I' for Inactive)
REMARK    1  A    between atoms: N1_1  and  C1_4 
ROOT
HETATM    1  C1  UNL     1      36.567   3.088  43.169  1.00  0.00     0.680 A 
HETATM    2  N2  UNL     1      36.144   2.636  41.974  1.00  0.00    -0.155 N 
ATOM      3  H2  UNL     1      35.143   2.529  41.816  1.00  0.00     0.187 HD
HETATM    4  C2  UNL     1      36.995   2.318  40.980  1.00  0.00     0.279 A 
HETATM    5  O1  UNL     1      36.616   1.894  39.862  1.00  0.00    -0.266 OA
HETATM    6  C3  UNL     1      38.341   2.463  41.194  1.00  0.00     0.147 A 
HETATM    7  C4  UNL     1      39.248   2.145  40.195  1.00  0.00     0.280 A 
HETATM    8  O2  UNL     1      38.836   1.723  39.082  1.00  0.00    -0.266 OA
HETATM    9  N3  UNL     1      40.556   2.311  40.473  1.00  0.00    -0.251 N 
ATOM     10  H3  UNL     1      41.252   2.089  39.762  1.00  0.00     0.192 HD
HETATM   11  N4  UNL     1      40.957   2.764  41.669  1.00  0.00    -0.238 N 
ATOM     12  H4  UNL     1      41.955   2.879  41.848  1.00  0.00     0.208 HD
HETATM   13  N5  UNL     1      40.089   3.065  42.622  1.00  0.00    -0.269 N 
ATOM     14  H5  UNL     1      40.435   3.406  43.519  1.00  0.00     0.190 HD
HETATM   15  C5  UNL     1      38.750   2.932  42.438  1.00  0.00     0.158 A 
HETATM   16  N6  UNL     1      37.881   3.242  43.413  1.00  0.00    -0.174 N 
ATOM     17  H6  UNL     1      38.209   3.585  44.316  1.00  0.00     0.186 HD
ENDROOT
BRANCH   1  18
HETATM   18  N1  UNL     1      35.678   3.375  44.084  1.00  0.00    -0.234 N 
ATOM     19  H12 UNL     1      35.162   4.255  44.054  1.00  0.00     0.174 HD
ATOM     20  H11 UNL     1      35.508   2.702  44.832  1.00  0.00     0.174 HD
ENDBRANCH   1  18
TORSDOF 1
ENDMDL
MODEL 5
REMARK VINA RESULT: -6.831331012      2.010      3.442
REMARK  1 active torsions:
REMARK  status: ('A' for Active; 'I' for Inactive)
REMARK    1  A    between atoms: N1_1  and  C1_4 
ROOT
HETATM    1  C1  UNL     1      36.479   2.423  39.313  1.00  0.00     0.680 A 
HETATM    2  N2  UNL     1      37.777   2.261  39.000  1.00  0.00    -0.155 N 
ATOM      3  H2  UNL     1      38.026   2.039  38.037  1.00  0.00     0.187 HD
HETATM    4  C2  UNL     1      38.760   2.381  39.912  1.00  0.00     0.279 A 
HETATM    5  O1  UNL     1      39.975   2.232  39.636  1.00  0.00    -0.266 OA
HETATM    6  C3  UNL     1      38.424   2.680  41.207  1.00  0.00     0.147 A 
HETATM    7  C4  UNL     1      39.408   2.812  42.175  1.00  0.00     0.280 A 
HETATM    8  O2  UNL     1      40.619   2.658  41.866  1.00  0.00    -0.266 OA
HETATM    9  N3  UNL     1      39.006   3.107  43.427  1.00  0.00    -0.251 N 
ATOM     10  H3  UNL     1      39.702   3.212  44.164  1.00  0.00     0.192 HD
HETATM   11  N4  UNL     1      37.708   3.265  43.718  1.00  0.00    -0.238 N 
ATOM     12  H4  UNL     1      37.436   3.488  44.676  1.00  0.00     0.208 HD
HETATM   13  N5  UNL     1      36.771   3.138  42.792  1.00  0.00    -0.269 N 
ATOM     14  H5  UNL     1      35.793   3.265  43.055  1.00  0.00     0.190 HD
HETATM   15  C5  UNL     1      37.075   2.842  41.502  1.00  0.00     0.158 A 
HETATM   16  N6  UNL     1      36.113   2.717  40.573  1.00  0.00    -0.174 N 
ATOM     17  H6  UNL     1      35.131   2.841  40.818  1.00  0.00     0.186 HD
ENDROOT
BRANCH   1  18
HETATM   18  N1  UNL     1      35.583   2.289  38.370  1.00  0.00    -0.234 N 
ATOM     19  H12 UNL     1      35.804   2.523  37.402  1.00  0.00     0.174 HD
ATOM     20  H11 UNL     1      34.655   1.945  38.619  1.00  0.00     0.174 HD
ENDBRANCH   1  18
TORSDOF 1
ENDMDL
