MODEL 1
REMARK VINA RESULT: -6.053575439      0.000      0.000
REMARK  1 active torsions:
REMARK  status: ('A' for Active; 'I' for Inactive)
REMARK    1  A    between atoms: N1_1  and  C1_4 
REMARK       I    between atoms: N4_13  and  C4_14 
ROOT
HETATM    1  C1  UNL     1      38.891   2.884  42.733  1.00  0.00     0.704 A 
HETATM    2  N2  UNL     1      40.232   3.001  42.516  1.00  0.00    -0.150 N 
ATOM      3  H2  UNL     1      40.826   3.387  43.249  1.00  0.00     0.188 HD
HETATM    4  C2  UNL     1      40.785   2.615  41.351  1.00  0.00     0.329 A 
HETATM    5  O1  UNL     1      42.027   2.711  41.121  1.00  0.00    -0.261 OA
HETATM    6  C3  UNL     1      39.925   2.102  40.400  1.00  0.00     0.329 A 
HETATM    7  O2  UNL     1      40.378   1.719  39.279  1.00  0.00    -0.261 OA
HETATM    8  N3  UNL     1      38.599   1.994  40.631  1.00  0.00    -0.237 N 
ATOM      9  H3  UNL     1      37.992   1.610  39.907  1.00  0.00     0.191 HD
HETATM   10  N4  UNL     1      38.077   2.379  41.782  1.00  0.00    -0.031 N 
HETATM   11  C4  UNL     1      36.686   2.275  42.048  1.00  0.00     0.368 C 
HETATM   12  N5  UNL     1      36.067   2.658  43.235  1.00  0.00    -0.037 NA
HETATM   13  O3  UNL     1      35.950   1.793  41.129  1.00  0.00    -0.248 OA
ENDROOT
BRANCH   1  14
HETATM   14  N1  UNL     1      38.354   3.250  43.842  1.00  0.00    -0.233 N 
ATOM     15  H12 UNL     1      38.386   2.591  44.621  1.00  0.00     0.174 HD
ATOM     16  H11 UNL     1      37.909   4.162  43.946  1.00  0.00     0.174 HD
ENDBRANCH   1  14
TORSDOF 1
ENDMDL
MODEL 2
REMARK VINA RESULT: -6.021676992      1.175      3.926
REMARK  1 active torsions:
REMARK  status: ('A' for Active; 'I' for Inactive)
REMARK    1  A    between atoms: N1_1  and  C1_4 
REMARK       I    between atoms: N4_13  and  C4_14 
ROOT
HETATM    1  C1  UNL     1      38.960   2.958  42.522  1.00  0.00     0.704 A 
HETATM    2  N2  UNL     1      37.857   3.139  43.301  1.00  0.00    -0.150 N 
ATOM      3  H2  UNL     1      37.954   3.595  44.208  1.00  0.00     0.188 HD
HETATM    4  C2  UNL     1      36.642   2.726  42.896  1.00  0.00     0.329 A 
HETATM    5  O1  UNL     1      35.599   2.881  43.598  1.00  0.00    -0.261 OA
HETATM    6  C3  UNL     1      36.579   2.115  41.658  1.00  0.00     0.329 A 
HETATM    7  O2  UNL     1      35.466   1.701  41.214  1.00  0.00    -0.261 OA
HETATM    8  N3  UNL     1      37.682   1.943  40.898  1.00  0.00    -0.237 N 
ATOM      9  H3  UNL     1      37.600   1.487  39.990  1.00  0.00     0.191 HD
HETATM   10  N4  UNL     1      38.865   2.356  41.317  1.00  0.00    -0.031 N 
HETATM   11  C4  UNL     1      40.039   2.187  40.535  1.00  0.00     0.368 C 
HETATM   12  N5  UNL     1      41.315   2.596  40.909  1.00  0.00    -0.037 NA
HETATM   13  O3  UNL     1      39.911   1.616  39.405  1.00  0.00    -0.248 OA
ENDROOT
BRANCH   1  14
HETATM   14  N1  UNL     1      40.125   3.349  42.900  1.00  0.00    -0.233 N 
ATOM     15  H12 UNL     1      40.822   2.630  43.098  1.00  0.00     0.174 HD
ATOM     16  H11 UNL     1      40.350   4.338  43.002  1.00  0.00     0.174 HD
ENDBRANCH   1  14
TORSDOF 1
ENDMDL
MODEL 3
REMARK VINA RESULT: -5.558206746      2.008      4.362
REMARK  1 active torsions:
REMARK  status: ('A' for Active; 'I' for Inactive)
REMARK    1  A    between atoms: N1_1  and  C1_4 
REMARK       I    between atoms: N4_13  and  C4_14 
ROOT
HETATM    1  C1  UNL     1      39.245   2.152  40.431  1.00  0.00     0.704 A 
HETATM    2  N2  UNL     1      38.014   2.560  40.010  1.00  0.00    -0.150 N 
ATOM      3  H2  UNL     1      37.870   2.782  39.025  1.00  0.00     0.188 HD
HETATM    4  C2  UNL     1      36.987   2.675  40.871  1.00  0.00     0.329 A 
HETATM    5  O1  UNL     1      35.833   3.051  40.510  1.00  0.00    -0.261 OA
HETATM    6  C3  UNL     1      37.248   2.360  42.190  1.00  0.00     0.329 A 
HETATM    7  O2  UNL     1      36.326   2.446  43.056  1.00  0.00    -0.261 OA
HETATM    8  N3  UNL     1      38.474   1.958  42.591  1.00  0.00    -0.237 N 
ATOM      9  H3  UNL     1      38.633   1.734  43.573  1.00  0.00     0.191 HD
HETATM   10  N4  UNL     1      39.469   1.852  41.729  1.00  0.00    -0.031 N 
HETATM   11  C4  UNL     1      40.766   1.431  42.126  1.00  0.00     0.368 C 
HETATM   12  N5  UNL     1      41.859   1.295  41.275  1.00  0.00    -0.037 NA
HETATM   13  O3  UNL     1      40.939   1.156  43.356  1.00  0.00    -0.248 OA
ENDROOT
BRANCH   1  14
HETATM   14  N1  UNL     1      40.233   2.039  39.616  1.00  0.00    -0.233 N 
ATOM     15  H12 UNL     1      40.088   1.480  38.775  1.00  0.00     0.174 HD
ATOM     16  H11 UNL     1      41.130   2.487  39.798  1.00  0.00     0.174 HD
ENDBRANCH   1  14
TORSDOF 1
ENDMDL
MODEL 4
REMARK VINA RESULT: -5.470484025      1.656      2.405
REMARK  1 active torsions:
REMARK  status: ('A' for Active; 'I' for Inactive)
REMARK    1  A    between atoms: N1_1  and  C1_4 
REMARK       I    between atoms: N4_13  and  C4_14 
ROOT
HETATM    1  C1  UNL     1      38.873   2.365  40.476  1.00  0.00     0.704 A 
HETATM    2  N2  UNL     1      40.172   2.102  40.161  1.00  0.00    -0.150 N 
ATOM      3  H2  UNL     1      40.501   2.269  39.210  1.00  0.00     0.188 HD
HETATM    4  C2  UNL     1      41.029   1.624  41.082  1.00  0.00     0.329 A 
HETATM    5  O1  UNL     1      42.242   1.370  40.819  1.00  0.00    -0.261 OA
HETATM    6  C3  UNL     1      40.521   1.419  42.350  1.00  0.00     0.329 A 
HETATM    7  O2  UNL     1      41.273   0.970  43.268  1.00  0.00    -0.261 OA
HETATM    8  N3  UNL     1      39.231   1.685  42.646  1.00  0.00    -0.237 N 
ATOM      9  H3  UNL     1      38.888   1.521  43.592  1.00  0.00     0.191 HD
HETATM   10  N4  UNL     1      38.407   2.153  41.726  1.00  0.00    -0.031 N 
HETATM   11  C4  UNL     1      37.045   2.440  42.012  1.00  0.00     0.368 C 
HETATM   12  N5  UNL     1      36.122   2.935  41.097  1.00  0.00    -0.037 NA
HETATM   13  O3  UNL     1      36.642   2.229  43.200  1.00  0.00    -0.248 OA
ENDROOT
BRANCH   1  14
HETATM   14  N1  UNL     1      38.047   2.822  39.603  1.00  0.00    -0.233 N 
ATOM     15  H12 UNL     1      37.118   3.090  39.929  1.00  0.00     0.174 HD
ATOM     16  H11 UNL     1      38.303   2.914  38.621  1.00  0.00     0.174 HD
ENDBRANCH   1  14
TORSDOF 1
ENDMDL
MODEL 5
REMARK VINA RESULT: -5.283046284      1.536      3.824
REMARK  1 active torsions:
REMARK  status: ('A' for Active; 'I' for Inactive)
REMARK    1  A    between atoms: N1_1  and  C1_4 
REMARK       I    between atoms: N4_13  and  C4_14 
ROOT
HETATM    1  C1  UNL     1      38.472   2.618  41.944  1.00  0.00     0.704 A 
HETATM    2  N2  UNL     1      37.137   2.846  41.797  1.00  0.00    -0.150 N 
ATOM      3  H2  UNL     1      36.582   3.115  42.610  1.00  0.00     0.188 HD
HETATM    4  C2  UNL     1      36.537   2.722  40.599  1.00  0.00     0.329 A 
HETATM    5  O1  UNL     1      35.298   2.928  40.432  1.00  0.00    -0.261 OA
HETATM    6  C3  UNL     1      37.344   2.354  39.540  1.00  0.00     0.329 A 
HETATM    7  O2  UNL     1      36.844   2.219  38.383  1.00  0.00    -0.261 OA
HETATM    8  N3  UNL     1      38.665   2.131  39.703  1.00  0.00    -0.237 N 
ATOM      9  H3  UNL     1      39.232   1.860  38.900  1.00  0.00     0.191 HD
HETATM   10  N4  UNL     1      39.234   2.258  40.889  1.00  0.00    -0.031 N 
HETATM   11  C4  UNL     1      40.622   2.029  41.085  1.00  0.00     0.368 C 
HETATM   12  N5  UNL     1      41.288   2.145  42.301  1.00  0.00    -0.037 NA
HETATM   13  O3  UNL     1      41.308   1.693  40.068  1.00  0.00    -0.248 OA
ENDROOT
BRANCH   1  14
HETATM   14  N1  UNL     1      39.055   2.733  43.085  1.00  0.00    -0.233 N 
ATOM     15  H12 UNL     1      38.466   2.914  43.898  1.00  0.00     0.174 HD
ATOM     16  H11 UNL     1      40.067   2.649  43.180  1.00  0.00     0.174 HD
ENDBRANCH   1  14
TORSDOF 1
ENDMDL
