MODEL 1
REMARK VINA RESULT: -6.435428392      0.000      0.000
REMARK  17 active torsions:
REMARK  status: ('A' for Active; 'I' for Inactive)
REMARK    1  A    between atoms: C2_5  and  C3_6 
REMARK    2  A    between atoms: C2_5  and  N6_14 
REMARK    3  A    between atoms: C3_6  and  C4_7 
REMARK    4  A    between atoms: C4_7  and  C5_8 
REMARK    5  A    between atoms: C5_8  and  N3_9 
REMARK    6  A    between atoms: N6_14  and  C7_16 
REMARK    7  A    between atoms: C7_16  and  C8_17 
REMARK    8  A    between atoms: C8_17  and  C9_18 
REMARK    9  A    between atoms: C9_18  and  N7_19 
REMARK   10  A    between atoms: N7_19  and  C10_21 
REMARK   11  A    between atoms: C10_21  and  C11_22 
REMARK   12  A    between atoms: C11_22  and  N8_23 
REMARK   13  A    between atoms: N8_23  and  C12_26 
REMARK   14  A    between atoms: C12_26  and  C13_27 
REMARK   15  A    between atoms: C13_27  and  O1_28 
REMARK   16  A    between atoms: O1_28  and  C14_29 
REMARK   17  A    between atoms: C14_29  and  C15_30 
ROOT
HETATM    1  N1  UNL     1      -7.255  63.012  40.608  1.00  0.00    -0.172 NA
HETATM    2  C1  UNL     1      -6.566  62.093  40.351  1.00  0.00     0.183 C 
HETATM    3  N2  UNL     1      -5.763  60.980  40.034  1.00  0.00    -0.283 N 
ATOM      4  H2  UNL     1      -5.164  60.573  40.753  1.00  0.00     0.179 HD
HETATM    5  C2  UNL     1      -5.771  60.487  38.900  1.00  0.00     0.089 C 
ENDROOT
BRANCH   5   6
HETATM    6  C3  UNL     1      -6.616  61.011  37.771  1.00  0.00     0.082 C 
BRANCH   6   7
HETATM    7  C4  UNL     1      -5.979  60.659  36.433  1.00  0.00     0.052 C 
BRANCH   7   8
HETATM    8  C5  UNL     1      -6.753  61.265  35.277  1.00  0.00     0.063 C 
BRANCH   8   9
HETATM    9  N3  UNL     1      -6.789  62.639  35.205  1.00  0.00    -0.347 N 
HETATM   10  C6  UNL     1      -6.124  63.649  35.040  1.00  0.00     0.200 C 
HETATM   11  N4  UNL     1      -4.711  63.687  34.805  1.00  0.00    -0.067 NA
HETATM   12  N5  UNL     1      -6.794  64.939  35.128  1.00  0.00    -0.067 NA
ATOM     13  H3  UNL     1      -7.757  62.928  35.347  1.00  0.00     0.167 HD
ENDBRANCH   8   9
ENDBRANCH   7   8
ENDBRANCH   6   7
ENDBRANCH   5   6
BRANCH   5  14
HETATM   14  N6  UNL     1      -4.979  59.322  38.584  1.00  0.00    -0.359 N 
ATOM     15  H6  UNL     1      -4.035  59.486  38.235  1.00  0.00     0.166 HD
BRANCH  14  16
HETATM   16  C7  UNL     1      -5.386  57.988  38.714  1.00  0.00     0.064 C 
BRANCH  16  17
HETATM   17  C8  UNL     1      -5.159  56.957  37.714  1.00  0.00     0.063 C 
BRANCH  17  18
HETATM   18  C9  UNL     1      -5.177  55.509  38.232  1.00  0.00     0.119 C 
BRANCH  18  19
HETATM   19  N7  UNL     1      -5.098  54.633  37.099  1.00  0.00    -0.419 N 
ATOM     20  H7  UNL     1      -4.479  54.884  36.328  1.00  0.00     0.153 HD
BRANCH  19  21
HETATM   21  C10 UNL     1      -5.830  53.458  37.009  1.00  0.00     0.141 C 
BRANCH  21  22
HETATM   22  C11 UNL     1      -5.868  52.676  38.342  1.00  0.00     0.251 C 
BRANCH  22  23
HETATM   23  N8  UNL     1      -4.605  51.905  38.379  1.00  0.00    -0.072 N 
ATOM     24  H82 UNL     1      -4.701  51.000  37.920  1.00  0.00     0.277 HD
ATOM     25  H81 UNL     1      -3.895  52.312  37.769  1.00  0.00     0.277 HD
BRANCH  23  26
HETATM   26  C12 UNL     1      -4.132  51.770  39.726  1.00  0.00     0.258 C 
BRANCH  26  27
HETATM   27  C13 UNL     1      -3.107  52.876  39.977  1.00  0.00     0.195 C 
BRANCH  27  28
HETATM   28  O1  UNL     1      -2.116  53.105  39.288  1.00  0.00    -0.385 OA
BRANCH  28  29
HETATM   29  C14 UNL     1      -1.195  53.170  38.457  1.00  0.00     0.206 C 
BRANCH  29  30
HETATM   30  C15 UNL     1      -1.544  53.799  37.133  1.00  0.00    -0.035 A 
HETATM   31  C16 UNL     1      -1.432  55.187  37.114  1.00  0.00     0.009 A 
HETATM   32  C17 UNL     1      -1.655  55.848  35.936  1.00  0.00     0.001 A 
HETATM   33  C18 UNL     1      -1.982  55.140  34.809  1.00  0.00     0.000 A 
HETATM   34  C19 UNL     1      -2.091  53.773  34.849  1.00  0.00     0.001 A 
HETATM   35  C20 UNL     1      -1.874  53.063  36.029  1.00  0.00     0.009 A 
ENDBRANCH  29  30
ENDBRANCH  28  29
ENDBRANCH  27  28
ENDBRANCH  26  27
ENDBRANCH  23  26
ENDBRANCH  22  23
ENDBRANCH  21  22
ENDBRANCH  19  21
ENDBRANCH  18  19
ENDBRANCH  17  18
ENDBRANCH  16  17
ENDBRANCH  14  16
ENDBRANCH   5  14
TORSDOF 17
ENDMDL
MODEL 2
REMARK VINA RESULT: -6.226131390      1.645      2.785
REMARK  17 active torsions:
REMARK  status: ('A' for Active; 'I' for Inactive)
REMARK    1  A    between atoms: C2_5  and  C3_6 
REMARK    2  A    between atoms: C2_5  and  N6_14 
REMARK    3  A    between atoms: C3_6  and  C4_7 
REMARK    4  A    between atoms: C4_7  and  C5_8 
REMARK    5  A    between atoms: C5_8  and  N3_9 
REMARK    6  A    between atoms: N6_14  and  C7_16 
REMARK    7  A    between atoms: C7_16  and  C8_17 
REMARK    8  A    between atoms: C8_17  and  C9_18 
REMARK    9  A    between atoms: C9_18  and  N7_19 
REMARK   10  A    between atoms: N7_19  and  C10_21 
REMARK   11  A    between atoms: C10_21  and  C11_22 
REMARK   12  A    between atoms: C11_22  and  N8_23 
REMARK   13  A    between atoms: N8_23  and  C12_26 
REMARK   14  A    between atoms: C12_26  and  C13_27 
REMARK   15  A    between atoms: C13_27  and  O1_28 
REMARK   16  A    between atoms: O1_28  and  C14_29 
REMARK   17  A    between atoms: C14_29  and  C15_30 
ROOT
HETATM    1  N1  UNL     1      -7.124  62.772  40.608  1.00  0.00    -0.172 NA
HETATM    2  C1  UNL     1      -6.512  61.829  40.260  1.00  0.00     0.183 C 
HETATM    3  N2  UNL     1      -5.803  60.691  39.827  1.00  0.00    -0.283 N 
ATOM      4  H2  UNL     1      -5.372  60.077  40.518  1.00  0.00     0.179 HD
HETATM    5  C2  UNL     1      -5.694  60.424  38.625  1.00  0.00     0.089 C 
ENDROOT
BRANCH   5   6
HETATM    6  C3  UNL     1      -6.291  61.264  37.528  1.00  0.00     0.082 C 
BRANCH   6   7
HETATM    7  C4  UNL     1      -5.926  60.685  36.168  1.00  0.00     0.052 C 
BRANCH   7   8
HETATM    8  C5  UNL     1      -6.695  61.368  35.053  1.00  0.00     0.063 C 
BRANCH   8   9
HETATM    9  N3  UNL     1      -6.750  62.743  35.087  1.00  0.00    -0.347 N 
HETATM   10  C6  UNL     1      -7.367  63.728  34.715  1.00  0.00     0.200 C 
HETATM   11  N4  UNL     1      -8.550  63.713  33.906  1.00  0.00    -0.067 NA
HETATM   12  N5  UNL     1      -6.853  65.042  35.074  1.00  0.00    -0.067 NA
ATOM     13  H3  UNL     1      -5.961  63.067  35.645  1.00  0.00     0.167 HD
ENDBRANCH   8   9
ENDBRANCH   7   8
ENDBRANCH   6   7
ENDBRANCH   5   6
BRANCH   5  14
HETATM   14  N6  UNL     1      -5.001  59.238  38.181  1.00  0.00    -0.359 N 
ATOM     15  H6  UNL     1      -4.164  59.375  37.616  1.00  0.00     0.166 HD
BRANCH  14  16
HETATM   16  C7  UNL     1      -5.372  57.916  38.455  1.00  0.00     0.064 C 
BRANCH  16  17
HETATM   17  C8  UNL     1      -4.956  56.763  37.670  1.00  0.00     0.063 C 
BRANCH  17  18
HETATM   18  C9  UNL     1      -4.746  55.460  38.459  1.00  0.00     0.119 C 
BRANCH  18  19
HETATM   19  N7  UNL     1      -5.080  54.364  37.596  1.00  0.00    -0.419 N 
ATOM     20  H7  UNL     1      -4.404  54.072  36.890  1.00  0.00     0.153 HD
BRANCH  19  21
HETATM   21  C10 UNL     1      -6.287  53.684  37.682  1.00  0.00     0.141 C 
BRANCH  21  22
HETATM   22  C11 UNL     1      -6.599  52.861  36.411  1.00  0.00     0.251 C 
BRANCH  22  23
HETATM   23  N8  UNL     1      -5.485  53.145  35.479  1.00  0.00    -0.072 N 
ATOM     24  H82 UNL     1      -4.776  53.740  35.907  1.00  0.00     0.277 HD
ATOM     25  H81 UNL     1      -4.912  52.318  35.312  1.00  0.00     0.277 HD
BRANCH  23  26
HETATM   26  C12 UNL     1      -5.979  53.704  34.254  1.00  0.00     0.258 C 
BRANCH  26  27
HETATM   27  C13 UNL     1      -4.959  54.731  33.762  1.00  0.00     0.195 C 
BRANCH  27  28
HETATM   28  O1  UNL     1      -3.737  54.605  33.806  1.00  0.00    -0.385 OA
BRANCH  28  29
HETATM   29  C14 UNL     1      -2.509  54.663  33.982  1.00  0.00     0.206 C 
BRANCH  29  30
HETATM   30  C15 UNL     1      -2.026  54.354  35.375  1.00  0.00    -0.035 A 
HETATM   31  C16 UNL     1      -1.910  52.994  35.650  1.00  0.00     0.009 A 
HETATM   32  C17 UNL     1      -1.409  52.609  36.863  1.00  0.00     0.001 A 
HETATM   33  C18 UNL     1      -1.033  53.558  37.778  1.00  0.00     0.000 A 
HETATM   34  C19 UNL     1      -1.158  54.893  37.490  1.00  0.00     0.001 A 
HETATM   35  C20 UNL     1      -1.666  55.326  36.266  1.00  0.00     0.009 A 
ENDBRANCH  29  30
ENDBRANCH  28  29
ENDBRANCH  27  28
ENDBRANCH  26  27
ENDBRANCH  23  26
ENDBRANCH  22  23
ENDBRANCH  21  22
ENDBRANCH  19  21
ENDBRANCH  18  19
ENDBRANCH  17  18
ENDBRANCH  16  17
ENDBRANCH  14  16
ENDBRANCH   5  14
TORSDOF 17
ENDMDL
MODEL 3
REMARK VINA RESULT: -6.180719722      2.721      4.145
REMARK  17 active torsions:
REMARK  status: ('A' for Active; 'I' for Inactive)
REMARK    1  A    between atoms: C2_5  and  C3_6 
REMARK    2  A    between atoms: C2_5  and  N6_14 
REMARK    3  A    between atoms: C3_6  and  C4_7 
REMARK    4  A    between atoms: C4_7  and  C5_8 
REMARK    5  A    between atoms: C5_8  and  N3_9 
REMARK    6  A    between atoms: N6_14  and  C7_16 
REMARK    7  A    between atoms: C7_16  and  C8_17 
REMARK    8  A    between atoms: C8_17  and  C9_18 
REMARK    9  A    between atoms: C9_18  and  N7_19 
REMARK   10  A    between atoms: N7_19  and  C10_21 
REMARK   11  A    between atoms: C10_21  and  C11_22 
REMARK   12  A    between atoms: C11_22  and  N8_23 
REMARK   13  A    between atoms: N8_23  and  C12_26 
REMARK   14  A    between atoms: C12_26  and  C13_27 
REMARK   15  A    between atoms: C13_27  and  O1_28 
REMARK   16  A    between atoms: O1_28  and  C14_29 
REMARK   17  A    between atoms: C14_29  and  C15_30 
ROOT
HETATM    1  N1  UNL     1      -7.289  63.037  40.650  1.00  0.00    -0.172 NA
HETATM    2  C1  UNL     1      -6.559  62.152  40.386  1.00  0.00     0.183 C 
HETATM    3  N2  UNL     1      -5.707  61.078  40.065  1.00  0.00    -0.283 N 
ATOM      4  H2  UNL     1      -5.001  60.778  40.738  1.00  0.00     0.179 HD
HETATM    5  C2  UNL     1      -5.799  60.491  38.980  1.00  0.00     0.089 C 
ENDROOT
BRANCH   5   6
HETATM    6  C3  UNL     1      -6.802  60.854  37.919  1.00  0.00     0.082 C 
BRANCH   6   7
HETATM    7  C4  UNL     1      -6.113  61.581  36.773  1.00  0.00     0.052 C 
BRANCH   7   8
HETATM    8  C5  UNL     1      -6.708  61.190  35.434  1.00  0.00     0.063 C 
BRANCH   8   9
HETATM    9  N3  UNL     1      -7.623  62.059  34.882  1.00  0.00    -0.347 N 
HETATM   10  C6  UNL     1      -8.565  62.163  34.113  1.00  0.00     0.200 C 
HETATM   11  N4  UNL     1      -9.144  61.094  33.356  1.00  0.00    -0.067 NA
HETATM   12  N5  UNL     1      -9.137  63.485  33.897  1.00  0.00    -0.067 NA
ATOM     13  H3  UNL     1      -7.440  62.983  35.272  1.00  0.00     0.167 HD
ENDBRANCH   8   9
ENDBRANCH   7   8
ENDBRANCH   6   7
ENDBRANCH   5   6
BRANCH   5  14
HETATM   14  N6  UNL     1      -4.953  59.364  38.665  1.00  0.00    -0.359 N 
ATOM     15  H6  UNL     1      -4.003  59.381  39.035  1.00  0.00     0.166 HD
BRANCH  14  16
HETATM   16  C7  UNL     1      -5.316  58.250  37.898  1.00  0.00     0.064 C 
BRANCH  16  17
HETATM   17  C8  UNL     1      -4.646  57.838  36.674  1.00  0.00     0.063 C 
BRANCH  17  18
HETATM   18  C9  UNL     1      -3.775  58.909  35.996  1.00  0.00     0.119 C 
BRANCH  18  19
HETATM   19  N7  UNL     1      -2.498  58.323  35.710  1.00  0.00    -0.419 N 
ATOM     20  H7  UNL     1      -1.937  57.967  36.484  1.00  0.00     0.153 HD
BRANCH  19  21
HETATM   21  C10 UNL     1      -1.994  58.221  34.421  1.00  0.00     0.141 C 
BRANCH  21  22
HETATM   22  C11 UNL     1      -3.026  58.627  33.344  1.00  0.00     0.251 C 
BRANCH  22  23
HETATM   23  N8  UNL     1      -3.379  57.370  32.647  1.00  0.00    -0.072 N 
ATOM     24  H82 UNL     1      -3.315  57.469  31.634  1.00  0.00     0.277 HD
ATOM     25  H81 UNL     1      -2.664  56.653  32.776  1.00  0.00     0.277 HD
BRANCH  23  26
HETATM   26  C12 UNL     1      -4.673  56.909  33.055  1.00  0.00     0.258 C 
BRANCH  26  27
HETATM   27  C13 UNL     1      -4.490  55.577  33.782  1.00  0.00     0.195 C 
BRANCH  27  28
HETATM   28  O1  UNL     1      -3.438  54.947  33.870  1.00  0.00    -0.385 OA
BRANCH  28  29
HETATM   29  C14 UNL     1      -2.285  54.511  34.018  1.00  0.00     0.206 C 
BRANCH  29  30
HETATM   30  C15 UNL     1      -1.919  54.076  35.413  1.00  0.00    -0.035 A 
HETATM   31  C16 UNL     1      -1.886  52.695  35.589  1.00  0.00     0.009 A 
HETATM   32  C17 UNL     1      -1.491  52.196  36.801  1.00  0.00     0.001 A 
HETATM   33  C18 UNL     1      -1.139  53.055  37.810  1.00  0.00     0.000 A 
HETATM   34  C19 UNL     1      -1.181  54.413  37.618  1.00  0.00     0.001 A 
HETATM   35  C20 UNL     1      -1.579  54.960  36.399  1.00  0.00     0.009 A 
ENDBRANCH  29  30
ENDBRANCH  28  29
ENDBRANCH  27  28
ENDBRANCH  26  27
ENDBRANCH  23  26
ENDBRANCH  22  23
ENDBRANCH  21  22
ENDBRANCH  19  21
ENDBRANCH  18  19
ENDBRANCH  17  18
ENDBRANCH  16  17
ENDBRANCH  14  16
ENDBRANCH   5  14
TORSDOF 17
ENDMDL
MODEL 4
REMARK VINA RESULT: -6.145484146      4.016      7.219
REMARK  17 active torsions:
REMARK  status: ('A' for Active; 'I' for Inactive)
REMARK    1  A    between atoms: C2_5  and  C3_6 
REMARK    2  A    between atoms: C2_5  and  N6_14 
REMARK    3  A    between atoms: C3_6  and  C4_7 
REMARK    4  A    between atoms: C4_7  and  C5_8 
REMARK    5  A    between atoms: C5_8  and  N3_9 
REMARK    6  A    between atoms: N6_14  and  C7_16 
REMARK    7  A    between atoms: C7_16  and  C8_17 
REMARK    8  A    between atoms: C8_17  and  C9_18 
REMARK    9  A    between atoms: C9_18  and  N7_19 
REMARK   10  A    between atoms: N7_19  and  C10_21 
REMARK   11  A    between atoms: C10_21  and  C11_22 
REMARK   12  A    between atoms: C11_22  and  N8_23 
REMARK   13  A    between atoms: N8_23  and  C12_26 
REMARK   14  A    between atoms: C12_26  and  C13_27 
REMARK   15  A    between atoms: C13_27  and  O1_28 
REMARK   16  A    between atoms: O1_28  and  C14_29 
REMARK   17  A    between atoms: C14_29  and  C15_30 
ROOT
HETATM    1  N1  UNL     1      -6.820  62.487  40.952  1.00  0.00    -0.172 NA
HETATM    2  C1  UNL     1      -6.773  62.179  39.817  1.00  0.00     0.183 C 
HETATM    3  N2  UNL     1      -6.690  61.806  38.461  1.00  0.00    -0.283 N 
ATOM      4  H2  UNL     1      -7.062  62.431  37.745  1.00  0.00     0.179 HD
HETATM    5  C2  UNL     1      -6.174  60.734  38.123  1.00  0.00     0.089 C 
ENDROOT
BRANCH   5   6
HETATM    6  C3  UNL     1      -5.597  59.743  39.097  1.00  0.00     0.082 C 
BRANCH   6   7
HETATM    7  C4  UNL     1      -5.708  58.332  38.537  1.00  0.00     0.052 C 
BRANCH   7   8
HETATM    8  C5  UNL     1      -6.135  57.345  39.606  1.00  0.00     0.063 C 
BRANCH   8   9
HETATM    9  N3  UNL     1      -7.297  56.644  39.376  1.00  0.00    -0.347 N 
HETATM   10  C6  UNL     1      -7.772  55.542  39.147  1.00  0.00     0.200 C 
HETATM   11  N4  UNL     1      -7.027  54.325  39.022  1.00  0.00    -0.067 NA
HETATM   12  N5  UNL     1      -9.209  55.439  38.937  1.00  0.00    -0.067 NA
ATOM     13  H3  UNL     1      -8.069  57.309  39.410  1.00  0.00     0.167 HD
ENDBRANCH   8   9
ENDBRANCH   7   8
ENDBRANCH   6   7
ENDBRANCH   5   6
BRANCH   5  14
HETATM   14  N6  UNL     1      -6.052  60.368  36.731  1.00  0.00    -0.359 N 
ATOM     15  H6  UNL     1      -6.055  59.372  36.513  1.00  0.00     0.166 HD
BRANCH  14  16
HETATM   16  C7  UNL     1      -5.929  61.254  35.654  1.00  0.00     0.064 C 
BRANCH  16  17
HETATM   17  C8  UNL     1      -6.827  61.289  34.510  1.00  0.00     0.063 C 
BRANCH  17  18
HETATM   18  C9  UNL     1      -8.310  61.534  34.832  1.00  0.00     0.119 C 
BRANCH  18  19
HETATM   19  N7  UNL     1      -9.093  60.957  33.778  1.00  0.00    -0.419 N 
ATOM     20  H7  UNL     1     -10.077  61.211  33.702  1.00  0.00     0.153 HD
BRANCH  19  21
HETATM   21  C10 UNL     1      -8.563  60.065  32.855  1.00  0.00     0.141 C 
BRANCH  21  22
HETATM   22  C11 UNL     1      -9.613  59.571  31.834  1.00  0.00     0.251 C 
BRANCH  22  23
HETATM   23  N8  UNL     1     -10.583  58.779  32.624  1.00  0.00    -0.072 N 
ATOM     24  H82 UNL     1     -10.305  58.708  33.603  1.00  0.00     0.277 HD
ATOM     25  H81 UNL     1     -11.464  59.278  32.750  1.00  0.00     0.277 HD
BRANCH  23  26
HETATM   26  C12 UNL     1     -10.784  57.488  32.034  1.00  0.00     0.258 C 
BRANCH  26  27
HETATM   27  C13 UNL     1      -9.660  56.571  32.516  1.00  0.00     0.195 C 
BRANCH  27  28
HETATM   28  O1  UNL     1      -8.616  56.339  31.911  1.00  0.00    -0.385 OA
BRANCH  28  29
HETATM   29  C14 UNL     1      -7.460  56.213  31.472  1.00  0.00     0.206 C 
BRANCH  29  30
HETATM   30  C15 UNL     1      -6.364  56.170  32.504  1.00  0.00    -0.035 A 
HETATM   31  C16 UNL     1      -6.055  54.889  32.955  1.00  0.00     0.009 A 
HETATM   32  C17 UNL     1      -5.021  54.735  33.839  1.00  0.00     0.001 A 
HETATM   33  C18 UNL     1      -4.316  55.832  34.260  1.00  0.00     0.000 A 
HETATM   34  C19 UNL     1      -4.638  57.086  33.808  1.00  0.00     0.001 A 
HETATM   35  C20 UNL     1      -5.684  57.285  32.909  1.00  0.00     0.009 A 
ENDBRANCH  29  30
ENDBRANCH  28  29
ENDBRANCH  27  28
ENDBRANCH  26  27
ENDBRANCH  23  26
ENDBRANCH  22  23
ENDBRANCH  21  22
ENDBRANCH  19  21
ENDBRANCH  18  19
ENDBRANCH  17  18
ENDBRANCH  16  17
ENDBRANCH  14  16
ENDBRANCH   5  14
TORSDOF 17
ENDMDL
MODEL 5
REMARK VINA RESULT: -6.116384145      1.686      2.529
REMARK  17 active torsions:
REMARK  status: ('A' for Active; 'I' for Inactive)
REMARK    1  A    between atoms: C2_5  and  C3_6 
REMARK    2  A    between atoms: C2_5  and  N6_14 
REMARK    3  A    between atoms: C3_6  and  C4_7 
REMARK    4  A    between atoms: C4_7  and  C5_8 
REMARK    5  A    between atoms: C5_8  and  N3_9 
REMARK    6  A    between atoms: N6_14  and  C7_16 
REMARK    7  A    between atoms: C7_16  and  C8_17 
REMARK    8  A    between atoms: C8_17  and  C9_18 
REMARK    9  A    between atoms: C9_18  and  N7_19 
REMARK   10  A    between atoms: N7_19  and  C10_21 
REMARK   11  A    between atoms: C10_21  and  C11_22 
REMARK   12  A    between atoms: C11_22  and  N8_23 
REMARK   13  A    between atoms: N8_23  and  C12_26 
REMARK   14  A    between atoms: C12_26  and  C13_27 
REMARK   15  A    between atoms: C13_27  and  O1_28 
REMARK   16  A    between atoms: O1_28  and  C14_29 
REMARK   17  A    between atoms: C14_29  and  C15_30 
ROOT
HETATM    1  N1  UNL     1      -7.285  63.002  40.672  1.00  0.00    -0.172 NA
HETATM    2  C1  UNL     1      -6.541  62.143  40.362  1.00  0.00     0.183 C 
HETATM    3  N2  UNL     1      -5.674  61.100  39.986  1.00  0.00    -0.283 N 
ATOM      4  H2  UNL     1      -4.957  60.782  40.640  1.00  0.00     0.179 HD
HETATM    5  C2  UNL     1      -5.765  60.561  38.876  1.00  0.00     0.089 C 
ENDROOT
BRANCH   5   6
HETATM    6  C3  UNL     1      -6.783  60.954  37.841  1.00  0.00     0.082 C 
BRANCH   6   7
HETATM    7  C4  UNL     1      -6.099  61.639  36.666  1.00  0.00     0.052 C 
BRANCH   7   8
HETATM    8  C5  UNL     1      -6.688  61.187  35.344  1.00  0.00     0.063 C 
BRANCH   8   9
HETATM    9  N3  UNL     1      -7.583  62.039  34.738  1.00  0.00    -0.347 N 
HETATM   10  C6  UNL     1      -8.566  62.110  34.017  1.00  0.00     0.200 C 
HETATM   11  N4  UNL     1      -9.255  60.995  33.438  1.00  0.00    -0.067 NA
HETATM   12  N5  UNL     1      -9.072  63.430  33.665  1.00  0.00    -0.067 NA
ATOM     13  H3  UNL     1      -7.321  62.991  34.994  1.00  0.00     0.167 HD
ENDBRANCH   8   9
ENDBRANCH   7   8
ENDBRANCH   6   7
ENDBRANCH   5   6
BRANCH   5  14
HETATM   14  N6  UNL     1      -4.902  59.465  38.503  1.00  0.00    -0.359 N 
ATOM     15  H6  UNL     1      -3.897  59.622  38.574  1.00  0.00     0.166 HD
BRANCH  14  16
HETATM   16  C7  UNL     1      -5.317  58.206  38.053  1.00  0.00     0.064 C 
BRANCH  16  17
HETATM   17  C8  UNL     1      -4.684  57.468  36.971  1.00  0.00     0.063 C 
BRANCH  17  18
HETATM   18  C9  UNL     1      -4.738  55.935  37.087  1.00  0.00     0.119 C 
BRANCH  18  19
HETATM   19  N7  UNL     1      -4.689  55.596  38.480  1.00  0.00    -0.419 N 
ATOM     20  H7  UNL     1      -4.756  56.345  39.169  1.00  0.00     0.153 HD
BRANCH  19  21
HETATM   21  C10 UNL     1      -4.554  54.289  38.928  1.00  0.00     0.141 C 
BRANCH  21  22
HETATM   22  C11 UNL     1      -3.255  54.069  39.737  1.00  0.00     0.251 C 
BRANCH  22  23
HETATM   23  N8  UNL     1      -2.175  54.648  38.907  1.00  0.00    -0.072 N 
ATOM     24  H82 UNL     1      -2.523  54.973  38.005  1.00  0.00     0.277 HD
ATOM     25  H81 UNL     1      -1.852  55.542  39.278  1.00  0.00     0.277 HD
BRANCH  23  26
HETATM   26  C12 UNL     1      -1.097  53.716  38.755  1.00  0.00     0.258 C 
BRANCH  26  27
HETATM   27  C13 UNL     1      -1.226  53.068  37.376  1.00  0.00     0.195 C 
BRANCH  27  28
HETATM   28  O1  UNL     1      -1.550  53.646  36.341  1.00  0.00    -0.385 OA
BRANCH  28  29
HETATM   29  C14 UNL     1      -1.962  54.028  35.233  1.00  0.00     0.206 C 
BRANCH  29  30
HETATM   30  C15 UNL     1      -1.889  55.511  34.977  1.00  0.00    -0.035 A 
HETATM   31  C16 UNL     1      -1.118  56.212  35.901  1.00  0.00     0.009 A 
HETATM   32  C17 UNL     1      -0.927  57.554  35.714  1.00  0.00     0.001 A 
HETATM   33  C18 UNL     1      -1.492  58.178  34.632  1.00  0.00     0.000 A 
HETATM   34  C19 UNL     1      -2.251  57.471  33.735  1.00  0.00     0.001 A 
HETATM   35  C20 UNL     1      -2.471  56.104  33.891  1.00  0.00     0.009 A 
ENDBRANCH  29  30
ENDBRANCH  28  29
ENDBRANCH  27  28
ENDBRANCH  26  27
ENDBRANCH  23  26
ENDBRANCH  22  23
ENDBRANCH  21  22
ENDBRANCH  19  21
ENDBRANCH  18  19
ENDBRANCH  17  18
ENDBRANCH  16  17
ENDBRANCH  14  16
ENDBRANCH   5  14
TORSDOF 17
ENDMDL
