MODEL 1
REMARK VINA RESULT: -6.123422060      0.000      0.000
REMARK  5 active torsions:
REMARK  status: ('A' for Active; 'I' for Inactive)
REMARK    1  A    between atoms: N1_4  and  C4_5 
REMARK    2  A    between atoms: C4_5  and  C5_6 
REMARK    3  A    between atoms: C5_6  and  C6_7 
REMARK    4  A    between atoms: C6_7  and  C7_8 
REMARK    5  A    between atoms: C7_8  and  N2_9 
ROOT
HETATM    1  C5  UNL     1      38.143  69.982  37.256  1.00  0.00     0.022 C 
ENDROOT
BRANCH   1   2
HETATM    2  C4  UNL     1      37.201  71.056  37.699  1.00  0.00     0.128 C 
BRANCH   2   3
HETATM    3  N1  UNL     1      36.454  71.563  36.566  1.00  0.00    -0.366 N 
HETATM    4  C3  UNL     1      37.042  71.883  35.403  1.00  0.00     0.090 A 
HETATM    5  C2  UNL     1      36.347  72.364  34.322  1.00  0.00     0.017 A 
HETATM    6  C1  UNL     1      34.985  72.523  34.438  1.00  0.00     0.003 A 
HETATM    7  C12 UNL     1      34.380  72.191  35.637  1.00  0.00     0.017 A 
HETATM    8  C11 UNL     1      35.132  71.715  36.683  1.00  0.00     0.090 A 
ENDBRANCH   2   3
ENDBRANCH   1   2
BRANCH   1   9
HETATM    9  C6  UNL     1      39.567  70.333  37.626  1.00  0.00     0.023 C 
BRANCH   9  10
HETATM   10  C7  UNL     1      40.539  69.977  36.547  1.00  0.00     0.148 C 
BRANCH  10  11
HETATM   11  N2  UNL     1      40.561  71.100  35.605  1.00  0.00    -0.304 N 
HETATM   12  C8  UNL     1      40.655  72.412  35.925  1.00  0.00     0.111 A 
HETATM   13  C9  UNL     1      40.644  73.173  34.777  1.00  0.00     0.037 A 
HETATM   14  C10 UNL     1      40.540  72.272  33.739  1.00  0.00     0.108 A 
HETATM   15  N3  UNL     1      40.493  71.042  34.286  1.00  0.00    -0.310 N 
ATOM     16  H3  UNL     1      40.416  70.177  33.751  1.00  0.00     0.186 HD
ENDBRANCH  10  11
ENDBRANCH   9  10
ENDBRANCH   1   9
TORSDOF 5
ENDMDL
MODEL 2
REMARK VINA RESULT: -6.101561899      1.814      4.024
REMARK  5 active torsions:
REMARK  status: ('A' for Active; 'I' for Inactive)
REMARK    1  A    between atoms: N1_4  and  C4_5 
REMARK    2  A    between atoms: C4_5  and  C5_6 
REMARK    3  A    between atoms: C5_6  and  C6_7 
REMARK    4  A    between atoms: C6_7  and  C7_8 
REMARK    5  A    between atoms: C7_8  and  N2_9 
ROOT
HETATM    1  C5  UNL     1      38.245  70.025  35.751  1.00  0.00     0.022 C 
ENDROOT
BRANCH   1   2
HETATM    2  C4  UNL     1      39.081  71.247  35.533  1.00  0.00     0.128 C 
BRANCH   2   3
HETATM    3  N1  UNL     1      38.303  72.268  34.861  1.00  0.00    -0.366 N 
HETATM    4  C3  UNL     1      38.409  73.570  35.168  1.00  0.00     0.090 A 
HETATM    5  C2  UNL     1      37.678  74.547  34.539  1.00  0.00     0.017 A 
HETATM    6  C1  UNL     1      36.799  74.172  33.551  1.00  0.00     0.003 A 
HETATM    7  C12 UNL     1      36.691  72.829  33.234  1.00  0.00     0.017 A 
HETATM    8  C11 UNL     1      37.451  71.899  33.901  1.00  0.00     0.090 A 
ENDBRANCH   2   3
ENDBRANCH   1   2
BRANCH   1   9
HETATM    9  C6  UNL     1      37.961  69.828  37.224  1.00  0.00     0.023 C 
BRANCH   9  10
HETATM   10  C7  UNL     1      36.504  69.624  37.499  1.00  0.00     0.148 C 
BRANCH  10  11
HETATM   11  N2  UNL     1      35.826  70.877  37.155  1.00  0.00    -0.304 N 
HETATM   12  C8  UNL     1      36.046  72.089  37.718  1.00  0.00     0.111 A 
HETATM   13  C9  UNL     1      35.222  73.028  37.139  1.00  0.00     0.037 A 
HETATM   14  C10 UNL     1      34.487  72.342  36.196  1.00  0.00     0.108 A 
HETATM   15  N3  UNL     1      34.885  71.056  36.244  1.00  0.00    -0.310 N 
ATOM     16  H3  UNL     1      34.508  70.315  35.652  1.00  0.00     0.186 HD
ENDBRANCH  10  11
ENDBRANCH   9  10
ENDBRANCH   1   9
TORSDOF 5
ENDMDL
MODEL 3
REMARK VINA RESULT: -6.015701948      1.586      3.667
REMARK  5 active torsions:
REMARK  status: ('A' for Active; 'I' for Inactive)
REMARK    1  A    between atoms: N1_4  and  C4_5 
REMARK    2  A    between atoms: C4_5  and  C5_6 
REMARK    3  A    between atoms: C5_6  and  C6_7 
REMARK    4  A    between atoms: C6_7  and  C7_8 
REMARK    5  A    between atoms: C7_8  and  N2_9 
ROOT
HETATM    1  C5  UNL     1      34.763  72.109  34.624  1.00  0.00     0.022 C 
ENDROOT
BRANCH   1   2
HETATM    2  C4  UNL     1      34.596  72.395  36.082  1.00  0.00     0.128 C 
BRANCH   2   3
HETATM    3  N1  UNL     1      35.686  71.808  36.833  1.00  0.00    -0.366 N 
HETATM    4  C3  UNL     1      35.951  70.493  36.807  1.00  0.00     0.090 A 
HETATM    5  C2  UNL     1      36.981  69.924  37.514  1.00  0.00     0.017 A 
HETATM    6  C1  UNL     1      37.776  70.741  38.282  1.00  0.00     0.003 A 
HETATM    7  C12 UNL     1      37.504  72.097  38.308  1.00  0.00     0.017 A 
HETATM    8  C11 UNL     1      36.457  72.606  37.578  1.00  0.00     0.090 A 
ENDBRANCH   2   3
ENDBRANCH   1   2
BRANCH   1   9
HETATM    9  C6  UNL     1      35.638  73.154  33.969  1.00  0.00     0.023 C 
BRANCH   9  10
HETATM   10  C7  UNL     1      36.665  72.551  33.064  1.00  0.00     0.148 C 
BRANCH  10  11
HETATM   11  N2  UNL     1      37.828  72.225  33.895  1.00  0.00    -0.304 N 
HETATM   12  C8  UNL     1      38.583  73.104  34.596  1.00  0.00     0.111 A 
HETATM   13  C9  UNL     1      39.587  72.431  35.255  1.00  0.00     0.037 A 
HETATM   14  C10 UNL     1      39.416  71.103  34.929  1.00  0.00     0.108 A 
HETATM   15  N3  UNL     1      38.349  71.030  34.112  1.00  0.00    -0.310 N 
ATOM     16  H3  UNL     1      37.989  70.164  33.711  1.00  0.00     0.186 HD
ENDBRANCH  10  11
ENDBRANCH   9  10
ENDBRANCH   1   9
TORSDOF 5
ENDMDL
MODEL 4
REMARK VINA RESULT: -6.007587302      1.480      2.786
REMARK  5 active torsions:
REMARK  status: ('A' for Active; 'I' for Inactive)
REMARK    1  A    between atoms: N1_4  and  C4_5 
REMARK    2  A    between atoms: C4_5  and  C5_6 
REMARK    3  A    between atoms: C5_6  and  C6_7 
REMARK    4  A    between atoms: C6_7  and  C7_8 
REMARK    5  A    between atoms: C7_8  and  N2_9 
ROOT
HETATM    1  C5  UNL     1      40.154  70.564  37.073  1.00  0.00     0.022 C 
ENDROOT
BRANCH   1   2
HETATM    2  C4  UNL     1      39.395  71.185  38.203  1.00  0.00     0.128 C 
BRANCH   2   3
HETATM    3  N1  UNL     1      37.973  71.133  37.934  1.00  0.00    -0.366 N 
HETATM    4  C3  UNL     1      37.168  72.193  38.111  1.00  0.00     0.090 A 
HETATM    5  C2  UNL     1      35.819  72.157  37.861  1.00  0.00     0.017 A 
HETATM    6  C1  UNL     1      35.270  70.981  37.407  1.00  0.00     0.003 A 
HETATM    7  C12 UNL     1      36.099  69.889  37.224  1.00  0.00     0.017 A 
HETATM    8  C11 UNL     1      37.443  69.989  37.493  1.00  0.00     0.090 A 
ENDBRANCH   2   3
ENDBRANCH   1   2
BRANCH   1   9
HETATM    9  C6  UNL     1      40.775  71.629  36.197  1.00  0.00     0.023 C 
BRANCH   9  10
HETATM   10  C7  UNL     1      40.436  71.445  34.751  1.00  0.00     0.148 C 
BRANCH  10  11
HETATM   11  N2  UNL     1      39.071  71.944  34.566  1.00  0.00    -0.304 N 
HETATM   12  C8  UNL     1      38.635  73.200  34.820  1.00  0.00     0.111 A 
HETATM   13  C9  UNL     1      37.293  73.296  34.527  1.00  0.00     0.037 A 
HETATM   14  C10 UNL     1      36.924  72.044  34.083  1.00  0.00     0.108 A 
HETATM   15  N3  UNL     1      38.023  71.269  34.125  1.00  0.00    -0.310 N 
ATOM     16  H3  UNL     1      38.046  70.287  33.850  1.00  0.00     0.186 HD
ENDBRANCH  10  11
ENDBRANCH   9  10
ENDBRANCH   1   9
TORSDOF 5
ENDMDL
MODEL 5
REMARK VINA RESULT: -6.006182501      1.493      3.050
REMARK  5 active torsions:
REMARK  status: ('A' for Active; 'I' for Inactive)
REMARK    1  A    between atoms: N1_4  and  C4_5 
REMARK    2  A    between atoms: C4_5  and  C5_6 
REMARK    3  A    between atoms: C5_6  and  C6_7 
REMARK    4  A    between atoms: C6_7  and  C7_8 
REMARK    5  A    between atoms: C7_8  and  N2_9 
ROOT
HETATM    1  C5  UNL     1      39.147  74.139  34.592  1.00  0.00     0.022 C 
ENDROOT
BRANCH   1   2
HETATM    2  C4  UNL     1      38.257  74.328  35.780  1.00  0.00     0.128 C 
BRANCH   2   3
HETATM    3  N1  UNL     1      37.042  73.558  35.619  1.00  0.00    -0.366 N 
HETATM    4  C3  UNL     1      36.381  73.029  36.661  1.00  0.00     0.090 A 
HETATM    5  C2  UNL     1      35.229  72.297  36.522  1.00  0.00     0.017 A 
HETATM    6  C1  UNL     1      34.730  72.098  35.256  1.00  0.00     0.003 A 
HETATM    7  C12 UNL     1      35.410  72.644  34.182  1.00  0.00     0.017 A 
HETATM    8  C11 UNL     1      36.559  73.367  34.387  1.00  0.00     0.090 A 
ENDBRANCH   2   3
ENDBRANCH   1   2
BRANCH   1   9
HETATM    9  C6  UNL     1      40.397  73.379  34.976  1.00  0.00     0.023 C 
BRANCH   9  10
HETATM   10  C7  UNL     1      40.488  72.052  34.290  1.00  0.00     0.148 C 
BRANCH  10  11
HETATM   11  N2  UNL     1      39.549  71.155  34.970  1.00  0.00    -0.304 N 
HETATM   12  C8  UNL     1      39.554  70.839  36.287  1.00  0.00     0.111 A 
HETATM   13  C9  UNL     1      38.523  69.969  36.559  1.00  0.00     0.037 A 
HETATM   14  C10 UNL     1      37.885  69.764  35.355  1.00  0.00     0.108 A 
HETATM   15  N3  UNL     1      38.537  70.496  34.433  1.00  0.00    -0.310 N 
ATOM     16  H3  UNL     1      38.283  70.537  33.446  1.00  0.00     0.186 HD
ENDBRANCH  10  11
ENDBRANCH   9  10
ENDBRANCH   1   9
TORSDOF 5
ENDMDL
