MODEL 1
REMARK VINA RESULT: -5.403019511      0.000      0.000
REMARK  4 active torsions:
REMARK  status: ('A' for Active; 'I' for Inactive)
REMARK    1  A    between atoms: C2_2  and  C3_3 
REMARK    2  A    between atoms: C3_3  and  C4_4 
REMARK    3  A    between atoms: C4_4  and  N1_5 
REMARK    4  A    between atoms: C4_4  and  N2_9 
ROOT
HETATM    1  N2  UNL     1     -15.137   3.743  23.083  1.00  0.00    -0.363 N 
HETATM    2  C5  UNL     1     -14.184   3.016  22.351  1.00  0.00     0.087 C 
HETATM    3  C6  UNL     1     -14.729   2.780  20.944  1.00  0.00     0.276 C 
HETATM    4  N3  UNL     1     -15.986   2.071  21.069  1.00  0.00    -0.069 N 
ATOM      5  H31 UNL     1     -15.836   1.122  21.411  1.00  0.00     0.277 HD
ATOM      6  H32 UNL     1     -16.376   1.858  20.151  1.00  0.00     0.277 HD
HETATM    7  C7  UNL     1     -16.938   2.758  21.877  1.00  0.00     0.252 C 
HETATM    8  C8  UNL     1     -16.359   4.042  22.489  1.00  0.00     0.151 C 
ENDROOT
BRANCH   1   9
HETATM    9  C4  UNL     1     -14.648   4.584  24.114  1.00  0.00     0.286 C 
BRANCH   9  10
HETATM   10  C3  UNL     1     -13.370   4.180  24.736  1.00  0.00     0.080 C 
BRANCH  10  11
HETATM   11  C2  UNL     1     -13.648   3.646  26.099  1.00  0.00    -0.033 C 
HETATM   12  C1  UNL     1     -13.111   2.525  26.552  1.00  0.00     0.007 C 
ENDBRANCH  10  11
ENDBRANCH   9  10
BRANCH   9  13
HETATM   13  N1  UNL     1     -15.647   4.726  25.158  1.00  0.00    -0.058 N 
ATOM     14  H13 UNL     1     -16.598   4.604  24.808  1.00  0.00     0.276 HD
ATOM     15  H12 UNL     1     -15.639   3.947  25.816  1.00  0.00     0.276 HD
ATOM     16  H11 UNL     1     -15.514   5.627  25.618  1.00  0.00     0.276 HD
ENDBRANCH   9  13
ENDBRANCH   1   9
TORSDOF 4
ENDMDL
MODEL 2
REMARK VINA RESULT: -5.282501409      0.897      1.409
REMARK  4 active torsions:
REMARK  status: ('A' for Active; 'I' for Inactive)
REMARK    1  A    between atoms: C2_2  and  C3_3 
REMARK    2  A    between atoms: C3_3  and  C4_4 
REMARK    3  A    between atoms: C4_4  and  N1_5 
REMARK    4  A    between atoms: C4_4  and  N2_9 
ROOT
HETATM    1  N2  UNL     1     -15.087   3.652  23.041  1.00  0.00    -0.363 N 
HETATM    2  C5  UNL     1     -14.212   2.868  22.271  1.00  0.00     0.087 C 
HETATM    3  C6  UNL     1     -14.812   2.696  20.878  1.00  0.00     0.276 C 
HETATM    4  N3  UNL     1     -16.115   2.081  21.029  1.00  0.00    -0.069 N 
ATOM      5  H31 UNL     1     -16.027   1.118  21.354  1.00  0.00     0.277 HD
ATOM      6  H32 UNL     1     -16.545   1.912  20.120  1.00  0.00     0.277 HD
HETATM    7  C7  UNL     1     -16.990   2.824  21.874  1.00  0.00     0.252 C 
HETATM    8  C8  UNL     1     -16.300   4.051  22.486  1.00  0.00     0.151 C 
ENDROOT
BRANCH   1   9
HETATM    9  C4  UNL     1     -14.508   4.438  24.069  1.00  0.00     0.286 C 
BRANCH   9  10
HETATM   10  C3  UNL     1     -13.241   3.936  24.640  1.00  0.00     0.080 C 
BRANCH  10  11
HETATM   11  C2  UNL     1     -12.195   4.985  24.480  1.00  0.00    -0.033 C 
HETATM   12  C1  UNL     1     -10.935   4.702  24.192  1.00  0.00     0.007 C 
ENDBRANCH  10  11
ENDBRANCH   9  10
BRANCH   9  13
HETATM   13  N1  UNL     1     -15.461   4.629  25.148  1.00  0.00    -0.058 N 
ATOM     14  H13 UNL     1     -16.289   4.042  25.046  1.00  0.00     0.276 HD
ATOM     15  H12 UNL     1     -15.128   4.250  26.035  1.00  0.00     0.276 HD
ATOM     16  H11 UNL     1     -15.691   5.621  25.209  1.00  0.00     0.276 HD
ENDBRANCH   9  13
ENDBRANCH   1   9
TORSDOF 4
ENDMDL
MODEL 3
REMARK VINA RESULT: -5.230415425      1.338      2.089
REMARK  4 active torsions:
REMARK  status: ('A' for Active; 'I' for Inactive)
REMARK    1  A    between atoms: C2_2  and  C3_3 
REMARK    2  A    between atoms: C3_3  and  C4_4 
REMARK    3  A    between atoms: C4_4  and  N1_5 
REMARK    4  A    between atoms: C4_4  and  N2_9 
ROOT
HETATM    1  N2  UNL     1     -15.243   3.909  23.059  1.00  0.00    -0.363 N 
HETATM    2  C5  UNL     1     -14.195   3.126  22.545  1.00  0.00     0.087 C 
HETATM    3  C6  UNL     1     -14.558   2.701  21.125  1.00  0.00     0.276 C 
HETATM    4  N3  UNL     1     -15.811   1.976  21.185  1.00  0.00    -0.069 N 
ATOM      5  H31 UNL     1     -15.690   1.081  21.660  1.00  0.00     0.277 HD
ATOM      6  H32 UNL     1     -16.081   1.639  20.261  1.00  0.00     0.277 HD
HETATM    7  C7  UNL     1     -16.866   2.728  21.778  1.00  0.00     0.252 C 
HETATM    8  C8  UNL     1     -16.386   4.095  22.288  1.00  0.00     0.151 C 
ENDROOT
BRANCH   1   9
HETATM    9  C4  UNL     1     -14.897   4.886  24.026  1.00  0.00     0.286 C 
BRANCH   9  10
HETATM   10  C3  UNL     1     -13.454   5.126  24.226  1.00  0.00     0.080 C 
BRANCH  10  11
HETATM   11  C2  UNL     1     -13.114   6.475  23.690  1.00  0.00    -0.033 C 
HETATM   12  C1  UNL     1     -13.772   7.570  24.036  1.00  0.00     0.007 C 
ENDBRANCH  10  11
ENDBRANCH   9  10
BRANCH   9  13
HETATM   13  N1  UNL     1     -15.495   4.552  25.307  1.00  0.00    -0.058 N 
ATOM     14  H13 UNL     1     -14.805   4.489  26.056  1.00  0.00     0.276 HD
ATOM     15  H12 UNL     1     -16.049   5.317  25.692  1.00  0.00     0.276 HD
ATOM     16  H11 UNL     1     -16.035   3.693  25.202  1.00  0.00     0.276 HD
ENDBRANCH   9  13
ENDBRANCH   1   9
TORSDOF 4
ENDMDL
MODEL 4
REMARK VINA RESULT: -5.177616920      1.986      4.535
REMARK  4 active torsions:
REMARK  status: ('A' for Active; 'I' for Inactive)
REMARK    1  A    between atoms: C2_2  and  C3_3 
REMARK    2  A    between atoms: C3_3  and  C4_4 
REMARK    3  A    between atoms: C4_4  and  N1_5 
REMARK    4  A    between atoms: C4_4  and  N2_9 
ROOT
HETATM    1  N2  UNL     1     -13.595   4.072  24.354  1.00  0.00    -0.363 N 
HETATM    2  C5  UNL     1     -14.798   4.723  24.677  1.00  0.00     0.087 C 
HETATM    3  C6  UNL     1     -14.852   4.920  26.190  1.00  0.00     0.276 C 
HETATM    4  N3  UNL     1     -14.748   3.616  26.811  1.00  0.00    -0.069 N 
ATOM      5  H31 UNL     1     -15.583   3.059  26.629  1.00  0.00     0.277 HD
ATOM      6  H32 UNL     1     -14.815   3.690  27.826  1.00  0.00     0.277 HD
HETATM    7  C7  UNL     1     -13.572   2.907  26.430  1.00  0.00     0.252 C 
HETATM    8  C8  UNL     1     -12.749   3.670  25.383  1.00  0.00     0.151 C 
ENDROOT
BRANCH   1   9
HETATM    9  C4  UNL     1     -13.047   4.336  23.074  1.00  0.00     0.286 C 
BRANCH   9  10
HETATM   10  C3  UNL     1     -13.975   4.230  21.930  1.00  0.00     0.080 C 
BRANCH  10  11
HETATM   11  C2  UNL     1     -14.090   2.796  21.538  1.00  0.00    -0.033 C 
HETATM   12  C1  UNL     1     -15.140   2.312  20.893  1.00  0.00     0.007 C 
ENDBRANCH  10  11
ENDBRANCH   9  10
BRANCH   9  13
HETATM   13  N1  UNL     1     -11.908   3.468  22.830  1.00  0.00    -0.058 N 
ATOM     14  H13 UNL     1     -12.084   2.504  23.115  1.00  0.00     0.276 HD
ATOM     15  H12 UNL     1     -11.755   3.294  21.837  1.00  0.00     0.276 HD
ATOM     16  H11 UNL     1     -11.089   3.867  23.288  1.00  0.00     0.276 HD
ENDBRANCH   9  13
ENDBRANCH   1   9
TORSDOF 4
ENDMDL
MODEL 5
REMARK VINA RESULT: -5.165877640      0.293      1.465
REMARK  4 active torsions:
REMARK  status: ('A' for Active; 'I' for Inactive)
REMARK    1  A    between atoms: C2_2  and  C3_3 
REMARK    2  A    between atoms: C3_3  and  C4_4 
REMARK    3  A    between atoms: C4_4  and  N1_5 
REMARK    4  A    between atoms: C4_4  and  N2_9 
ROOT
HETATM    1  N2  UNL     1     -15.050   3.809  22.923  1.00  0.00    -0.363 N 
HETATM    2  C5  UNL     1     -16.396   3.970  22.552  1.00  0.00     0.087 C 
HETATM    3  C6  UNL     1     -16.901   2.652  21.971  1.00  0.00     0.276 C 
HETATM    4  N3  UNL     1     -16.056   2.312  20.844  1.00  0.00    -0.069 N 
ATOM      5  H31 UNL     1     -16.198   2.965  20.073  1.00  0.00     0.277 HD
ATOM      6  H32 UNL     1     -16.375   1.453  20.396  1.00  0.00     0.277 HD
HETATM    7  C7  UNL     1     -14.675   2.224  21.186  1.00  0.00     0.252 C 
HETATM    8  C8  UNL     1     -14.417   2.599  22.652  1.00  0.00     0.151 C 
ENDROOT
BRANCH   1   9
HETATM    9  C4  UNL     1     -14.580   4.608  23.995  1.00  0.00     0.286 C 
BRANCH   9  10
HETATM   10  C3  UNL     1     -13.322   4.171  24.634  1.00  0.00     0.080 C 
BRANCH  10  11
HETATM   11  C2  UNL     1     -13.624   3.703  26.017  1.00  0.00    -0.033 C 
HETATM   12  C1  UNL     1     -13.125   2.586  26.520  1.00  0.00     0.007 C 
ENDBRANCH  10  11
ENDBRANCH   9  10
BRANCH   9  13
HETATM   13  N1  UNL     1     -15.605   4.723  25.018  1.00  0.00    -0.058 N 
ATOM     14  H13 UNL     1     -15.551   3.976  25.711  1.00  0.00     0.276 HD
ATOM     15  H12 UNL     1     -15.442   5.510  25.647  1.00  0.00     0.276 HD
ATOM     16  H11 UNL     1     -16.517   4.769  24.563  1.00  0.00     0.276 HD
ENDBRANCH   9  13
ENDBRANCH   1   9
TORSDOF 4
ENDMDL
