MODEL 1
REMARK VINA RESULT: -5.843905160      0.000      0.000
REMARK  4 active torsions:
REMARK  status: ('A' for Active; 'I' for Inactive)
REMARK    1  A    between atoms: N1_1  and  N2_4 
REMARK    2  A    between atoms: C1_6  and  N3_7 
REMARK    3  A    between atoms: N3_7  and  O1_9 
REMARK    4  A    between atoms: O1_9  and  C2_10 
ROOT
HETATM    1  N3  UNL     1     -15.816   4.804  23.332  1.00  0.00    -0.261 N 
ATOM      2  H3  UNL     1     -16.445   5.307  23.959  1.00  0.00     0.195 HD
ENDROOT
BRANCH   1   3
HETATM    3  C1  UNL     1     -16.286   3.693  22.602  1.00  0.00     0.220 C 
HETATM    4  N2  UNL     1     -17.471   3.258  22.791  1.00  0.00    -0.301 N 
ATOM      5  H2  UNL     1     -18.083   3.710  23.471  1.00  0.00     0.187 HD
BRANCH   4   6
HETATM    6  N1  UNL     1     -17.922   2.160  22.063  1.00  0.00    -0.344 N 
ATOM      7  H12 UNL     1     -17.449   1.262  22.169  1.00  0.00     0.176 HD
ATOM      8  H11 UNL     1     -18.719   2.267  21.435  1.00  0.00     0.176 HD
ENDBRANCH   4   6
ENDBRANCH   1   3
BRANCH   1   9
HETATM    9  O1  UNL     1     -14.530   5.201  23.200  1.00  0.00    -0.274 OA
BRANCH   9  10
HETATM   10  C2  UNL     1     -13.642   4.134  23.198  1.00  0.00     0.152 C 
HETATM   11  C3  UNL     1     -12.693   4.333  22.047  1.00  0.00     0.034 C 
HETATM   12  C4  UNL     1     -11.800   5.531  22.205  1.00  0.00     0.002 C 
HETATM   13  C5  UNL     1     -11.543   5.817  23.691  1.00  0.00     0.000 C 
HETATM   14  C6  UNL     1     -11.500   4.439  24.344  1.00  0.00     0.002 C 
HETATM   15  C7  UNL     1     -12.954   4.050  24.533  1.00  0.00     0.034 C 
ENDBRANCH   9  10
ENDBRANCH   1   9
TORSDOF 4
ENDMDL
MODEL 2
REMARK VINA RESULT: -5.833228547      2.222      2.587
REMARK  4 active torsions:
REMARK  status: ('A' for Active; 'I' for Inactive)
REMARK    1  A    between atoms: N1_1  and  N2_4 
REMARK    2  A    between atoms: C1_6  and  N3_7 
REMARK    3  A    between atoms: N3_7  and  O1_9 
REMARK    4  A    between atoms: O1_9  and  C2_10 
ROOT
HETATM    1  N3  UNL     1     -15.102   4.360  22.278  1.00  0.00    -0.261 N 
ATOM      2  H3  UNL     1     -14.267   4.533  21.718  1.00  0.00     0.195 HD
ENDROOT
BRANCH   1   3
HETATM    3  C1  UNL     1     -16.005   3.345  21.905  1.00  0.00     0.220 C 
HETATM    4  N2  UNL     1     -17.008   3.075  22.649  1.00  0.00    -0.301 N 
ATOM      5  H2  UNL     1     -17.159   3.592  23.514  1.00  0.00     0.187 HD
BRANCH   4   6
HETATM    6  N1  UNL     1     -17.892   2.069  22.268  1.00  0.00    -0.344 N 
ATOM      7  H12 UNL     1     -17.963   1.813  21.283  1.00  0.00     0.176 HD
ATOM      8  H11 UNL     1     -18.456   1.601  22.978  1.00  0.00     0.176 HD
ENDBRANCH   4   6
ENDBRANCH   1   3
BRANCH   1   9
HETATM    9  O1  UNL     1     -15.345   5.107  23.379  1.00  0.00    -0.274 OA
BRANCH   9  10
HETATM   10  C2  UNL     1     -14.345   4.987  24.335  1.00  0.00     0.152 C 
HETATM   11  C3  UNL     1     -13.475   6.211  24.241  1.00  0.00     0.034 C 
HETATM   12  C4  UNL     1     -14.179   7.480  24.630  1.00  0.00     0.002 C 
HETATM   13  C5  UNL     1     -15.279   7.189  25.661  1.00  0.00     0.000 C 
HETATM   14  C6  UNL     1     -14.718   6.051  26.507  1.00  0.00     0.002 C 
HETATM   15  C7  UNL     1     -14.966   4.797  25.692  1.00  0.00     0.034 C 
ENDBRANCH   9  10
ENDBRANCH   1   9
TORSDOF 4
ENDMDL
MODEL 3
REMARK VINA RESULT: -5.801721931      1.015      1.824
REMARK  4 active torsions:
REMARK  status: ('A' for Active; 'I' for Inactive)
REMARK    1  A    between atoms: N1_1  and  N2_4 
REMARK    2  A    between atoms: C1_6  and  N3_7 
REMARK    3  A    between atoms: N3_7  and  O1_9 
REMARK    4  A    between atoms: O1_9  and  C2_10 
ROOT
HETATM    1  N3  UNL     1     -15.695   4.694  23.088  1.00  0.00    -0.261 N 
ATOM      2  H3  UNL     1     -16.236   5.258  23.744  1.00  0.00     0.195 HD
ENDROOT
BRANCH   1   3
HETATM    3  C1  UNL     1     -16.282   3.572  22.468  1.00  0.00     0.220 C 
HETATM    4  N2  UNL     1     -17.482   3.240  22.750  1.00  0.00    -0.301 N 
ATOM      5  H2  UNL     1     -18.021   3.783  23.424  1.00  0.00     0.187 HD
BRANCH   4   6
HETATM    6  N1  UNL     1     -18.050   2.129  22.130  1.00  0.00    -0.344 N 
ATOM      7  H12 UNL     1     -19.058   1.988  22.187  1.00  0.00     0.176 HD
ATOM      8  H11 UNL     1     -17.451   1.474  21.628  1.00  0.00     0.176 HD
ENDBRANCH   4   6
ENDBRANCH   1   3
BRANCH   1   9
HETATM    9  O1  UNL     1     -14.412   5.021  22.811  1.00  0.00    -0.274 OA
BRANCH   9  10
HETATM   10  C2  UNL     1     -13.854   5.850  23.775  1.00  0.00     0.152 C 
HETATM   11  C3  UNL     1     -13.707   5.045  25.038  1.00  0.00     0.034 C 
HETATM   12  C4  UNL     1     -12.713   3.923  24.923  1.00  0.00     0.002 C 
HETATM   13  C5  UNL     1     -11.621   4.277  23.904  1.00  0.00     0.000 C 
HETATM   14  C6  UNL     1     -11.424   5.781  24.060  1.00  0.00     0.002 C 
HETATM   15  C7  UNL     1     -12.553   6.408  23.266  1.00  0.00     0.034 C 
ENDBRANCH   9  10
ENDBRANCH   1   9
TORSDOF 4
ENDMDL
MODEL 4
REMARK VINA RESULT: -5.800408242      1.351      2.279
REMARK  4 active torsions:
REMARK  status: ('A' for Active; 'I' for Inactive)
REMARK    1  A    between atoms: N1_1  and  N2_4 
REMARK    2  A    between atoms: C1_6  and  N3_7 
REMARK    3  A    between atoms: N3_7  and  O1_9 
REMARK    4  A    between atoms: O1_9  and  C2_10 
ROOT
HETATM    1  N3  UNL     1     -15.174   4.352  22.221  1.00  0.00    -0.261 N 
ATOM      2  H3  UNL     1     -14.384   4.570  21.614  1.00  0.00     0.195 HD
ENDROOT
BRANCH   1   3
HETATM    3  C1  UNL     1     -16.072   3.323  21.870  1.00  0.00     0.220 C 
HETATM    4  N2  UNL     1     -17.058   3.046  22.631  1.00  0.00    -0.301 N 
ATOM      5  H2  UNL     1     -17.202   3.566  23.496  1.00  0.00     0.187 HD
BRANCH   4   6
HETATM    6  N1  UNL     1     -17.937   2.027  22.271  1.00  0.00    -0.344 N 
ATOM      7  H12 UNL     1     -17.800   1.541  21.385  1.00  0.00     0.176 HD
ATOM      8  H11 UNL     1     -18.703   1.780  22.898  1.00  0.00     0.176 HD
ENDBRANCH   4   6
ENDBRANCH   1   3
BRANCH   1   9
HETATM    9  O1  UNL     1     -15.365   5.050  23.364  1.00  0.00    -0.274 OA
BRANCH   9  10
HETATM   10  C2  UNL     1     -14.238   5.768  23.742  1.00  0.00     0.152 C 
HETATM   11  C3  UNL     1     -14.318   5.993  25.227  1.00  0.00     0.034 C 
HETATM   12  C4  UNL     1     -14.213   4.728  26.033  1.00  0.00     0.002 C 
HETATM   13  C5  UNL     1     -13.370   3.685  25.287  1.00  0.00     0.000 C 
HETATM   14  C6  UNL     1     -12.308   4.502  24.558  1.00  0.00     0.002 C 
HETATM   15  C7  UNL     1     -13.002   5.024  23.314  1.00  0.00     0.034 C 
ENDBRANCH   9  10
ENDBRANCH   1   9
TORSDOF 4
ENDMDL
MODEL 5
REMARK VINA RESULT: -5.654995405      1.070      1.647
REMARK  4 active torsions:
REMARK  status: ('A' for Active; 'I' for Inactive)
REMARK    1  A    between atoms: N1_1  and  N2_4 
REMARK    2  A    between atoms: C1_6  and  N3_7 
REMARK    3  A    between atoms: N3_7  and  O1_9 
REMARK    4  A    between atoms: O1_9  and  C2_10 
ROOT
HETATM    1  N3  UNL     1     -15.581   4.391  23.722  1.00  0.00    -0.261 N 
ATOM      2  H3  UNL     1     -15.997   5.085  24.343  1.00  0.00     0.195 HD
ENDROOT
BRANCH   1   3
HETATM    3  C1  UNL     1     -16.303   3.917  22.607  1.00  0.00     0.220 C 
HETATM    4  N2  UNL     1     -16.971   2.832  22.691  1.00  0.00    -0.301 N 
ATOM      5  H2  UNL     1     -16.985   2.303  23.562  1.00  0.00     0.187 HD
BRANCH   4   6
HETATM    6  N1  UNL     1     -17.680   2.377  21.582  1.00  0.00    -0.344 N 
ATOM      7  H12 UNL     1     -17.176   1.921  20.821  1.00  0.00     0.176 HD
ATOM      8  H11 UNL     1     -18.691   2.504  21.545  1.00  0.00     0.176 HD
ENDBRANCH   4   6
ENDBRANCH   1   3
BRANCH   1   9
HETATM    9  O1  UNL     1     -14.337   3.921  23.966  1.00  0.00    -0.274 OA
BRANCH   9  10
HETATM   10  C2  UNL     1     -13.538   4.849  24.622  1.00  0.00     0.152 C 
HETATM   11  C3  UNL     1     -12.127   4.328  24.605  1.00  0.00     0.034 C 
HETATM   12  C4  UNL     1     -11.527   4.262  23.228  1.00  0.00     0.002 C 
HETATM   13  C5  UNL     1     -12.139   5.341  22.324  1.00  0.00     0.000 C 
HETATM   14  C6  UNL     1     -12.390   6.523  23.254  1.00  0.00     0.002 C 
HETATM   15  C7  UNL     1     -13.688   6.194  23.965  1.00  0.00     0.034 C 
ENDBRANCH   9  10
ENDBRANCH   1   9
TORSDOF 4
ENDMDL
