MODEL 1
REMARK VINA RESULT: -7.303784926      0.000      0.000
REMARK  5 active torsions:
REMARK  status: ('A' for Active; 'I' for Inactive)
REMARK    1  A    between atoms: C2_2  and  N1_3 
REMARK       I    between atoms: N1_3  and  C4_5 
REMARK    2  A    between atoms: C4_5  and  C5_7 
REMARK    3  A    between atoms: C10_14  and  C11_15 
REMARK       I    between atoms: C11_15  and  N3_17 
REMARK    4  A    between atoms: N3_17  and  C12_19 
REMARK    5  A    between atoms: C13_22  and  N5_24 
ROOT
HETATM    1  C5  UNL     1      -6.027  22.165   3.816  1.00  0.00     0.346 C 
HETATM    2  C6  UNL     1      -4.628  22.642   3.979  1.00  0.00     0.180 C 
HETATM    3  O2  UNL     1      -4.781  23.996   3.637  1.00  0.00    -0.353 OA
HETATM    4  C7  UNL     1      -6.113  24.338   3.954  1.00  0.00     0.442 C 
HETATM    5  N2  UNL     1      -6.697  23.214   4.600  1.00  0.00     0.135 N 
HETATM    6  C8  UNL     1      -6.511  23.017   5.963  1.00  0.00     0.268 A 
HETATM    7  C9  UNL     1      -5.171  22.534   6.430  1.00  0.00     0.074 A 
HETATM    8  C10 UNL     1      -4.127  22.449   5.379  1.00  0.00     0.119 C 
HETATM    9  C13 UNL     1      -5.762  23.741   6.986  1.00  0.00     0.131 A 
HETATM   10  C14 UNL     1      -5.248  25.140   6.845  1.00  0.00     0.048 C 
ENDROOT
BRANCH   8  11
HETATM   11  C11 UNL     1      -2.908  23.245   5.662  1.00  0.00     0.230 C 
HETATM   12  O3  UNL     1      -2.308  23.093   6.748  1.00  0.00    -0.273 OA
HETATM   13  N3  UNL     1      -2.391  24.183   4.738  1.00  0.00    -0.306 N 
ATOM     14  H3  UNL     1      -2.881  24.306   3.852  1.00  0.00     0.170 HD
BRANCH  13  15
HETATM   15  C12 UNL     1      -1.237  24.957   4.971  1.00  0.00     0.187 C 
HETATM   16  N4  UNL     1       0.021  24.522   4.468  1.00  0.00    -0.070 NA
HETATM   17  S1  UNL     1      -1.389  26.341   5.821  1.00  0.00    -0.044 SA
ENDBRANCH  13  15
ENDBRANCH   8  11
BRANCH   1  18
HETATM   18  C4  UNL     1      -6.350  20.807   4.130  1.00  0.00     0.256 C 
HETATM   19  N1  UNL     1      -7.563  20.204   3.769  1.00  0.00    -0.355 N 
HETATM   20  C3  UNL     1      -8.564  20.865   2.966  1.00  0.00     0.152 C 
HETATM   21  O1  UNL     1      -5.507  20.102   4.762  1.00  0.00    -0.271 OA
BRANCH  19  22
HETATM   22  C2  UNL     1      -7.874  18.831   4.155  1.00  0.00     0.120 C 
HETATM   23  C1  UNL     1      -9.082  18.430   3.311  1.00  0.00     0.026 C 
ENDBRANCH  19  22
ENDBRANCH   1  18
BRANCH   9  24
HETATM   24  N5  UNL     1      -6.268  23.604   8.356  1.00  0.00    -0.143 N 
HETATM   25  O4  UNL     1      -7.419  23.190   8.477  1.00  0.00    -0.536 OA
HETATM   26  O5  UNL     1      -5.526  23.912   9.446  1.00  0.00    -0.536 OA
ENDBRANCH   9  24
TORSDOF 5
ENDMDL
MODEL 2
REMARK VINA RESULT: -6.882614549      1.128      1.357
REMARK  5 active torsions:
REMARK  status: ('A' for Active; 'I' for Inactive)
REMARK    1  A    between atoms: C2_2  and  N1_3 
REMARK       I    between atoms: N1_3  and  C4_5 
REMARK    2  A    between atoms: C4_5  and  C5_7 
REMARK    3  A    between atoms: C10_14  and  C11_15 
REMARK       I    between atoms: C11_15  and  N3_17 
REMARK    4  A    between atoms: N3_17  and  C12_19 
REMARK    5  A    between atoms: C13_22  and  N5_24 
ROOT
HETATM    1  C5  UNL     1      -5.330  23.000   4.033  1.00  0.00     0.346 C 
HETATM    2  C6  UNL     1      -4.066  23.732   4.306  1.00  0.00     0.180 C 
HETATM    3  O2  UNL     1      -4.492  25.056   4.108  1.00  0.00    -0.353 OA
HETATM    4  C7  UNL     1      -5.871  25.077   4.405  1.00  0.00     0.442 C 
HETATM    5  N2  UNL     1      -6.219  23.790   4.898  1.00  0.00     0.135 N 
HETATM    6  C8  UNL     1      -6.021  23.479   6.239  1.00  0.00     0.268 A 
HETATM    7  C9  UNL     1      -4.618  23.232   6.705  1.00  0.00     0.074 A 
HETATM    8  C10 UNL     1      -3.560  23.485   5.696  1.00  0.00     0.119 C 
HETATM    9  C13 UNL     1      -5.458  24.219   7.365  1.00  0.00     0.131 A 
HETATM   10  C14 UNL     1      -5.246  25.700   7.400  1.00  0.00     0.048 C 
ENDROOT
BRANCH   8  11
HETATM   11  C11 UNL     1      -2.540  24.476   6.115  1.00  0.00     0.230 C 
HETATM   12  O3  UNL     1      -2.068  24.428   7.271  1.00  0.00    -0.273 OA
HETATM   13  N3  UNL     1      -2.073  25.489   5.244  1.00  0.00    -0.306 N 
ATOM     14  H3  UNL     1      -2.458  25.527   4.301  1.00  0.00     0.170 HD
BRANCH  13  15
HETATM   15  C12 UNL     1      -1.106  26.448   5.606  1.00  0.00     0.187 C 
HETATM   16  N4  UNL     1       0.275  26.174   5.401  1.00  0.00    -0.070 NA
HETATM   17  S1  UNL     1      -1.613  27.855   6.257  1.00  0.00    -0.044 SA
ENDBRANCH  13  15
ENDBRANCH   8  11
BRANCH   1  18
HETATM   18  C4  UNL     1      -5.368  21.577   4.183  1.00  0.00     0.256 C 
HETATM   19  N1  UNL     1      -6.535  20.818   4.012  1.00  0.00    -0.355 N 
HETATM   20  C3  UNL     1      -7.789  21.387   3.578  1.00  0.00     0.152 C 
HETATM   21  O1  UNL     1      -4.302  20.958   4.481  1.00  0.00    -0.271 OA
BRANCH  19  22
HETATM   22  C2  UNL     1      -6.541  19.375   4.226  1.00  0.00     0.120 C 
HETATM   23  C1  UNL     1      -8.013  18.967   4.241  1.00  0.00     0.026 C 
ENDBRANCH  19  22
ENDBRANCH   1  18
BRANCH   9  24
HETATM   24  N5  UNL     1      -5.949  23.823   8.689  1.00  0.00    -0.143 N 
HETATM   25  O4  UNL     1      -5.113  23.761   9.589  1.00  0.00    -0.536 OA
HETATM   26  O5  UNL     1      -7.249  23.537   8.935  1.00  0.00    -0.536 OA
ENDBRANCH   9  24
TORSDOF 5
ENDMDL
MODEL 3
REMARK VINA RESULT: -6.763486051      3.734      6.167
REMARK  5 active torsions:
REMARK  status: ('A' for Active; 'I' for Inactive)
REMARK    1  A    between atoms: C2_2  and  N1_3 
REMARK       I    between atoms: N1_3  and  C4_5 
REMARK    2  A    between atoms: C4_5  and  C5_7 
REMARK    3  A    between atoms: C10_14  and  C11_15 
REMARK       I    between atoms: C11_15  and  N3_17 
REMARK    4  A    between atoms: N3_17  and  C12_19 
REMARK    5  A    between atoms: C13_22  and  N5_24 
ROOT
HETATM    1  C5  UNL     1      -5.037  23.354   3.628  1.00  0.00     0.346 C 
HETATM    2  C6  UNL     1      -5.415  23.227   2.196  1.00  0.00     0.180 C 
HETATM    3  O2  UNL     1      -4.148  23.295   1.593  1.00  0.00    -0.353 OA
HETATM    4  C7  UNL     1      -3.228  22.805   2.545  1.00  0.00     0.442 C 
HETATM    5  N2  UNL     1      -3.978  22.333   3.656  1.00  0.00     0.135 N 
HETATM    6  C8  UNL     1      -4.518  21.051   3.641  1.00  0.00     0.268 A 
HETATM    7  C9  UNL     1      -5.719  20.801   2.779  1.00  0.00     0.074 A 
HETATM    8  C10 UNL     1      -6.125  21.936   1.913  1.00  0.00     0.119 C 
HETATM    9  C13 UNL     1      -4.525  19.981   2.649  1.00  0.00     0.131 A 
HETATM   10  C14 UNL     1      -3.614  19.901   1.464  1.00  0.00     0.048 C 
ENDROOT
BRANCH   8  11
HETATM   11  C11 UNL     1      -6.170  21.616   0.466  1.00  0.00     0.230 C 
HETATM   12  O3  UNL     1      -7.036  20.826   0.033  1.00  0.00    -0.273 OA
HETATM   13  N3  UNL     1      -5.256  22.179  -0.457  1.00  0.00    -0.306 N 
ATOM     14  H3  UNL     1      -4.550  22.823  -0.103  1.00  0.00     0.170 HD
BRANCH  13  15
HETATM   15  C12 UNL     1      -5.267  21.898  -1.838  1.00  0.00     0.187 C 
HETATM   16  N4  UNL     1      -6.107  22.650  -2.706  1.00  0.00    -0.070 NA
HETATM   17  S1  UNL     1      -4.305  20.706  -2.396  1.00  0.00    -0.044 SA
ENDBRANCH  13  15
ENDBRANCH   8  11
BRANCH   1  18
HETATM   18  C4  UNL     1      -6.050  23.272   4.635  1.00  0.00     0.256 C 
HETATM   19  N1  UNL     1      -5.767  23.244   6.008  1.00  0.00    -0.355 N 
HETATM   20  C3  UNL     1      -4.433  23.388   6.542  1.00  0.00     0.152 C 
HETATM   21  O1  UNL     1      -7.268  23.226   4.284  1.00  0.00    -0.271 OA
BRANCH  19  22
HETATM   22  C2  UNL     1      -6.828  23.108   7.001  1.00  0.00     0.120 C 
HETATM   23  C1  UNL     1      -6.238  23.629   8.309  1.00  0.00     0.026 C 
ENDBRANCH  19  22
ENDBRANCH   1  18
BRANCH   9  24
HETATM   24  N5  UNL     1      -4.651  18.621   3.186  1.00  0.00    -0.143 N 
HETATM   25  O4  UNL     1      -4.254  18.447   4.337  1.00  0.00    -0.536 OA
HETATM   26  O5  UNL     1      -5.174  17.596   2.473  1.00  0.00    -0.536 OA
ENDBRANCH   9  24
TORSDOF 5
ENDMDL
MODEL 4
REMARK VINA RESULT: -6.746440854      3.132      5.570
REMARK  5 active torsions:
REMARK  status: ('A' for Active; 'I' for Inactive)
REMARK    1  A    between atoms: C2_2  and  N1_3 
REMARK       I    between atoms: N1_3  and  C4_5 
REMARK    2  A    between atoms: C4_5  and  C5_7 
REMARK    3  A    between atoms: C10_14  and  C11_15 
REMARK       I    between atoms: C11_15  and  N3_17 
REMARK    4  A    between atoms: N3_17  and  C12_19 
REMARK    5  A    between atoms: C13_22  and  N5_24 
ROOT
HETATM    1  C5  UNL     1      -4.449  25.227   3.301  1.00  0.00     0.346 C 
HETATM    2  C6  UNL     1      -4.942  23.827   3.397  1.00  0.00     0.180 C 
HETATM    3  O2  UNL     1      -3.731  23.146   3.607  1.00  0.00    -0.353 OA
HETATM    4  C7  UNL     1      -2.865  24.063   4.241  1.00  0.00     0.442 C 
HETATM    5  N2  UNL     1      -3.617  25.238   4.514  1.00  0.00     0.135 N 
HETATM    6  C8  UNL     1      -4.401  25.314   5.660  1.00  0.00     0.268 A 
HETATM    7  C9  UNL     1      -5.683  24.539   5.690  1.00  0.00     0.074 A 
HETATM    8  C10 UNL     1      -5.913  23.648   4.526  1.00  0.00     0.119 C 
HETATM    9  C13 UNL     1      -4.690  24.375   6.739  1.00  0.00     0.131 A 
HETATM   10  C14 UNL     1      -3.896  23.142   7.041  1.00  0.00     0.048 C 
ENDROOT
BRANCH   8  11
HETATM   11  C11 UNL     1      -6.120  22.223   4.877  1.00  0.00     0.230 C 
HETATM   12  O3  UNL     1      -6.709  21.926   5.939  1.00  0.00    -0.273 OA
HETATM   13  N3  UNL     1      -5.670  21.170   4.046  1.00  0.00    -0.306 N 
ATOM     14  H3  UNL     1      -5.189  21.413   3.180  1.00  0.00     0.170 HD
BRANCH  13  15
HETATM   15  C12 UNL     1      -5.847  19.805   4.347  1.00  0.00     0.187 C 
HETATM   16  N4  UNL     1      -4.768  19.054   4.891  1.00  0.00    -0.070 NA
HETATM   17  S1  UNL     1      -7.302  19.128   4.056  1.00  0.00    -0.044 SA
ENDBRANCH  13  15
ENDBRANCH   8  11
BRANCH   1  18
HETATM   18  C4  UNL     1      -5.387  26.296   3.143  1.00  0.00     0.256 C 
HETATM   19  N1  UNL     1      -5.027  27.649   3.213  1.00  0.00    -0.355 N 
HETATM   20  C3  UNL     1      -3.661  28.095   3.358  1.00  0.00     0.152 C 
HETATM   21  O1  UNL     1      -6.606  26.022   2.925  1.00  0.00    -0.271 OA
BRANCH  19  22
HETATM   22  C2  UNL     1      -6.024  28.709   3.097  1.00  0.00     0.120 C 
HETATM   23  C1  UNL     1      -5.815  29.606   4.315  1.00  0.00     0.026 C 
ENDBRANCH  19  22
ENDBRANCH   1  18
BRANCH   9  24
HETATM   24  N5  UNL     1      -5.047  24.981   8.026  1.00  0.00    -0.143 N 
HETATM   25  O4  UNL     1      -5.930  24.418   8.672  1.00  0.00    -0.536 OA
HETATM   26  O5  UNL     1      -4.452  26.101   8.501  1.00  0.00    -0.536 OA
ENDBRANCH   9  24
TORSDOF 5
ENDMDL
MODEL 5
REMARK VINA RESULT: -6.635141026      2.995      5.719
REMARK  5 active torsions:
REMARK  status: ('A' for Active; 'I' for Inactive)
REMARK    1  A    between atoms: C2_2  and  N1_3 
REMARK       I    between atoms: N1_3  and  C4_5 
REMARK    2  A    between atoms: C4_5  and  C5_7 
REMARK    3  A    between atoms: C10_14  and  C11_15 
REMARK       I    between atoms: C11_15  and  N3_17 
REMARK    4  A    between atoms: N3_17  and  C12_19 
REMARK    5  A    between atoms: C13_22  and  N5_24 
ROOT
HETATM    1  C5  UNL     1      -3.940  25.664   3.747  1.00  0.00     0.346 C 
HETATM    2  C6  UNL     1      -4.907  24.556   3.528  1.00  0.00     0.180 C 
HETATM    3  O2  UNL     1      -4.041  23.451   3.581  1.00  0.00    -0.353 OA
HETATM    4  C7  UNL     1      -2.960  23.832   4.404  1.00  0.00     0.442 C 
HETATM    5  N2  UNL     1      -3.261  25.117   4.932  1.00  0.00     0.135 N 
HETATM    6  C8  UNL     1      -4.057  25.237   6.066  1.00  0.00     0.268 A 
HETATM    7  C9  UNL     1      -5.530  24.998   5.922  1.00  0.00     0.074 A 
HETATM    8  C10 UNL     1      -5.967  24.516   4.588  1.00  0.00     0.119 C 
HETATM    9  C13 UNL     1      -4.751  24.267   6.908  1.00  0.00     0.131 A 
HETATM   10  C14 UNL     1      -4.479  22.795   6.928  1.00  0.00     0.048 C 
ENDROOT
BRANCH   8  11
HETATM   11  C11 UNL     1      -6.699  23.227   4.613  1.00  0.00     0.230 C 
HETATM   12  O3  UNL     1      -7.310  22.882   5.647  1.00  0.00    -0.273 OA
HETATM   13  N3  UNL     1      -6.731  22.359   3.496  1.00  0.00    -0.306 N 
ATOM     14  H3  UNL     1      -6.231  22.641   2.653  1.00  0.00     0.170 HD
BRANCH  13  15
HETATM   15  C12 UNL     1      -7.414  21.126   3.483  1.00  0.00     0.187 C 
HETATM   16  N4  UNL     1      -8.753  21.064   3.006  1.00  0.00    -0.070 NA
HETATM   17  S1  UNL     1      -6.633  19.800   4.022  1.00  0.00    -0.044 SA
ENDBRANCH  13  15
ENDBRANCH   8  11
BRANCH   1  18
HETATM   18  C4  UNL     1      -4.416  27.011   3.831  1.00  0.00     0.256 C 
HETATM   19  N1  UNL     1      -5.268  27.584   2.877  1.00  0.00    -0.355 N 
HETATM   20  C3  UNL     1      -5.821  26.844   1.767  1.00  0.00     0.152 C 
HETATM   21  O1  UNL     1      -4.063  27.731   4.814  1.00  0.00    -0.271 OA
BRANCH  19  22
HETATM   22  C2  UNL     1      -5.690  28.978   2.973  1.00  0.00     0.120 C 
HETATM   23  C1  UNL     1      -7.107  29.020   2.407  1.00  0.00     0.026 C 
ENDBRANCH  19  22
ENDBRANCH   1  18
BRANCH   9  24
HETATM   24  N5  UNL     1      -4.972  24.682   8.298  1.00  0.00    -0.143 N 
HETATM   25  O4  UNL     1      -4.434  25.729   8.651  1.00  0.00    -0.536 OA
HETATM   26  O5  UNL     1      -5.726  23.966   9.166  1.00  0.00    -0.536 OA
ENDBRANCH   9  24
TORSDOF 5
ENDMDL
