MODEL 1
REMARK VINA RESULT: -8.377856139      0.000      0.000
REMARK  19 active torsions:
REMARK  status: ('A' for Active; 'I' for Inactive)
REMARK    1  A    between atoms: C2_2  and  O1_3 
REMARK    2  A    between atoms: C2_2  and  N1_5 
REMARK    3  A    between atoms: N1_5  and  C3_7 
REMARK    4  A    between atoms: C4_8  and  C5_9 
REMARK    5  A    between atoms: C5_9  and  O2_10 
REMARK    6  A    between atoms: C5_9  and  C6_12 
REMARK    7  A    between atoms: C6_12  and  O3_13 
REMARK    8  A    between atoms: C6_12  and  C7_15 
REMARK    9  A    between atoms: C8_19  and  C9_20 
REMARK   10  A    between atoms: C9_20  and  C10_22 
REMARK   11  A    between atoms: C10_22  and  O8_23 
REMARK   12  A    between atoms: C10_22  and  N2_25 
REMARK   13  A    between atoms: N2_25  and  C11_27 
REMARK   14  A    between atoms: C11_27  and  C12_28 
REMARK   15  A    between atoms: C11_27  and  C19_42 
REMARK   16  A    between atoms: C13_31  and  N4_32 
REMARK   17  A    between atoms: C18_39  and  O10_40 
REMARK   18  A    between atoms: C19_42  and  O11_43 
REMARK   19  A    between atoms: C19_42  and  O12_45 
ROOT
HETATM    1  C9  UNL     1       0.434   3.337   4.610  1.00  0.00     0.273 C 
HETATM    2  O7  UNL     1       1.258   2.503   4.989  1.00  0.00    -0.279 OA
ENDROOT
BRANCH   1   3
HETATM    3  C8  UNL     1       0.058   4.384   5.611  1.00  0.00     0.206 A 
HETATM    4  O6  UNL     1      -0.967   4.340   6.388  1.00  0.00    -0.285 OA
HETATM    5  C4  UNL     1      -1.300   5.273   7.252  1.00  0.00     0.142 A 
HETATM    6  C3  UNL     1      -0.488   6.385   7.355  1.00  0.00     0.136 A 
HETATM    7  C20 UNL     1       0.633   6.475   6.530  1.00  0.00     0.277 A 
HETATM    8  N5  UNL     1       0.846   5.468   5.702  1.00  0.00    -0.298 N 
HETATM    9  O13 UNL     1       1.408   7.495   6.603  1.00  0.00    -0.266 OA
ATOM     10  H5  UNL     1       1.662   5.516   5.092  1.00  0.00     0.171 HD
BRANCH   5  11
HETATM   11  C5  UNL     1      -2.496   5.213   8.086  1.00  0.00     0.119 C 
BRANCH  11  12
HETATM   12  O2  UNL     1      -3.222   6.372   8.072  1.00  0.00    -0.359 OA
ATOM     13  H2  UNL     1      -3.189   6.846   8.895  1.00  0.00     0.217 HD
ENDBRANCH  11  12
BRANCH  11  14
HETATM   14  C6  UNL     1      -2.639   4.325   9.254  1.00  0.00     0.278 C 
BRANCH  14  15
HETATM   15  O3  UNL     1      -3.561   5.013  10.190  1.00  0.00    -0.378 OA
ATOM     16  H3  UNL     1      -4.428   4.945   9.809  1.00  0.00     0.211 HD
ENDBRANCH  14  15
BRANCH  14  17
HETATM   17  C7  UNL     1      -1.458   3.957  10.039  1.00  0.00     0.209 C 
HETATM   18  O4  UNL     1      -1.230   4.586  11.167  1.00  0.00    -0.646 OA
HETATM   19  O5  UNL     1      -0.546   2.985   9.714  1.00  0.00    -0.646 OA
ENDBRANCH  14  17
ENDBRANCH  11  14
ENDBRANCH   5  11
BRANCH   6  20
HETATM   20  N1  UNL     1      -0.609   7.444   8.267  1.00  0.00    -0.357 N 
ATOM     21  H1  UNL     1      -0.929   8.332   7.881  1.00  0.00     0.162 HD
BRANCH  20  22
HETATM   22  C2  UNL     1      -0.341   7.431   9.666  1.00  0.00     0.214 C 
HETATM   23  C1  UNL     1       0.478   8.722  10.017  1.00  0.00     0.063 C 
BRANCH  22  24
HETATM   24  O1  UNL     1      -1.452   7.458  10.484  1.00  0.00    -0.377 OA
ATOM     25  H1  UNL     1      -2.188   7.651   9.914  1.00  0.00     0.212 HD
ENDBRANCH  22  24
ENDBRANCH  20  22
ENDBRANCH   6  20
ENDBRANCH   1   3
BRANCH   1  26
HETATM   26  C10 UNL     1      -0.202   3.421   3.341  1.00  0.00     0.192 C 
BRANCH  26  27
HETATM   27  O8  UNL     1      -1.494   3.297   3.254  1.00  0.00    -0.343 OA
ATOM     28  H8  UNL     1      -1.998   3.927   2.751  1.00  0.00     0.219 HD
ENDBRANCH  26  27
BRANCH  26  29
HETATM   29  N2  UNL     1       0.399   3.648   2.060  1.00  0.00    -0.353 N 
ATOM     30  H2  UNL     1      -0.157   3.951   1.261  1.00  0.00     0.162 HD
BRANCH  29  31
HETATM   31  C11 UNL     1       1.852   3.427   1.941  1.00  0.00     0.192 C 
BRANCH  31  32
HETATM   32  C12 UNL     1       2.557   4.741   1.848  1.00  0.00     0.080 A 
HETATM   33  N3  UNL     1       2.502   5.493   0.792  1.00  0.00    -0.335 N 
HETATM   34  C13 UNL     1       3.111   6.671   0.779  1.00  0.00     0.149 A 
ATOM     35  H3  UNL     1       1.988   5.178  -0.031  1.00  0.00     0.168 HD
HETATM   36  S1  UNL     1       3.812   6.735   2.337  1.00  0.00    -0.027 SA
HETATM   37  C18 UNL     1       3.272   5.229   2.921  1.00  0.00     0.135 A 
BRANCH  34  38
HETATM   38  N4  UNL     1       3.124   7.628  -0.298  1.00  0.00    -0.357 N 
HETATM   39  C14 UNL     1       3.801   8.874  -0.250  1.00  0.00     0.151 C 
HETATM   40  C15 UNL     1       3.899   9.373  -1.703  1.00  0.00     0.187 C 
HETATM   41  O9  UNL     1       2.611   9.562  -2.202  1.00  0.00    -0.388 OA
HETATM   42  C16 UNL     1       1.792   8.470  -2.122  1.00  0.00     0.187 C 
HETATM   43  C17 UNL     1       2.401   7.254  -1.510  1.00  0.00     0.151 C 
ENDBRANCH  34  38
BRANCH  37  44
HETATM   44  O10 UNL     1       3.470   4.596   4.165  1.00  0.00    -0.352 OA
ATOM     45  H10 UNL     1       2.948   4.706   4.951  1.00  0.00     0.218 HD
ENDBRANCH  37  44
ENDBRANCH  31  32
BRANCH  31  46
HETATM   46  C19 UNL     1       2.127   2.592   0.698  1.00  0.00     0.282 C 
BRANCH  46  47
HETATM   47  O11 UNL     1       3.463   2.898   0.364  1.00  0.00    -0.369 OA
ATOM     48  H11 UNL     1       3.658   2.325  -0.369  1.00  0.00     0.212 HD
ENDBRANCH  46  47
BRANCH  46  49
HETATM   49  O12 UNL     1       1.369   3.004  -0.350  1.00  0.00    -0.369 OA
ATOM     50  H12 UNL     1       1.471   2.426  -1.098  1.00  0.00     0.212 HD
ENDBRANCH  46  49
ENDBRANCH  31  46
ENDBRANCH  29  31
ENDBRANCH  26  29
ENDBRANCH   1  26
TORSDOF 19
ENDMDL
MODEL 2
REMARK VINA RESULT: -8.363102397      1.995      2.979
REMARK  19 active torsions:
REMARK  status: ('A' for Active; 'I' for Inactive)
REMARK    1  A    between atoms: C2_2  and  O1_3 
REMARK    2  A    between atoms: C2_2  and  N1_5 
REMARK    3  A    between atoms: N1_5  and  C3_7 
REMARK    4  A    between atoms: C4_8  and  C5_9 
REMARK    5  A    between atoms: C5_9  and  O2_10 
REMARK    6  A    between atoms: C5_9  and  C6_12 
REMARK    7  A    between atoms: C6_12  and  O3_13 
REMARK    8  A    between atoms: C6_12  and  C7_15 
REMARK    9  A    between atoms: C8_19  and  C9_20 
REMARK   10  A    between atoms: C9_20  and  C10_22 
REMARK   11  A    between atoms: C10_22  and  O8_23 
REMARK   12  A    between atoms: C10_22  and  N2_25 
REMARK   13  A    between atoms: N2_25  and  C11_27 
REMARK   14  A    between atoms: C11_27  and  C12_28 
REMARK   15  A    between atoms: C11_27  and  C19_42 
REMARK   16  A    between atoms: C13_31  and  N4_32 
REMARK   17  A    between atoms: C18_39  and  O10_40 
REMARK   18  A    between atoms: C19_42  and  O11_43 
REMARK   19  A    between atoms: C19_42  and  O12_45 
ROOT
HETATM    1  C9  UNL     1       1.500   4.641   3.525  1.00  0.00     0.273 C 
HETATM    2  O7  UNL     1       0.493   4.187   2.982  1.00  0.00    -0.279 OA
ENDROOT
BRANCH   1   3
HETATM    3  C8  UNL     1       1.261   5.545   4.693  1.00  0.00     0.206 A 
HETATM    4  O6  UNL     1       0.493   5.287   5.693  1.00  0.00    -0.285 OA
HETATM    5  C4  UNL     1       0.275   6.094   6.706  1.00  0.00     0.142 A 
HETATM    6  C3  UNL     1       0.925   7.313   6.720  1.00  0.00     0.136 A 
HETATM    7  C20 UNL     1       1.765   7.635   5.654  1.00  0.00     0.277 A 
HETATM    8  N5  UNL     1       1.889   6.733   4.698  1.00  0.00    -0.298 N 
HETATM    9  O13 UNL     1       2.385   8.759   5.639  1.00  0.00    -0.266 OA
ATOM     10  H5  UNL     1       2.501   6.952   3.912  1.00  0.00     0.171 HD
BRANCH   5  11
HETATM   11  C5  UNL     1      -0.640   5.789   7.802  1.00  0.00     0.119 C 
BRANCH  11  12
HETATM   12  O2  UNL     1      -0.008   5.301   8.913  1.00  0.00    -0.359 OA
ATOM     13  H2  UNL     1       0.147   4.365   8.877  1.00  0.00     0.217 HD
ENDBRANCH  11  12
BRANCH  11  14
HETATM   14  C6  UNL     1      -2.062   5.447   7.613  1.00  0.00     0.278 C 
BRANCH  14  15
HETATM   15  O3  UNL     1      -2.781   6.734   7.447  1.00  0.00    -0.378 OA
ATOM     16  H3  UNL     1      -3.592   6.530   6.997  1.00  0.00     0.211 HD
ENDBRANCH  14  15
BRANCH  14  17
HETATM   17  C7  UNL     1      -2.778   4.709   8.656  1.00  0.00     0.209 C 
HETATM   18  O4  UNL     1      -3.663   3.809   8.296  1.00  0.00    -0.646 OA
HETATM   19  O5  UNL     1      -2.606   4.855  10.008  1.00  0.00    -0.646 OA
ENDBRANCH  14  17
ENDBRANCH  11  14
ENDBRANCH   5  11
BRANCH   6  20
HETATM   20  N1  UNL     1       0.903   8.276   7.740  1.00  0.00    -0.357 N 
ATOM     21  H1  UNL     1       1.690   8.256   8.389  1.00  0.00     0.162 HD
BRANCH  20  22
HETATM   22  C2  UNL     1      -0.082   9.277   7.981  1.00  0.00     0.214 C 
HETATM   23  C1  UNL     1       0.583  10.679   7.753  1.00  0.00     0.063 C 
BRANCH  22  24
HETATM   24  O1  UNL     1      -1.180   9.242   7.146  1.00  0.00    -0.377 OA
ATOM     25  H1  UNL     1      -1.565   8.381   7.260  1.00  0.00     0.212 HD
ENDBRANCH  22  24
ENDBRANCH  20  22
ENDBRANCH   6  20
ENDBRANCH   1   3
BRANCH   1  26
HETATM   26  C10 UNL     1       2.859   4.410   3.176  1.00  0.00     0.192 C 
BRANCH  26  27
HETATM   27  O8  UNL     1       3.807   4.755   3.997  1.00  0.00    -0.343 OA
ATOM     28  H8  UNL     1       4.706   4.507   3.814  1.00  0.00     0.219 HD
ENDBRANCH  26  27
BRANCH  26  29
HETATM   29  N2  UNL     1       3.380   3.807   1.985  1.00  0.00    -0.353 N 
ATOM     30  H2  UNL     1       3.396   2.793   1.869  1.00  0.00     0.162 HD
BRANCH  29  31
HETATM   31  C11 UNL     1       3.889   4.705   0.933  1.00  0.00     0.192 C 
BRANCH  31  32
HETATM   32  C12 UNL     1       2.774   5.096   0.018  1.00  0.00     0.080 A 
HETATM   33  N3  UNL     1       2.714   6.257  -0.557  1.00  0.00    -0.335 N 
HETATM   34  C13 UNL     1       1.725   6.536  -1.395  1.00  0.00     0.149 A 
ATOM     35  H3  UNL     1       3.430   6.958  -0.365  1.00  0.00     0.168 HD
HETATM   36  S1  UNL     1       0.815   5.089  -1.379  1.00  0.00    -0.027 SA
HETATM   37  C18 UNL     1       1.771   4.199  -0.286  1.00  0.00     0.135 A 
BRANCH  34  38
HETATM   38  N4  UNL     1       1.530   7.761  -2.128  1.00  0.00    -0.357 N 
HETATM   39  C14 UNL     1       0.754   7.868  -3.312  1.00  0.00     0.151 C 
HETATM   40  C15 UNL     1       0.481   9.369  -3.520  1.00  0.00     0.187 C 
HETATM   41  O9  UNL     1       1.696  10.027  -3.699  1.00  0.00    -0.388 OA
HETATM   42  C16 UNL     1       2.612   9.838  -2.700  1.00  0.00     0.187 C 
HETATM   43  C17 UNL     1       2.170   8.956  -1.583  1.00  0.00     0.151 C 
ENDBRANCH  34  38
BRANCH  37  44
HETATM   44  O10 UNL     1       1.627   2.888   0.212  1.00  0.00    -0.352 OA
ATOM     45  H10 UNL     1       2.291   2.208   0.229  1.00  0.00     0.218 HD
ENDBRANCH  37  44
ENDBRANCH  31  32
BRANCH  31  46
HETATM   46  C19 UNL     1       4.983   3.988   0.154  1.00  0.00     0.282 C 
BRANCH  46  47
HETATM   47  O11 UNL     1       4.901   2.650   0.591  1.00  0.00    -0.369 OA
ATOM     48  H11 UNL     1       5.805   2.395   0.733  1.00  0.00     0.212 HD
ENDBRANCH  46  47
BRANCH  46  49
HETATM   49  O12 UNL     1       6.215   4.432   0.512  1.00  0.00    -0.369 OA
ATOM     50  H12 UNL     1       6.888   4.080  -0.059  1.00  0.00     0.212 HD
ENDBRANCH  46  49
ENDBRANCH  31  46
ENDBRANCH  29  31
ENDBRANCH  26  29
ENDBRANCH   1  26
TORSDOF 19
ENDMDL
MODEL 3
REMARK VINA RESULT: -8.264903660      2.923      9.500
REMARK  19 active torsions:
REMARK  status: ('A' for Active; 'I' for Inactive)
REMARK    1  A    between atoms: C2_2  and  O1_3 
REMARK    2  A    between atoms: C2_2  and  N1_5 
REMARK    3  A    between atoms: N1_5  and  C3_7 
REMARK    4  A    between atoms: C4_8  and  C5_9 
REMARK    5  A    between atoms: C5_9  and  O2_10 
REMARK    6  A    between atoms: C5_9  and  C6_12 
REMARK    7  A    between atoms: C6_12  and  O3_13 
REMARK    8  A    between atoms: C6_12  and  C7_15 
REMARK    9  A    between atoms: C8_19  and  C9_20 
REMARK   10  A    between atoms: C9_20  and  C10_22 
REMARK   11  A    between atoms: C10_22  and  O8_23 
REMARK   12  A    between atoms: C10_22  and  N2_25 
REMARK   13  A    between atoms: N2_25  and  C11_27 
REMARK   14  A    between atoms: C11_27  and  C12_28 
REMARK   15  A    between atoms: C11_27  and  C19_42 
REMARK   16  A    between atoms: C13_31  and  N4_32 
REMARK   17  A    between atoms: C18_39  and  O10_40 
REMARK   18  A    between atoms: C19_42  and  O11_43 
REMARK   19  A    between atoms: C19_42  and  O12_45 
ROOT
HETATM    1  C9  UNL     1       1.582   4.682   5.648  1.00  0.00     0.273 C 
HETATM    2  O7  UNL     1       2.397   4.846   6.556  1.00  0.00    -0.279 OA
ENDROOT
BRANCH   1   3
HETATM    3  C8  UNL     1       2.069   4.995   4.269  1.00  0.00     0.206 A 
HETATM    4  O6  UNL     1       1.774   4.334   3.204  1.00  0.00    -0.285 OA
HETATM    5  C4  UNL     1       2.221   4.605   1.998  1.00  0.00     0.142 A 
HETATM    6  C3  UNL     1       3.062   5.690   1.844  1.00  0.00     0.136 A 
HETATM    7  C20 UNL     1       3.409   6.434   2.972  1.00  0.00     0.277 A 
HETATM    8  N5  UNL     1       2.894   6.046   4.124  1.00  0.00    -0.298 N 
HETATM    9  O13 UNL     1       4.187   7.448   2.860  1.00  0.00    -0.266 OA
ATOM     10  H5  UNL     1       3.136   6.580   4.958  1.00  0.00     0.171 HD
BRANCH   5  11
HETATM   11  C5  UNL     1       1.903   3.806   0.820  1.00  0.00     0.119 C 
BRANCH  11  12
HETATM   12  O2  UNL     1       2.998   3.202   0.265  1.00  0.00    -0.359 OA
ATOM     13  H2  UNL     1       2.776   2.504  -0.340  1.00  0.00     0.217 HD
ENDBRANCH  11  12
BRANCH  11  14
HETATM   14  C6  UNL     1       0.739   4.054  -0.052  1.00  0.00     0.278 C 
BRANCH  14  15
HETATM   15  O3  UNL     1       0.494   2.790  -0.789  1.00  0.00    -0.378 OA
ATOM     16  H3  UNL     1      -0.224   2.357  -0.343  1.00  0.00     0.211 HD
ENDBRANCH  14  15
BRANCH  14  17
HETATM   17  C7  UNL     1       0.798   5.113  -1.062  1.00  0.00     0.209 C 
HETATM   18  O4  UNL     1       0.626   4.791  -2.323  1.00  0.00    -0.646 OA
HETATM   19  O5  UNL     1       1.007   6.446  -0.820  1.00  0.00    -0.646 OA
ENDBRANCH  14  17
ENDBRANCH  11  14
ENDBRANCH   5  11
BRANCH   6  20
HETATM   20  N1  UNL     1       3.574   6.203   0.643  1.00  0.00    -0.357 N 
ATOM     21  H1  UNL     1       3.018   6.932   0.195  1.00  0.00     0.162 HD
BRANCH  20  22
HETATM   22  C2  UNL     1       4.775   5.831  -0.028  1.00  0.00     0.214 C 
HETATM   23  C1  UNL     1       5.640   7.124  -0.230  1.00  0.00     0.063 C 
BRANCH  22  24
HETATM   24  O1  UNL     1       5.582   4.941   0.649  1.00  0.00    -0.377 OA
ATOM     25  H1  UNL     1       5.217   4.874   1.524  1.00  0.00     0.212 HD
ENDBRANCH  22  24
ENDBRANCH  20  22
ENDBRANCH   6  20
ENDBRANCH   1   3
BRANCH   1  26
HETATM   26  C10 UNL     1       0.237   4.234   5.754  1.00  0.00     0.192 C 
BRANCH  26  27
HETATM   27  O8  UNL     1      -0.352   3.699   4.724  1.00  0.00    -0.343 OA
ATOM     28  H8  UNL     1      -1.174   3.235   4.836  1.00  0.00     0.219 HD
ENDBRANCH  26  27
BRANCH  26  29
HETATM   29  N2  UNL     1      -0.625   4.273   6.898  1.00  0.00    -0.353 N 
ATOM     30  H2  UNL     1      -0.909   3.418   7.376  1.00  0.00     0.162 HD
BRANCH  29  31
HETATM   31  C11 UNL     1      -1.085   5.595   7.359  1.00  0.00     0.192 C 
BRANCH  31  32
HETATM   32  C12 UNL     1      -0.273   6.033   8.534  1.00  0.00     0.080 A 
HETATM   33  N3  UNL     1       0.370   5.198   9.292  1.00  0.00    -0.335 N 
HETATM   34  C13 UNL     1       1.112   5.645  10.296  1.00  0.00     0.149 A 
ATOM     35  H3  UNL     1       0.306   4.196   9.114  1.00  0.00     0.168 HD
HETATM   36  S1  UNL     1       0.898   7.336  10.184  1.00  0.00    -0.027 SA
HETATM   37  C18 UNL     1      -0.142   7.372   8.835  1.00  0.00     0.135 A 
BRANCH  34  38
HETATM   38  N4  UNL     1       1.901   4.856  11.207  1.00  0.00    -0.357 N 
HETATM   39  C14 UNL     1       1.930   3.436  11.216  1.00  0.00     0.151 C 
HETATM   40  C15 UNL     1       3.170   3.031  12.033  1.00  0.00     0.187 C 
HETATM   41  O9  UNL     1       3.023   3.501  13.337  1.00  0.00    -0.388 OA
HETATM   42  C16 UNL     1       2.793   4.845  13.447  1.00  0.00     0.187 C 
HETATM   43  C17 UNL     1       2.728   5.592  12.159  1.00  0.00     0.151 C 
ENDBRANCH  34  38
BRANCH  37  44
HETATM   44  O10 UNL     1      -0.741   8.455   8.159  1.00  0.00    -0.352 OA
ATOM     45  H10 UNL     1      -1.350   9.088   8.521  1.00  0.00     0.218 HD
ENDBRANCH  37  44
ENDBRANCH  31  32
BRANCH  31  46
HETATM   46  C19 UNL     1      -2.556   5.505   7.740  1.00  0.00     0.282 C 
BRANCH  46  47
HETATM   47  O11 UNL     1      -3.091   4.563   6.838  1.00  0.00    -0.369 OA
ATOM     48  H11 UNL     1      -3.934   4.333   7.212  1.00  0.00     0.212 HD
ENDBRANCH  46  47
BRANCH  46  49
HETATM   49  O12 UNL     1      -3.201   6.675   7.497  1.00  0.00    -0.369 OA
ATOM     50  H12 UNL     1      -3.808   6.590   6.771  1.00  0.00     0.212 HD
ENDBRANCH  46  49
ENDBRANCH  31  46
ENDBRANCH  29  31
ENDBRANCH  26  29
ENDBRANCH   1  26
TORSDOF 19
ENDMDL
MODEL 4
REMARK VINA RESULT: -8.230261006      2.110      3.119
REMARK  19 active torsions:
REMARK  status: ('A' for Active; 'I' for Inactive)
REMARK    1  A    between atoms: C2_2  and  O1_3 
REMARK    2  A    between atoms: C2_2  and  N1_5 
REMARK    3  A    between atoms: N1_5  and  C3_7 
REMARK    4  A    between atoms: C4_8  and  C5_9 
REMARK    5  A    between atoms: C5_9  and  O2_10 
REMARK    6  A    between atoms: C5_9  and  C6_12 
REMARK    7  A    between atoms: C6_12  and  O3_13 
REMARK    8  A    between atoms: C6_12  and  C7_15 
REMARK    9  A    between atoms: C8_19  and  C9_20 
REMARK   10  A    between atoms: C9_20  and  C10_22 
REMARK   11  A    between atoms: C10_22  and  O8_23 
REMARK   12  A    between atoms: C10_22  and  N2_25 
REMARK   13  A    between atoms: N2_25  and  C11_27 
REMARK   14  A    between atoms: C11_27  and  C12_28 
REMARK   15  A    between atoms: C11_27  and  C19_42 
REMARK   16  A    between atoms: C13_31  and  N4_32 
REMARK   17  A    between atoms: C18_39  and  O10_40 
REMARK   18  A    between atoms: C19_42  and  O11_43 
REMARK   19  A    between atoms: C19_42  and  O12_45 
ROOT
HETATM    1  C9  UNL     1       1.680   4.758   3.676  1.00  0.00     0.273 C 
HETATM    2  O7  UNL     1       0.659   4.351   3.120  1.00  0.00    -0.279 OA
ENDROOT
BRANCH   1   3
HETATM    3  C8  UNL     1       1.549   5.074   5.132  1.00  0.00     0.206 A 
HETATM    4  O6  UNL     1       0.518   5.605   5.692  1.00  0.00    -0.285 OA
HETATM    5  C4  UNL     1       0.418   5.895   6.969  1.00  0.00     0.142 A 
HETATM    6  C3  UNL     1       1.489   5.601   7.790  1.00  0.00     0.136 A 
HETATM    7  C20 UNL     1       2.627   5.026   7.226  1.00  0.00     0.277 A 
HETATM    8  N5  UNL     1       2.596   4.793   5.926  1.00  0.00    -0.298 N 
HETATM    9  O13 UNL     1       3.637   4.738   7.963  1.00  0.00    -0.266 OA
ATOM     10  H5  UNL     1       3.419   4.371   5.497  1.00  0.00     0.171 HD
BRANCH   5  11
HETATM   11  C5  UNL     1      -0.749   6.541   7.563  1.00  0.00     0.119 C 
BRANCH  11  12
HETATM   12  O2  UNL     1      -0.464   7.749   8.138  1.00  0.00    -0.359 OA
ATOM     13  H2  UNL     1      -1.221   8.165   8.532  1.00  0.00     0.217 HD
ENDBRANCH  11  12
BRANCH  11  14
HETATM   14  C6  UNL     1      -1.933   5.809   8.049  1.00  0.00     0.278 C 
BRANCH  14  15
HETATM   15  O3  UNL     1      -3.108   6.443   7.401  1.00  0.00    -0.378 OA
ATOM     16  H3  UNL     1      -3.689   6.708   8.105  1.00  0.00     0.211 HD
ENDBRANCH  14  15
BRANCH  14  17
HETATM   17  C7  UNL     1      -2.227   5.770   9.483  1.00  0.00     0.209 C 
HETATM   18  O4  UNL     1      -2.296   6.902  10.143  1.00  0.00    -0.646 OA
HETATM   19  O5  UNL     1      -2.459   4.641  10.227  1.00  0.00    -0.646 OA
ENDBRANCH  14  17
ENDBRANCH  11  14
ENDBRANCH   5  11
BRANCH   6  20
HETATM   20  N1  UNL     1       1.554   5.744   9.184  1.00  0.00    -0.357 N 
ATOM     21  H1  UNL     1       1.774   6.679   9.528  1.00  0.00     0.162 HD
BRANCH  20  22
HETATM   22  C2  UNL     1       1.353   4.744  10.179  1.00  0.00     0.214 C 
HETATM   23  C1  UNL     1       0.805   5.446  11.470  1.00  0.00     0.063 C 
BRANCH  22  24
HETATM   24  O1  UNL     1       0.431   3.769   9.862  1.00  0.00    -0.377 OA
ATOM     25  H1  UNL     1       0.534   3.090  10.519  1.00  0.00     0.212 HD
ENDBRANCH  22  24
ENDBRANCH  20  22
ENDBRANCH   6  20
ENDBRANCH   1   3
BRANCH   1  26
HETATM   26  C10 UNL     1       2.963   4.965   3.100  1.00  0.00     0.192 C 
BRANCH  26  27
HETATM   27  O8  UNL     1       3.714   5.940   3.522  1.00  0.00    -0.343 OA
ATOM     28  H8  UNL     1       4.503   6.171   3.045  1.00  0.00     0.219 HD
ENDBRANCH  26  27
BRANCH  26  29
HETATM   29  N2  UNL     1       3.604   4.209   2.065  1.00  0.00    -0.353 N 
ATOM     30  H2  UNL     1       3.739   3.202   2.151  1.00  0.00     0.162 HD
BRANCH  29  31
HETATM   31  C11 UNL     1       4.062   4.942   0.870  1.00  0.00     0.192 C 
BRANCH  31  32
HETATM   32  C12 UNL     1       2.895   5.255  -0.009  1.00  0.00     0.080 A 
HETATM   33  N3  UNL     1       2.770   6.386  -0.633  1.00  0.00    -0.335 N 
HETATM   34  C13 UNL     1       1.736   6.593  -1.436  1.00  0.00     0.149 A 
ATOM     35  H3  UNL     1       3.470   7.117  -0.505  1.00  0.00     0.168 HD
HETATM   36  S1  UNL     1       0.878   5.121  -1.314  1.00  0.00    -0.027 SA
HETATM   37  C18 UNL     1       1.911   4.313  -0.227  1.00  0.00     0.135 A 
BRANCH  34  38
HETATM   38  N4  UNL     1       1.468   7.776  -2.214  1.00  0.00    -0.357 N 
HETATM   39  C14 UNL     1       0.658   7.798  -3.380  1.00  0.00     0.151 C 
HETATM   40  C15 UNL     1       0.312   9.275  -3.643  1.00  0.00     0.187 C 
HETATM   41  O9  UNL     1       1.492   9.978  -3.882  1.00  0.00    -0.388 OA
HETATM   42  C16 UNL     1       2.439   9.873  -2.901  1.00  0.00     0.187 C 
HETATM   43  C17 UNL     1       2.066   9.020  -1.737  1.00  0.00     0.151 C 
ENDBRANCH  34  38
BRANCH  37  44
HETATM   44  O10 UNL     1       1.834   3.023   0.336  1.00  0.00    -0.352 OA
ATOM     45  H10 UNL     1       1.290   2.750   1.066  1.00  0.00     0.218 HD
ENDBRANCH  37  44
ENDBRANCH  31  32
BRANCH  31  46
HETATM   46  C19 UNL     1       5.073   4.087   0.119  1.00  0.00     0.282 C 
BRANCH  46  47
HETATM   47  O11 UNL     1       4.908   2.797   0.663  1.00  0.00    -0.369 OA
ATOM     48  H11 UNL     1       4.808   2.235  -0.097  1.00  0.00     0.212 HD
ENDBRANCH  46  47
BRANCH  46  49
HETATM   49  O12 UNL     1       6.346   4.463   0.407  1.00  0.00    -0.369 OA
ATOM     50  H12 UNL     1       6.957   3.748   0.265  1.00  0.00     0.212 HD
ENDBRANCH  46  49
ENDBRANCH  31  46
ENDBRANCH  29  31
ENDBRANCH  26  29
ENDBRANCH   1  26
TORSDOF 19
ENDMDL
MODEL 5
REMARK VINA RESULT: -8.229263781      2.904      5.755
REMARK  19 active torsions:
REMARK  status: ('A' for Active; 'I' for Inactive)
REMARK    1  A    between atoms: C2_2  and  O1_3 
REMARK    2  A    between atoms: C2_2  and  N1_5 
REMARK    3  A    between atoms: N1_5  and  C3_7 
REMARK    4  A    between atoms: C4_8  and  C5_9 
REMARK    5  A    between atoms: C5_9  and  O2_10 
REMARK    6  A    between atoms: C5_9  and  C6_12 
REMARK    7  A    between atoms: C6_12  and  O3_13 
REMARK    8  A    between atoms: C6_12  and  C7_15 
REMARK    9  A    between atoms: C8_19  and  C9_20 
REMARK   10  A    between atoms: C9_20  and  C10_22 
REMARK   11  A    between atoms: C10_22  and  O8_23 
REMARK   12  A    between atoms: C10_22  and  N2_25 
REMARK   13  A    between atoms: N2_25  and  C11_27 
REMARK   14  A    between atoms: C11_27  and  C12_28 
REMARK   15  A    between atoms: C11_27  and  C19_42 
REMARK   16  A    between atoms: C13_31  and  N4_32 
REMARK   17  A    between atoms: C18_39  and  O10_40 
REMARK   18  A    between atoms: C19_42  and  O11_43 
REMARK   19  A    between atoms: C19_42  and  O12_45 
ROOT
HETATM    1  C9  UNL     1       0.211   8.439   9.471  1.00  0.00     0.273 C 
HETATM    2  O7  UNL     1       0.394   9.555   9.958  1.00  0.00    -0.279 OA
ENDROOT
BRANCH   1   3
HETATM    3  C8  UNL     1       0.575   7.279  10.344  1.00  0.00     0.206 A 
HETATM    4  O6  UNL     1       0.074   6.096  10.262  1.00  0.00    -0.285 OA
HETATM    5  C4  UNL     1       0.387   5.087  11.044  1.00  0.00     0.142 A 
HETATM    6  C3  UNL     1       1.337   5.294  12.025  1.00  0.00     0.136 A 
HETATM    7  C20 UNL     1       1.905   6.561  12.151  1.00  0.00     0.277 A 
HETATM    8  N5  UNL     1       1.494   7.486  11.302  1.00  0.00    -0.298 N 
HETATM    9  O13 UNL     1       2.791   6.784  13.051  1.00  0.00    -0.266 OA
ATOM     10  H5  UNL     1       1.901   8.418  11.379  1.00  0.00     0.171 HD
BRANCH   5  11
HETATM   11  C5  UNL     1      -0.236   3.771  10.953  1.00  0.00     0.119 C 
BRANCH  11  12
HETATM   12  O2  UNL     1       0.512   2.867  10.250  1.00  0.00    -0.359 OA
ATOM     13  H2  UNL     1       1.005   2.274  10.805  1.00  0.00     0.217 HD
ENDBRANCH  11  12
BRANCH  11  14
HETATM   14  C6  UNL     1      -1.690   3.543  11.039  1.00  0.00     0.278 C 
BRANCH  14  15
HETATM   15  O3  UNL     1      -1.890   2.078  10.915  1.00  0.00    -0.378 OA
ATOM     16  H3  UNL     1      -2.635   1.958  10.338  1.00  0.00     0.211 HD
ENDBRANCH  14  15
BRANCH  14  17
HETATM   17  C7  UNL     1      -2.584   4.162  10.058  1.00  0.00     0.209 C 
HETATM   18  O4  UNL     1      -3.845   4.336  10.377  1.00  0.00    -0.646 OA
HETATM   19  O5  UNL     1      -2.227   4.605   8.810  1.00  0.00    -0.646 OA
ENDBRANCH  14  17
ENDBRANCH  11  14
ENDBRANCH   5  11
BRANCH   6  20
HETATM   20  N1  UNL     1       1.876   4.339  12.899  1.00  0.00    -0.357 N 
ATOM     21  H1  UNL     1       1.393   4.224  13.790  1.00  0.00     0.162 HD
BRANCH  20  22
HETATM   22  C2  UNL     1       3.017   3.509  12.695  1.00  0.00     0.214 C 
HETATM   23  C1  UNL     1       3.375   2.830  14.063  1.00  0.00     0.063 C 
BRANCH  22  24
HETATM   24  O1  UNL     1       2.848   2.477  11.796  1.00  0.00    -0.377 OA
ATOM     25  H1  UNL     1       1.984   2.601  11.419  1.00  0.00     0.212 HD
ENDBRANCH  22  24
ENDBRANCH  20  22
ENDBRANCH   6  20
ENDBRANCH   1   3
BRANCH   1  26
HETATM   26  C10 UNL     1      -0.300   8.121   8.183  1.00  0.00     0.192 C 
BRANCH  26  27
HETATM   27  O8  UNL     1      -1.002   9.000   7.529  1.00  0.00    -0.343 OA
ATOM     28  H8  UNL     1      -1.783   8.730   7.060  1.00  0.00     0.219 HD
ENDBRANCH  26  27
BRANCH  26  29
HETATM   29  N2  UNL     1      -0.144   6.906   7.440  1.00  0.00    -0.353 N 
ATOM     30  H2  UNL     1      -0.792   6.127   7.558  1.00  0.00     0.162 HD
BRANCH  29  31
HETATM   31  C11 UNL     1       0.988   6.824   6.499  1.00  0.00     0.192 C 
BRANCH  31  32
HETATM   32  C12 UNL     1       0.921   5.540   5.738  1.00  0.00     0.080 A 
HETATM   33  N3  UNL     1       1.218   5.456   4.478  1.00  0.00    -0.335 N 
HETATM   34  C13 UNL     1       1.183   4.282   3.861  1.00  0.00     0.149 A 
ATOM     35  H3  UNL     1       1.479   6.294   3.959  1.00  0.00     0.168 HD
HETATM   36  S1  UNL     1       0.701   3.226   5.115  1.00  0.00    -0.027 SA
HETATM   37  C18 UNL     1       0.573   4.367   6.374  1.00  0.00     0.135 A 
BRANCH  34  38
HETATM   38  N4  UNL     1       1.507   4.018   2.482  1.00  0.00    -0.357 N 
HETATM   39  C14 UNL     1       0.579   3.538   1.522  1.00  0.00     0.151 C 
HETATM   40  C15 UNL     1       1.212   3.787   0.141  1.00  0.00     0.187 C 
HETATM   41  O9  UNL     1       2.396   3.055   0.051  1.00  0.00    -0.388 OA
HETATM   42  C16 UNL     1       3.302   3.292   1.047  1.00  0.00     0.187 C 
HETATM   43  C17 UNL     1       2.883   4.289   2.073  1.00  0.00     0.151 C 
ENDBRANCH  34  38
BRANCH  37  44
HETATM   44  O10 UNL     1       0.214   4.211   7.728  1.00  0.00    -0.352 OA
ATOM     45  H10 UNL     1       0.607   3.619   8.359  1.00  0.00     0.218 HD
ENDBRANCH  37  44
ENDBRANCH  31  32
BRANCH  31  46
HETATM   46  C19 UNL     1       2.292   6.904   7.281  1.00  0.00     0.282 C 
BRANCH  46  47
HETATM   47  O11 UNL     1       3.010   7.941   6.651  1.00  0.00    -0.369 OA
ATOM     48  H11 UNL     1       3.026   8.639   7.295  1.00  0.00     0.212 HD
ENDBRANCH  46  47
BRANCH  46  49
HETATM   49  O12 UNL     1       3.031   5.777   7.123  1.00  0.00    -0.369 OA
ATOM     50  H12 UNL     1       3.552   5.595   7.897  1.00  0.00     0.212 HD
ENDBRANCH  46  49
ENDBRANCH  31  46
ENDBRANCH  29  31
ENDBRANCH  26  29
ENDBRANCH   1  26
TORSDOF 19
ENDMDL
