MODEL 1
REMARK VINA RESULT: -6.808688088      0.000      0.000
REMARK  6 active torsions:
REMARK  status: ('A' for Active; 'I' for Inactive)
REMARK    1  A    between atoms: C2_4  and  N2_5 
REMARK    2  A    between atoms: N2_5  and  C3_7 
REMARK    3  A    between atoms: N4_13  and  C7_15 
REMARK    4  A    between atoms: C7_15  and  C8_16 
REMARK    5  A    between atoms: C8_16  and  C9_17 
REMARK    6  A    between atoms: C9_17  and  N5_18 
ROOT
HETATM    1  C3  UNL     1       7.575  23.537   2.221  1.00  0.00     0.684 A 
HETATM    2  N3  UNL     1       6.756  22.905   1.368  1.00  0.00    -0.195 N 
ATOM      3  H3  UNL     1       6.979  22.883   0.373  1.00  0.00     0.184 HD
HETATM    4  C4  UNL     1       5.636  22.298   1.821  1.00  0.00     0.036 A 
HETATM    5  C5  UNL     1       5.341  22.332   3.185  1.00  0.00     0.009 A 
HETATM    6  C6  UNL     1       6.192  22.981   4.023  1.00  0.00     0.125 A 
HETATM    7  N4  UNL     1       6.028  23.099   5.242  1.00  0.00    -0.375 N 
ATOM      8  H4  UNL     1       6.812  23.628   5.624  1.00  0.00     0.161 HD
HETATM    9  N6  UNL     1       7.333  23.595   3.523  1.00  0.00    -0.176 N 
ATOM     10  H6  UNL     1       7.975  24.082   4.148  1.00  0.00     0.186 HD
HETATM   11  C12 UNL     1       4.109  21.631   3.561  1.00  0.00     0.044 C 
HETATM   12  C13 UNL     1       4.153  20.307   2.748  1.00  0.00     0.005 C 
HETATM   13  C14 UNL     1       3.790  20.671   1.335  1.00  0.00     0.006 C 
HETATM   14  C15 UNL     1       4.780  21.642   0.807  1.00  0.00     0.058 C 
ENDROOT
BRANCH   7  15
HETATM   15  C7  UNL     1       5.186  22.783   6.263  1.00  0.00     0.123 C 
BRANCH  15  16
HETATM   16  C8  UNL     1       5.389  23.848   7.386  1.00  0.00     0.039 C 
BRANCH  16  17
HETATM   17  C9  UNL     1       5.699  25.181   6.775  1.00  0.00     0.117 C 
BRANCH  17  18
HETATM   18  N5  UNL     1       7.094  25.454   6.923  1.00  0.00    -0.421 N 
HETATM   19  C10 UNL     1       7.637  26.330   5.930  1.00  0.00     0.142 C 
HETATM   20  C11 UNL     1       7.557  25.692   8.244  1.00  0.00     0.142 C 
ENDBRANCH  17  18
ENDBRANCH  16  17
ENDBRANCH  15  16
ENDBRANCH   7  15
BRANCH   1  21
HETATM   21  N2  UNL     1       8.647  24.120   1.790  1.00  0.00    -0.188 N 
ATOM     22  H2  UNL     1       8.838  24.109   0.788  1.00  0.00     0.185 HD
BRANCH  21  23
HETATM   23  C2  UNL     1       9.560  24.767   2.641  1.00  0.00     0.193 C 
HETATM   24  N1  UNL     1       9.728  26.038   2.572  1.00  0.00    -0.390 N 
HETATM   25  C1  UNL     1       8.963  26.790   1.605  1.00  0.00     0.147 C 
ATOM     26  H1  UNL     1      10.391  26.508   3.190  1.00  0.00     0.159 HD
ENDBRANCH  21  23
ENDBRANCH   1  21
TORSDOF 6
ENDMDL
MODEL 2
REMARK VINA RESULT: -6.667392270      3.340      6.496
REMARK  6 active torsions:
REMARK  status: ('A' for Active; 'I' for Inactive)
REMARK    1  A    between atoms: C2_4  and  N2_5 
REMARK    2  A    between atoms: N2_5  and  C3_7 
REMARK    3  A    between atoms: N4_13  and  C7_15 
REMARK    4  A    between atoms: C7_15  and  C8_16 
REMARK    5  A    between atoms: C8_16  and  C9_17 
REMARK    6  A    between atoms: C9_17  and  N5_18 
ROOT
HETATM    1  C3  UNL     1       8.166  25.786   4.472  1.00  0.00     0.684 A 
HETATM    2  N3  UNL     1       8.662  24.543   4.532  1.00  0.00    -0.195 N 
ATOM      3  H3  UNL     1       8.509  23.974   5.365  1.00  0.00     0.184 HD
HETATM    4  C4  UNL     1       9.365  24.038   3.493  1.00  0.00     0.036 A 
HETATM    5  C5  UNL     1       9.567  24.823   2.357  1.00  0.00     0.009 A 
HETATM    6  C6  UNL     1       9.051  26.080   2.328  1.00  0.00     0.125 A 
HETATM    7  N4  UNL     1       9.181  26.875   1.391  1.00  0.00    -0.375 N 
ATOM      8  H4  UNL     1       8.697  27.740   1.632  1.00  0.00     0.161 HD
HETATM    9  N6  UNL     1       8.334  26.566   3.413  1.00  0.00    -0.176 N 
ATOM     10  H6  UNL     1       7.945  27.508   3.396  1.00  0.00     0.186 HD
HETATM   11  C12 UNL     1      10.332  24.168   1.290  1.00  0.00     0.044 C 
HETATM   12  C13 UNL     1       9.747  22.730   1.220  1.00  0.00     0.005 C 
HETATM   13  C14 UNL     1      10.312  21.989   2.400  1.00  0.00     0.006 C 
HETATM   14  C15 UNL     1       9.892  22.664   3.653  1.00  0.00     0.058 C 
ENDROOT
BRANCH   7  15
HETATM   15  C7  UNL     1       9.735  27.022   0.157  1.00  0.00     0.123 C 
BRANCH  15  16
HETATM   16  C8  UNL     1      10.691  28.254   0.215  1.00  0.00     0.039 C 
BRANCH  16  17
HETATM   17  C9  UNL     1      12.111  27.793   0.348  1.00  0.00     0.117 C 
BRANCH  17  18
HETATM   18  N5  UNL     1      12.591  28.114   1.655  1.00  0.00    -0.421 N 
HETATM   19  C10 UNL     1      12.737  26.989   2.527  1.00  0.00     0.142 C 
HETATM   20  C11 UNL     1      13.642  29.065   1.727  1.00  0.00     0.142 C 
ENDBRANCH  17  18
ENDBRANCH  16  17
ENDBRANCH  15  16
ENDBRANCH   7  15
BRANCH   1  21
HETATM   21  N2  UNL     1       7.493  26.272   5.466  1.00  0.00    -0.188 N 
ATOM     22  H2  UNL     1       6.674  26.846   5.266  1.00  0.00     0.185 HD
BRANCH  21  23
HETATM   23  C2  UNL     1       7.842  26.043   6.809  1.00  0.00     0.193 C 
HETATM   24  N1  UNL     1       7.083  25.343   7.570  1.00  0.00    -0.390 N 
HETATM   25  C1  UNL     1       5.864  24.794   7.023  1.00  0.00     0.147 C 
ATOM     26  H1  UNL     1       7.336  25.176   8.545  1.00  0.00     0.159 HD
ENDBRANCH  21  23
ENDBRANCH   1  21
TORSDOF 6
ENDMDL
MODEL 3
REMARK VINA RESULT: -6.517487743      2.502      4.321
REMARK  6 active torsions:
REMARK  status: ('A' for Active; 'I' for Inactive)
REMARK    1  A    between atoms: C2_4  and  N2_5 
REMARK    2  A    between atoms: N2_5  and  C3_7 
REMARK    3  A    between atoms: N4_13  and  C7_15 
REMARK    4  A    between atoms: C7_15  and  C8_16 
REMARK    5  A    between atoms: C8_16  and  C9_17 
REMARK    6  A    between atoms: C9_17  and  N5_18 
ROOT
HETATM    1  C3  UNL     1      10.743  26.274   1.997  1.00  0.00     0.684 A 
HETATM    2  N3  UNL     1      10.288  25.873   0.802  1.00  0.00    -0.195 N 
ATOM      3  H3  UNL     1      10.624  26.327  -0.048  1.00  0.00     0.184 HD
HETATM    4  C4  UNL     1       9.385  24.871   0.717  1.00  0.00     0.036 A 
HETATM    5  C5  UNL     1       8.933  24.255   1.885  1.00  0.00     0.009 A 
HETATM    6  C6  UNL     1       9.414  24.685   3.081  1.00  0.00     0.125 A 
HETATM    7  N4  UNL     1       9.075  24.236   4.181  1.00  0.00    -0.375 N 
ATOM      8  H4  UNL     1       9.589  24.736   4.907  1.00  0.00     0.161 HD
HETATM    9  N6  UNL     1      10.341  25.719   3.131  1.00  0.00    -0.176 N 
ATOM     10  H6  UNL     1      10.705  26.044   4.026  1.00  0.00     0.186 HD
HETATM   11  C12 UNL     1       7.965  23.173   1.671  1.00  0.00     0.044 C 
HETATM   12  C13 UNL     1       8.542  22.370   0.471  1.00  0.00     0.005 C 
HETATM   13  C14 UNL     1       8.253  23.187  -0.758  1.00  0.00     0.006 C 
HETATM   14  C15 UNL     1       8.923  24.506  -0.641  1.00  0.00     0.058 C 
ENDROOT
BRANCH   7  15
HETATM   15  C7  UNL     1       8.268  23.320   4.781  1.00  0.00     0.123 C 
BRANCH  15  16
HETATM   16  C8  UNL     1       6.946  24.048   5.179  1.00  0.00     0.039 C 
BRANCH  16  17
HETATM   17  C9  UNL     1       5.770  23.163   4.896  1.00  0.00     0.117 C 
BRANCH  17  18
HETATM   18  N5  UNL     1       5.213  22.709   6.131  1.00  0.00    -0.421 N 
HETATM   19  C10 UNL     1       5.237  23.676   7.185  1.00  0.00     0.142 C 
HETATM   20  C11 UNL     1       4.015  21.951   6.045  1.00  0.00     0.142 C 
ENDBRANCH  17  18
ENDBRANCH  16  17
ENDBRANCH  15  16
ENDBRANCH   7  15
BRANCH   1  21
HETATM   21  N2  UNL     1      11.607  27.235   2.080  1.00  0.00    -0.188 N 
ATOM     22  H2  UNL     1      11.322  28.172   1.795  1.00  0.00     0.185 HD
BRANCH  21  23
HETATM   23  C2  UNL     1      12.919  27.045   2.547  1.00  0.00     0.193 C 
HETATM   24  N1  UNL     1      13.818  27.940   2.353  1.00  0.00    -0.390 N 
HETATM   25  C1  UNL     1      13.457  29.148   1.648  1.00  0.00     0.147 C 
ATOM     26  H1  UNL     1      14.771  27.802   2.692  1.00  0.00     0.159 HD
ENDBRANCH  21  23
ENDBRANCH   1  21
TORSDOF 6
ENDMDL
MODEL 4
REMARK VINA RESULT: -6.471705344      2.136      4.176
REMARK  6 active torsions:
REMARK  status: ('A' for Active; 'I' for Inactive)
REMARK    1  A    between atoms: C2_4  and  N2_5 
REMARK    2  A    between atoms: N2_5  and  C3_7 
REMARK    3  A    between atoms: N4_13  and  C7_15 
REMARK    4  A    between atoms: C7_15  and  C8_16 
REMARK    5  A    between atoms: C8_16  and  C9_17 
REMARK    6  A    between atoms: C9_17  and  N5_18 
ROOT
HETATM    1  C3  UNL     1       9.262  26.438   2.264  1.00  0.00     0.684 A 
HETATM    2  N3  UNL     1       9.697  25.263   1.787  1.00  0.00    -0.195 N 
ATOM      3  H3  UNL     1      10.189  25.228   0.894  1.00  0.00     0.184 HD
HETATM    4  C4  UNL     1       9.487  24.124   2.485  1.00  0.00     0.036 A 
HETATM    5  C5  UNL     1       8.815  24.182   3.706  1.00  0.00     0.009 A 
HETATM    6  C6  UNL     1       8.386  25.389   4.162  1.00  0.00     0.125 A 
HETATM    7  N4  UNL     1       7.763  25.566   5.214  1.00  0.00    -0.375 N 
ATOM      8  H4  UNL     1       7.568  26.562   5.310  1.00  0.00     0.161 HD
HETATM    9  N6  UNL     1       8.619  26.539   3.419  1.00  0.00    -0.176 N 
ATOM     10  H6  UNL     1       8.300  27.447   3.756  1.00  0.00     0.186 HD
HETATM   11  C12 UNL     1       8.655  22.888   4.379  1.00  0.00     0.044 C 
HETATM   12  C13 UNL     1      10.037  22.194   4.216  1.00  0.00     0.005 C 
HETATM   13  C14 UNL     1      10.099  21.711   2.793  1.00  0.00     0.006 C 
HETATM   14  C15 UNL     1       9.985  22.870   1.874  1.00  0.00     0.058 C 
ENDROOT
BRANCH   7  15
HETATM   15  C7  UNL     1       7.240  24.920   6.290  1.00  0.00     0.123 C 
BRANCH  15  16
HETATM   16  C8  UNL     1       5.779  24.509   5.928  1.00  0.00     0.039 C 
BRANCH  16  17
HETATM   17  C9  UNL     1       5.411  23.244   6.644  1.00  0.00     0.117 C 
BRANCH  17  18
HETATM   18  N5  UNL     1       4.825  22.331   5.715  1.00  0.00    -0.421 N 
HETATM   19  C10 UNL     1       4.882  22.753   4.349  1.00  0.00     0.142 C 
HETATM   20  C11 UNL     1       5.097  20.953   5.924  1.00  0.00     0.142 C 
ENDBRANCH  17  18
ENDBRANCH  16  17
ENDBRANCH  15  16
ENDBRANCH   7  15
BRANCH   1  21
HETATM   21  N2  UNL     1       9.462  27.530   1.597  1.00  0.00    -0.188 N 
ATOM     22  H2  UNL     1       9.207  28.417   2.029  1.00  0.00     0.185 HD
BRANCH  21  23
HETATM   23  C2  UNL     1      10.014  27.545   0.305  1.00  0.00     0.193 C 
HETATM   24  N1  UNL     1      10.975  28.345   0.015  1.00  0.00    -0.390 N 
HETATM   25  C1  UNL     1      11.479  29.229   1.041  1.00  0.00     0.147 C 
ATOM     26  H1  UNL     1      11.376  28.357  -0.923  1.00  0.00     0.159 HD
ENDBRANCH  21  23
ENDBRANCH   1  21
TORSDOF 6
ENDMDL
MODEL 5
REMARK VINA RESULT: -6.462043902      3.160      6.242
REMARK  6 active torsions:
REMARK  status: ('A' for Active; 'I' for Inactive)
REMARK    1  A    between atoms: C2_4  and  N2_5 
REMARK    2  A    between atoms: N2_5  and  C3_7 
REMARK    3  A    between atoms: N4_13  and  C7_15 
REMARK    4  A    between atoms: C7_15  and  C8_16 
REMARK    5  A    between atoms: C8_16  and  C9_17 
REMARK    6  A    between atoms: C9_17  and  N5_18 
ROOT
HETATM    1  C3  UNL     1       8.104  24.668   5.057  1.00  0.00     0.684 A 
HETATM    2  N3  UNL     1       8.732  23.506   4.827  1.00  0.00    -0.195 N 
ATOM      3  H3  UNL     1       8.701  22.765   5.528  1.00  0.00     0.184 HD
HETATM    4  C4  UNL     1       9.404  23.311   3.671  1.00  0.00     0.036 A 
HETATM    5  C5  UNL     1       9.439  24.330   2.718  1.00  0.00     0.009 A 
HETATM    6  C6  UNL     1       8.793  25.496   2.982  1.00  0.00     0.125 A 
HETATM    7  N4  UNL     1       8.770  26.476   2.230  1.00  0.00    -0.375 N 
ATOM      8  H4  UNL     1       8.217  27.210   2.672  1.00  0.00     0.161 HD
HETATM    9  N6  UNL     1       8.112  25.662   4.181  1.00  0.00    -0.176 N 
ATOM     10  H6  UNL     1       7.625  26.535   4.383  1.00  0.00     0.186 HD
HETATM   11  C12 UNL     1      10.188  24.002   1.499  1.00  0.00     0.044 C 
HETATM   12  C13 UNL     1       9.752  22.550   1.156  1.00  0.00     0.005 C 
HETATM   13  C14 UNL     1      10.478  21.655   2.122  1.00  0.00     0.006 C 
HETATM   14  C15 UNL     1      10.083  22.005   3.510  1.00  0.00     0.058 C 
ENDROOT
BRANCH   7  15
HETATM   15  C7  UNL     1       9.212  26.937   1.028  1.00  0.00     0.123 C 
BRANCH  15  16
HETATM   16  C8  UNL     1      10.382  27.931   1.308  1.00  0.00     0.039 C 
BRANCH  16  17
HETATM   17  C9  UNL     1      11.621  27.476   0.599  1.00  0.00     0.117 C 
BRANCH  17  18
HETATM   18  N5  UNL     1      12.732  27.551   1.494  1.00  0.00    -0.421 N 
HETATM   19  C10 UNL     1      13.281  28.862   1.652  1.00  0.00     0.142 C 
HETATM   20  C11 UNL     1      12.628  26.801   2.696  1.00  0.00     0.142 C 
ENDBRANCH  17  18
ENDBRANCH  16  17
ENDBRANCH  15  16
ENDBRANCH   7  15
BRANCH   1  21
HETATM   21  N2  UNL     1       7.460  24.857   6.164  1.00  0.00    -0.188 N 
ATOM     22  H2  UNL     1       7.845  24.467   7.024  1.00  0.00     0.185 HD
BRANCH  21  23
HETATM   23  C2  UNL     1       6.254  25.575   6.233  1.00  0.00     0.193 C 
HETATM   24  N1  UNL     1       5.211  25.051   6.767  1.00  0.00    -0.390 N 
HETATM   25  C1  UNL     1       5.300  23.710   7.296  1.00  0.00     0.147 C 
ATOM     26  H1  UNL     1       4.335  25.572   6.816  1.00  0.00     0.159 HD
ENDBRANCH  21  23
ENDBRANCH   1  21
TORSDOF 6
ENDMDL
