MODEL 1
REMARK VINA RESULT: -7.104170682      0.000      0.000
REMARK  11 active torsions:
REMARK  status: ('A' for Active; 'I' for Inactive)
REMARK    1  A    between atoms: C2_2  and  C3_3 
REMARK    2  A    between atoms: C3_3  and  C4_4 
REMARK    3  A    between atoms: C4_4  and  C5_5 
REMARK    4  A    between atoms: C4_4  and  N1_10 
REMARK    5  A    between atoms: C5_5  and  C6_6 
REMARK    6  A    between atoms: C6_6  and  C7_7 
REMARK    7  A    between atoms: N1_10  and  C9_12 
REMARK    8  A    between atoms: C23_26  and  O3_27 
REMARK    9  A    between atoms: O3_27  and  C24_28 
REMARK   10  A    between atoms: C24_28  and  C25_30 
REMARK   11  A    between atoms: C25_30  and  O5_33 
ROOT
HETATM    1  C9  UNL     1      34.489  -1.642  19.268  1.00  0.00    -0.012 C 
HETATM    2  C10 UNL     1      34.049  -1.292  17.907  1.00  0.00     0.053 C 
HETATM    3  C11 UNL     1      35.177  -0.909  16.973  1.00  0.00     0.019 C 
HETATM    4  C12 UNL     1      36.274  -0.063  17.545  1.00  0.00    -0.016 C 
HETATM    5  C13 UNL     1      37.554  -0.900  17.482  1.00  0.00     0.020 C 
HETATM    6  C14 UNL     1      35.969   0.325  18.941  1.00  0.00    -0.070 C 
HETATM    7  C15 UNL     1      36.049   1.551  19.445  1.00  0.00    -0.022 C 
HETATM    8  C16 UNL     1      36.493   2.711  18.580  1.00  0.00     0.033 C 
HETATM    9  C17 UNL     1      37.529   1.982  17.704  1.00  0.00    -0.001 C 
HETATM   10  C18 UNL     1      36.603   1.179  16.783  1.00  0.00     0.003 C 
HETATM   11  C19 UNL     1      37.280   1.050  15.473  1.00  0.00     0.007 C 
HETATM   12  C20 UNL     1      37.321   2.487  14.912  1.00  0.00     0.012 C 
HETATM   13  C21 UNL     1      38.341   3.269  15.675  1.00  0.00    -0.013 C 
HETATM   14  C22 UNL     1      39.667   3.042  14.897  1.00  0.00     0.018 C 
HETATM   15  C23 UNL     1      38.135   4.749  15.709  1.00  0.00     0.140 C 
HETATM   16  C28 UNL     1      37.955   5.084  17.222  1.00  0.00     0.034 C 
HETATM   17  C29 UNL     1      38.866   4.085  17.832  1.00  0.00     0.008 C 
HETATM   18  C30 UNL     1      38.556   2.779  17.076  1.00  0.00     0.001 C 
HETATM   19  C31 UNL     1      35.609  -0.816  19.848  1.00  0.00     0.087 C 
ENDROOT
BRANCH   1  20
HETATM   20  N1  UNL     1      34.427  -2.933  19.804  1.00  0.00    -0.387 N 
HETATM   21  C8  UNL     1      35.532  -3.478  20.463  1.00  0.00     0.149 C 
BRANCH  20  22
HETATM   22  C4  UNL     1      33.206  -3.587  20.033  1.00  0.00     0.084 C 
BRANCH  22  23
HETATM   23  C3  UNL     1      31.930  -2.876  20.138  1.00  0.00     0.025 C 
BRANCH  23  24
HETATM   24  C2  UNL     1      31.036  -3.087  18.946  1.00  0.00    -0.002 C 
HETATM   25  C1  UNL     1      29.565  -3.088  19.388  1.00  0.00     0.005 C 
ENDBRANCH  23  24
ENDBRANCH  22  23
BRANCH  22  26
HETATM   26  C5  UNL     1      33.425  -4.609  21.187  1.00  0.00     0.035 C 
BRANCH  26  27
HETATM   27  C6  UNL     1      32.529  -4.200  22.339  1.00  0.00     0.115 C 
BRANCH  27  28
HETATM   28  C7  UNL     1      33.295  -3.420  23.349  1.00  0.00     0.172 C 
HETATM   29  O1  UNL     1      33.044  -2.184  23.477  1.00  0.00    -0.648 OA
HETATM   30  O2  UNL     1      34.278  -3.953  24.172  1.00  0.00    -0.648 OA
ENDBRANCH  27  28
ENDBRANCH  26  27
ENDBRANCH  22  26
ENDBRANCH  20  22
ENDBRANCH   1  20
BRANCH  15  31
HETATM   31  O3  UNL     1      39.248   5.478  15.251  1.00  0.00    -0.313 OA
BRANCH  31  32
HETATM   32  C24 UNL     1      39.421   6.817  15.404  1.00  0.00     0.293 C 
HETATM   33  O4  UNL     1      38.491   7.577  15.004  1.00  0.00    -0.262 OA
BRANCH  32  34
HETATM   34  C25 UNL     1      40.681   7.313  16.036  1.00  0.00     0.138 C 
HETATM   35  C26 UNL     1      41.558   6.054  16.247  1.00  0.00     0.056 C 
HETATM   36  C27 UNL     1      40.386   7.818  17.420  1.00  0.00     0.056 C 
BRANCH  34  37
HETATM   37  O5  UNL     1      41.352   8.213  15.261  1.00  0.00    -0.380 OA
ATOM     38  H5  UNL     1      40.812   8.944  14.984  1.00  0.00     0.211 HD
ENDBRANCH  34  37
ENDBRANCH  32  34
ENDBRANCH  31  32
ENDBRANCH  15  31
TORSDOF 11
ENDMDL
MODEL 2
REMARK VINA RESULT: -6.974391290      1.146      2.048
REMARK  11 active torsions:
REMARK  status: ('A' for Active; 'I' for Inactive)
REMARK    1  A    between atoms: C2_2  and  C3_3 
REMARK    2  A    between atoms: C3_3  and  C4_4 
REMARK    3  A    between atoms: C4_4  and  C5_5 
REMARK    4  A    between atoms: C4_4  and  N1_10 
REMARK    5  A    between atoms: C5_5  and  C6_6 
REMARK    6  A    between atoms: C6_6  and  C7_7 
REMARK    7  A    between atoms: N1_10  and  C9_12 
REMARK    8  A    between atoms: C23_26  and  O3_27 
REMARK    9  A    between atoms: O3_27  and  C24_28 
REMARK   10  A    between atoms: C24_28  and  C25_30 
REMARK   11  A    between atoms: C25_30  and  O5_33 
ROOT
HETATM    1  C9  UNL     1      34.074  -1.938  19.159  1.00  0.00    -0.012 C 
HETATM    2  C10 UNL     1      33.605  -1.396  17.872  1.00  0.00     0.053 C 
HETATM    3  C11 UNL     1      34.719  -0.968  16.941  1.00  0.00     0.019 C 
HETATM    4  C12 UNL     1      35.888  -0.265  17.561  1.00  0.00    -0.016 C 
HETATM    5  C13 UNL     1      37.109  -1.162  17.338  1.00  0.00     0.020 C 
HETATM    6  C14 UNL     1      35.663  -0.037  19.006  1.00  0.00    -0.070 C 
HETATM    7  C15 UNL     1      35.841   1.111  19.651  1.00  0.00    -0.022 C 
HETATM    8  C16 UNL     1      36.325   2.341  18.913  1.00  0.00     0.033 C 
HETATM    9  C17 UNL     1      37.278   1.666  17.908  1.00  0.00    -0.001 C 
HETATM   10  C18 UNL     1      36.267   1.040  16.941  1.00  0.00     0.003 C 
HETATM   11  C19 UNL     1      36.884   1.035  15.595  1.00  0.00     0.007 C 
HETATM   12  C20 UNL     1      36.996   2.525  15.211  1.00  0.00     0.012 C 
HETATM   13  C21 UNL     1      38.092   3.145  16.016  1.00  0.00    -0.013 C 
HETATM   14  C22 UNL     1      39.370   2.939  15.156  1.00  0.00     0.018 C 
HETATM   15  C23 UNL     1      37.983   4.619  16.239  1.00  0.00     0.140 C 
HETATM   16  C28 UNL     1      37.883   4.774  17.788  1.00  0.00     0.034 C 
HETATM   17  C29 UNL     1      38.751   3.655  18.230  1.00  0.00     0.008 C 
HETATM   18  C30 UNL     1      38.329   2.473  17.335  1.00  0.00     0.001 C 
HETATM   19  C31 UNL     1      35.265  -1.258  19.783  1.00  0.00     0.087 C 
ENDROOT
BRANCH   1  20
HETATM   20  N1  UNL     1      33.949  -3.279  19.537  1.00  0.00    -0.387 N 
HETATM   21  C8  UNL     1      33.569  -4.244  18.601  1.00  0.00     0.149 C 
BRANCH  20  22
HETATM   22  C4  UNL     1      34.525  -3.778  20.717  1.00  0.00     0.084 C 
BRANCH  22  23
HETATM   23  C3  UNL     1      35.531  -4.841  20.723  1.00  0.00     0.025 C 
BRANCH  23  24
HETATM   24  C2  UNL     1      36.350  -4.873  21.986  1.00  0.00    -0.002 C 
HETATM   25  C1  UNL     1      37.047  -3.522  22.193  1.00  0.00     0.005 C 
ENDBRANCH  23  24
ENDBRANCH  22  23
BRANCH  22  26
HETATM   26  C5  UNL     1      33.375  -4.027  21.736  1.00  0.00     0.035 C 
BRANCH  26  27
HETATM   27  C6  UNL     1      33.208  -2.763  22.556  1.00  0.00     0.115 C 
BRANCH  27  28
HETATM   28  C7  UNL     1      33.189  -3.079  24.010  1.00  0.00     0.172 C 
HETATM   29  O1  UNL     1      34.072  -3.865  24.471  1.00  0.00    -0.648 OA
HETATM   30  O2  UNL     1      32.265  -2.570  24.913  1.00  0.00    -0.648 OA
ENDBRANCH  27  28
ENDBRANCH  26  27
ENDBRANCH  22  26
ENDBRANCH  20  22
ENDBRANCH   1  20
BRANCH  15  31
HETATM   31  O3  UNL     1      39.122   5.332  15.822  1.00  0.00    -0.313 OA
BRANCH  31  32
HETATM   32  C24 UNL     1      39.320   6.664  16.007  1.00  0.00     0.293 C 
HETATM   33  O4  UNL     1      38.411   7.451  15.613  1.00  0.00    -0.262 OA
BRANCH  32  34
HETATM   34  C25 UNL     1      40.582   7.119  16.666  1.00  0.00     0.138 C 
HETATM   35  C26 UNL     1      41.450   5.845  16.817  1.00  0.00     0.056 C 
HETATM   36  C27 UNL     1      40.287   7.559  18.071  1.00  0.00     0.056 C 
BRANCH  34  37
HETATM   37  O5  UNL     1      41.261   8.051  15.936  1.00  0.00    -0.380 OA
ATOM     38  H5  UNL     1      42.203   7.999  16.049  1.00  0.00     0.211 HD
ENDBRANCH  34  37
ENDBRANCH  32  34
ENDBRANCH  31  32
ENDBRANCH  15  31
TORSDOF 11
ENDMDL
MODEL 3
REMARK VINA RESULT: -6.689537575      1.004      1.267
REMARK  11 active torsions:
REMARK  status: ('A' for Active; 'I' for Inactive)
REMARK    1  A    between atoms: C2_2  and  C3_3 
REMARK    2  A    between atoms: C3_3  and  C4_4 
REMARK    3  A    between atoms: C4_4  and  C5_5 
REMARK    4  A    between atoms: C4_4  and  N1_10 
REMARK    5  A    between atoms: C5_5  and  C6_6 
REMARK    6  A    between atoms: C6_6  and  C7_7 
REMARK    7  A    between atoms: N1_10  and  C9_12 
REMARK    8  A    between atoms: C23_26  and  O3_27 
REMARK    9  A    between atoms: O3_27  and  C24_28 
REMARK   10  A    between atoms: C24_28  and  C25_30 
REMARK   11  A    between atoms: C25_30  and  O5_33 
ROOT
HETATM    1  C9  UNL     1      34.559  -1.573  19.259  1.00  0.00    -0.012 C 
HETATM    2  C10 UNL     1      34.119  -1.252  17.890  1.00  0.00     0.053 C 
HETATM    3  C11 UNL     1      35.247  -0.874  16.954  1.00  0.00     0.019 C 
HETATM    4  C12 UNL     1      36.331  -0.005  17.514  1.00  0.00    -0.016 C 
HETATM    5  C13 UNL     1      37.621  -0.829  17.470  1.00  0.00     0.020 C 
HETATM    6  C14 UNL     1      36.018   0.404  18.902  1.00  0.00    -0.070 C 
HETATM    7  C15 UNL     1      36.082   1.640  19.384  1.00  0.00    -0.022 C 
HETATM    8  C16 UNL     1      36.516   2.789  18.500  1.00  0.00     0.033 C 
HETATM    9  C17 UNL     1      37.564   2.056  17.640  1.00  0.00    -0.001 C 
HETATM   10  C18 UNL     1      36.649   1.226  16.731  1.00  0.00     0.003 C 
HETATM   11  C19 UNL     1      37.333   1.082  15.425  1.00  0.00     0.007 C 
HETATM   12  C20 UNL     1      37.360   2.509  14.839  1.00  0.00     0.012 C 
HETATM   13  C21 UNL     1      38.368   3.316  15.592  1.00  0.00    -0.013 C 
HETATM   14  C22 UNL     1      39.699   3.090  14.822  1.00  0.00     0.018 C 
HETATM   15  C23 UNL     1      38.145   4.794  15.598  1.00  0.00     0.140 C 
HETATM   16  C28 UNL     1      37.956   5.154  17.105  1.00  0.00     0.034 C 
HETATM   17  C29 UNL     1      38.877   4.176  17.735  1.00  0.00     0.008 C 
HETATM   18  C30 UNL     1      38.584   2.853  17.001  1.00  0.00     0.001 C 
HETATM   19  C31 UNL     1      35.667  -0.725  19.828  1.00  0.00     0.087 C 
ENDROOT
BRANCH   1  20
HETATM   20  N1  UNL     1      34.509  -2.855  19.817  1.00  0.00    -0.387 N 
HETATM   21  C8  UNL     1      35.602  -3.358  20.529  1.00  0.00     0.149 C 
BRANCH  20  22
HETATM   22  C4  UNL     1      33.297  -3.536  20.013  1.00  0.00     0.084 C 
BRANCH  22  23
HETATM   23  C3  UNL     1      32.008  -2.852  20.119  1.00  0.00     0.025 C 
BRANCH  23  24
HETATM   24  C2  UNL     1      31.126  -3.062  18.917  1.00  0.00    -0.002 C 
HETATM   25  C1  UNL     1      29.652  -3.087  19.346  1.00  0.00     0.005 C 
ENDBRANCH  23  24
ENDBRANCH  22  23
BRANCH  22  26
HETATM   26  C5  UNL     1      33.520  -4.584  21.143  1.00  0.00     0.035 C 
BRANCH  26  27
HETATM   27  C6  UNL     1      32.517  -4.293  22.242  1.00  0.00     0.115 C 
BRANCH  27  28
HETATM   28  C7  UNL     1      33.201  -3.753  23.448  1.00  0.00     0.172 C 
HETATM   29  O1  UNL     1      32.549  -2.995  24.227  1.00  0.00    -0.648 OA
HETATM   30  O2  UNL     1      34.520  -4.022  23.790  1.00  0.00    -0.648 OA
ENDBRANCH  27  28
ENDBRANCH  26  27
ENDBRANCH  22  26
ENDBRANCH  20  22
ENDBRANCH   1  20
BRANCH  15  31
HETATM   31  O3  UNL     1      39.252   5.527  15.131  1.00  0.00    -0.313 OA
BRANCH  31  32
HETATM   32  C24 UNL     1      39.185   6.580  14.275  1.00  0.00     0.293 C 
HETATM   33  O4  UNL     1      38.259   7.423  14.455  1.00  0.00    -0.262 OA
BRANCH  32  34
HETATM   34  C25 UNL     1      40.203   6.688  13.185  1.00  0.00     0.138 C 
HETATM   35  C26 UNL     1      39.744   5.689  12.094  1.00  0.00     0.056 C 
HETATM   36  C27 UNL     1      41.521   6.156  13.671  1.00  0.00     0.056 C 
BRANCH  34  37
HETATM   37  O5  UNL     1      40.286   7.941  12.652  1.00  0.00    -0.380 OA
ATOM     38  H5  UNL     1      40.939   8.485  13.076  1.00  0.00     0.211 HD
ENDBRANCH  34  37
ENDBRANCH  32  34
ENDBRANCH  31  32
ENDBRANCH  15  31
TORSDOF 11
ENDMDL
MODEL 4
REMARK VINA RESULT: -6.647166504      2.866     10.251
REMARK  11 active torsions:
REMARK  status: ('A' for Active; 'I' for Inactive)
REMARK    1  A    between atoms: C2_2  and  C3_3 
REMARK    2  A    between atoms: C3_3  and  C4_4 
REMARK    3  A    between atoms: C4_4  and  C5_5 
REMARK    4  A    between atoms: C4_4  and  N1_10 
REMARK    5  A    between atoms: C5_5  and  C6_6 
REMARK    6  A    between atoms: C6_6  and  C7_7 
REMARK    7  A    between atoms: N1_10  and  C9_12 
REMARK    8  A    between atoms: C23_26  and  O3_27 
REMARK    9  A    between atoms: O3_27  and  C24_28 
REMARK   10  A    between atoms: C24_28  and  C25_30 
REMARK   11  A    between atoms: C25_30  and  O5_33 
ROOT
HETATM    1  C9  UNL     1      38.270   6.079  15.472  1.00  0.00    -0.012 C 
HETATM    2  C10 UNL     1      37.436   6.227  16.677  1.00  0.00     0.053 C 
HETATM    3  C11 UNL     1      37.614   5.116  17.690  1.00  0.00     0.019 C 
HETATM    4  C12 UNL     1      37.748   3.723  17.154  1.00  0.00    -0.016 C 
HETATM    5  C13 UNL     1      39.147   3.236  17.542  1.00  0.00     0.020 C 
HETATM    6  C14 UNL     1      37.576   3.704  15.683  1.00  0.00    -0.070 C 
HETATM    7  C15 UNL     1      36.792   2.876  15.001  1.00  0.00    -0.022 C 
HETATM    8  C16 UNL     1      35.976   1.822  15.718  1.00  0.00     0.033 C 
HETATM    9  C17 UNL     1      36.966   1.471  16.846  1.00  0.00    -0.001 C 
HETATM   10  C18 UNL     1      36.823   2.708  17.740  1.00  0.00     0.003 C 
HETATM   11  C19 UNL     1      37.039   2.273  19.139  1.00  0.00     0.007 C 
HETATM   12  C20 UNL     1      35.836   1.360  19.454  1.00  0.00     0.012 C 
HETATM   13  C21 UNL     1      36.016   0.065  18.730  1.00  0.00    -0.013 C 
HETATM   14  C22 UNL     1      36.815  -0.826  19.722  1.00  0.00     0.018 C 
HETATM   15  C23 UNL     1      34.763  -0.688  18.423  1.00  0.00     0.140 C 
HETATM   16  C28 UNL     1      34.731  -0.775  16.865  1.00  0.00     0.034 C 
HETATM   17  C29 UNL     1      36.181  -0.882  16.569  1.00  0.00     0.008 C 
HETATM   18  C30 UNL     1      36.831   0.180  17.477  1.00  0.00     0.001 C 
HETATM   19  C31 UNL     1      38.436   4.680  14.934  1.00  0.00     0.087 C 
ENDROOT
BRANCH   1  20
HETATM   20  N1  UNL     1      39.343   6.918  15.153  1.00  0.00    -0.387 N 
HETATM   21  C8  UNL     1      39.114   8.166  14.567  1.00  0.00     0.149 C 
BRANCH  20  22
HETATM   22  C4  UNL     1      40.620   6.739  15.709  1.00  0.00     0.084 C 
BRANCH  22  23
HETATM   23  C3  UNL     1      41.388   5.502  15.555  1.00  0.00     0.025 C 
BRANCH  23  24
HETATM   24  C2  UNL     1      42.503   5.619  14.551  1.00  0.00    -0.002 C 
HETATM   25  C1  UNL     1      43.701   6.343  15.180  1.00  0.00     0.005 C 
ENDBRANCH  23  24
ENDBRANCH  22  23
BRANCH  22  26
HETATM   26  C5  UNL     1      40.571   7.240  17.181  1.00  0.00     0.035 C 
BRANCH  26  27
HETATM   27  C6  UNL     1      41.263   6.202  18.043  1.00  0.00     0.115 C 
BRANCH  27  28
HETATM   28  C7  UNL     1      40.925   6.401  19.478  1.00  0.00     0.172 C 
HETATM   29  O1  UNL     1      39.774   6.842  19.775  1.00  0.00    -0.648 OA
HETATM   30  O2  UNL     1      41.790   6.137  20.532  1.00  0.00    -0.648 OA
ENDBRANCH  27  28
ENDBRANCH  26  27
ENDBRANCH  22  26
ENDBRANCH  20  22
ENDBRANCH   1  20
BRANCH  15  31
HETATM   31  O3  UNL     1      34.770  -2.007  18.912  1.00  0.00    -0.313 OA
BRANCH  31  32
HETATM   32  C24 UNL     1      33.677  -2.681  19.357  1.00  0.00     0.293 C 
HETATM   33  O4  UNL     1      32.633  -2.639  18.644  1.00  0.00    -0.262 OA
BRANCH  32  34
HETATM   34  C25 UNL     1      33.769  -3.433  20.646  1.00  0.00     0.138 C 
HETATM   35  C26 UNL     1      33.919  -2.350  21.744  1.00  0.00     0.056 C 
HETATM   36  C27 UNL     1      35.054  -4.209  20.687  1.00  0.00     0.056 C 
BRANCH  34  37
HETATM   37  O5  UNL     1      32.666  -4.194  20.903  1.00  0.00    -0.380 OA
ATOM     38  H5  UNL     1      32.468  -4.265  21.829  1.00  0.00     0.211 HD
ENDBRANCH  34  37
ENDBRANCH  32  34
ENDBRANCH  31  32
ENDBRANCH  15  31
TORSDOF 11
ENDMDL
MODEL 5
REMARK VINA RESULT: -6.591711013      2.114      2.707
REMARK  11 active torsions:
REMARK  status: ('A' for Active; 'I' for Inactive)
REMARK    1  A    between atoms: C2_2  and  C3_3 
REMARK    2  A    between atoms: C3_3  and  C4_4 
REMARK    3  A    between atoms: C4_4  and  C5_5 
REMARK    4  A    between atoms: C4_4  and  N1_10 
REMARK    5  A    between atoms: C5_5  and  C6_6 
REMARK    6  A    between atoms: C6_6  and  C7_7 
REMARK    7  A    between atoms: N1_10  and  C9_12 
REMARK    8  A    between atoms: C23_26  and  O3_27 
REMARK    9  A    between atoms: O3_27  and  C24_28 
REMARK   10  A    between atoms: C24_28  and  C25_30 
REMARK   11  A    between atoms: C25_30  and  O5_33 
ROOT
HETATM    1  C9  UNL     1      35.310  -0.753  19.403  1.00  0.00    -0.012 C 
HETATM    2  C10 UNL     1      34.924  -0.851  17.985  1.00  0.00     0.053 C 
HETATM    3  C11 UNL     1      36.074  -0.661  17.019  1.00  0.00     0.019 C 
HETATM    4  C12 UNL     1      37.073   0.405  17.354  1.00  0.00    -0.016 C 
HETATM    5  C13 UNL     1      38.411  -0.303  17.583  1.00  0.00     0.020 C 
HETATM    6  C14 UNL     1      36.662   1.153  18.564  1.00  0.00    -0.070 C 
HETATM    7  C15 UNL     1      36.625   2.475  18.688  1.00  0.00    -0.022 C 
HETATM    8  C16 UNL     1      37.033   3.368  17.536  1.00  0.00     0.033 C 
HETATM    9  C17 UNL     1      38.168   2.507  16.948  1.00  0.00    -0.001 C 
HETATM   10  C18 UNL     1      37.355   1.395  16.273  1.00  0.00     0.003 C 
HETATM   11  C19 UNL     1      38.114   0.951  15.082  1.00  0.00     0.007 C 
HETATM   12  C20 UNL     1      38.084   2.161  14.126  1.00  0.00     0.012 C 
HETATM   13  C21 UNL     1      39.000   3.215  14.660  1.00  0.00    -0.013 C 
HETATM   14  C22 UNL     1      40.381   2.886  14.028  1.00  0.00     0.018 C 
HETATM   15  C23 UNL     1      38.687   4.618  14.251  1.00  0.00     0.140 C 
HETATM   16  C28 UNL     1      38.397   5.360  15.592  1.00  0.00     0.034 C 
HETATM   17  C29 UNL     1      39.341   4.663  16.498  1.00  0.00     0.008 C 
HETATM   18  C30 UNL     1      39.169   3.172  16.149  1.00  0.00     0.001 C 
HETATM   19  C31 UNL     1      36.333   0.298  19.753  1.00  0.00     0.087 C 
ENDROOT
BRANCH   1  20
HETATM   20  N1  UNL     1      35.310  -1.833  20.292  1.00  0.00    -0.387 N 
HETATM   21  C8  UNL     1      36.471  -2.174  20.990  1.00  0.00     0.149 C 
BRANCH  20  22
HETATM   22  C4  UNL     1      34.120  -2.383  20.797  1.00  0.00     0.084 C 
BRANCH  22  23
HETATM   23  C3  UNL     1      33.982  -2.848  22.178  1.00  0.00     0.025 C 
BRANCH  23  24
HETATM   24  C2  UNL     1      32.911  -2.118  22.944  1.00  0.00    -0.002 C 
HETATM   25  C1  UNL     1      32.767  -2.722  24.348  1.00  0.00     0.005 C 
ENDBRANCH  23  24
ENDBRANCH  22  23
BRANCH  22  26
HETATM   26  C5  UNL     1      33.597  -3.415  19.757  1.00  0.00     0.035 C 
BRANCH  26  27
HETATM   27  C6  UNL     1      32.152  -3.069  19.454  1.00  0.00     0.115 C 
BRANCH  27  28
HETATM   28  C7  UNL     1      31.972  -2.791  18.003  1.00  0.00     0.172 C 
HETATM   29  O1  UNL     1      31.132  -1.907  17.655  1.00  0.00    -0.648 OA
HETATM   30  O2  UNL     1      32.665  -3.436  16.988  1.00  0.00    -0.648 OA
ENDBRANCH  27  28
ENDBRANCH  26  27
ENDBRANCH  22  26
ENDBRANCH  20  22
ENDBRANCH   1  20
BRANCH  15  31
HETATM   31  O3  UNL     1      39.770   5.274  13.637  1.00  0.00    -0.313 OA
BRANCH  31  32
HETATM   32  C24 UNL     1      39.800   6.594  13.314  1.00  0.00     0.293 C 
HETATM   33  O4  UNL     1      38.835   7.054  12.636  1.00  0.00    -0.262 OA
BRANCH  32  34
HETATM   34  C25 UNL     1      40.954   7.423  13.778  1.00  0.00     0.138 C 
HETATM   35  C26 UNL     1      41.937   6.424  14.439  1.00  0.00     0.056 C 
HETATM   36  C27 UNL     1      40.510   8.327  14.892  1.00  0.00     0.056 C 
BRANCH  34  37
HETATM   37  O5  UNL     1      41.585   8.080  12.763  1.00  0.00    -0.380 OA
ATOM     38  H5  UNL     1      42.194   8.743  13.068  1.00  0.00     0.211 HD
ENDBRANCH  34  37
ENDBRANCH  32  34
ENDBRANCH  31  32
ENDBRANCH  15  31
TORSDOF 11
ENDMDL
