MODEL 1
REMARK VINA RESULT: -6.364347205      0.000      0.000
REMARK  6 active torsions:
REMARK  status: ('A' for Active; 'I' for Inactive)
REMARK    1  A    between atoms: C2_2  and  C4_4 
REMARK    2  A    between atoms: C5_7  and  C6_8 
REMARK    3  A    between atoms: C6_8  and  C7_9 
REMARK    4  A    between atoms: C7_9  and  O1_10 
REMARK    5  A    between atoms: C10_14  and  C11_15 
REMARK    6  A    between atoms: C11_15  and  N2_16 
ROOT
HETATM    1  C7  UNL     1      45.105  11.911   0.254  1.00  0.00     0.064 C 
HETATM    2  C8  UNL     1      44.526  11.928  -1.127  1.00  0.00     0.038 C 
HETATM    3  C9  UNL     1      45.130  10.836  -1.955  1.00  0.00     0.009 C 
HETATM    4  C10 UNL     1      45.076   9.479  -1.347  1.00  0.00     0.011 C 
HETATM    5  C12 UNL     1      45.220   9.423   0.131  1.00  0.00     0.009 C 
HETATM    6  C13 UNL     1      44.630  10.580   0.869  1.00  0.00     0.038 C 
ENDROOT
BRANCH   1   7
HETATM    7  C6  UNL     1      44.602  12.965   1.173  1.00  0.00     0.116 C 
BRANCH   7   8
HETATM    8  C5  UNL     1      45.558  13.433   2.182  1.00  0.00     0.106 A 
HETATM    9  N1  UNL     1      45.590  14.692   2.649  1.00  0.00    -0.326 N 
HETATM   10  C4  UNL     1      46.551  14.827   3.550  1.00  0.00     0.151 A 
ATOM     11  H1  UNL     1      44.962  15.439   2.352  1.00  0.00     0.169 HD
HETATM   12  O2  UNL     1      47.126  13.654   3.652  1.00  0.00    -0.223 OA
HETATM   13  N3  UNL     1      46.544  12.796   2.836  1.00  0.00    -0.247 N 
ATOM     14  H3  UNL     1      46.798  11.815   2.722  1.00  0.00     0.196 HD
BRANCH  10  15
HETATM   15  C2  UNL     1      46.922  16.071   4.313  1.00  0.00     0.055 C 
HETATM   16  C1  UNL     1      46.239  17.273   3.711  1.00  0.00     0.018 C 
HETATM   17  C3  UNL     1      48.415  16.299   4.229  1.00  0.00     0.018 C 
ENDBRANCH  10  15
ENDBRANCH   7   8
ENDBRANCH   1   7
BRANCH   1  18
HETATM   18  O1  UNL     1      46.502  11.894   0.159  1.00  0.00    -0.389 OA
ATOM     19  H1  UNL     1      46.821  11.264  -0.477  1.00  0.00     0.210 HD
ENDBRANCH   1  18
BRANCH   4  20
HETATM   20  C11 UNL     1      43.847   8.707  -1.794  1.00  0.00     0.234 C 
BRANCH  20  21
HETATM   21  N2  UNL     1      44.155   8.024  -3.022  1.00  0.00    -0.079 N 
ATOM     22  H23 UNL     1      44.953   8.435  -3.507  1.00  0.00     0.274 HD
ATOM     23  H22 UNL     1      44.549   7.096  -2.865  1.00  0.00     0.274 HD
ATOM     24  H21 UNL     1      43.316   8.000  -3.601  1.00  0.00     0.274 HD
ENDBRANCH  20  21
ENDBRANCH   4  20
TORSDOF 6
ENDMDL
MODEL 2
REMARK VINA RESULT: -6.308797347      1.584      2.079
REMARK  6 active torsions:
REMARK  status: ('A' for Active; 'I' for Inactive)
REMARK    1  A    between atoms: C2_2  and  C4_4 
REMARK    2  A    between atoms: C5_7  and  C6_8 
REMARK    3  A    between atoms: C6_8  and  C7_9 
REMARK    4  A    between atoms: C7_9  and  O1_10 
REMARK    5  A    between atoms: C10_14  and  C11_15 
REMARK    6  A    between atoms: C11_15  and  N2_16 
ROOT
HETATM    1  C7  UNL     1      45.040  11.906   0.790  1.00  0.00     0.064 C 
HETATM    2  C8  UNL     1      46.498  11.560   0.816  1.00  0.00     0.038 C 
HETATM    3  C9  UNL     1      46.679  10.105   1.119  1.00  0.00     0.009 C 
HETATM    4  C10 UNL     1      45.903   9.179   0.250  1.00  0.00     0.011 C 
HETATM    5  C12 UNL     1      44.567   9.661  -0.185  1.00  0.00     0.009 C 
HETATM    6  C13 UNL     1      44.469  11.133  -0.415  1.00  0.00     0.038 C 
ENDROOT
BRANCH   1   7
HETATM    7  C6  UNL     1      44.725  13.333   0.521  1.00  0.00     0.116 C 
BRANCH   7   8
HETATM    8  C5  UNL     1      44.784  14.224   1.684  1.00  0.00     0.106 A 
HETATM    9  N1  UNL     1      45.853  14.322   2.493  1.00  0.00    -0.326 N 
HETATM   10  C4  UNL     1      45.626  15.203   3.455  1.00  0.00     0.151 A 
ATOM     11  H1  UNL     1      46.717  13.792   2.382  1.00  0.00     0.169 HD
HETATM   12  O2  UNL     1      44.415  15.662   3.254  1.00  0.00    -0.223 OA
HETATM   13  N3  UNL     1      43.887  15.087   2.191  1.00  0.00    -0.247 N 
ATOM     14  H3  UNL     1      42.955  15.266   1.816  1.00  0.00     0.196 HD
BRANCH  10  15
HETATM   15  C2  UNL     1      46.560  15.608   4.565  1.00  0.00     0.055 C 
HETATM   16  C1  UNL     1      46.062  16.866   5.230  1.00  0.00     0.018 C 
HETATM   17  C3  UNL     1      47.933  15.899   4.000  1.00  0.00     0.018 C 
ENDBRANCH  10  15
ENDBRANCH   7   8
ENDBRANCH   1   7
BRANCH   1  18
HETATM   18  O1  UNL     1      44.441  11.428   1.962  1.00  0.00    -0.389 OA
ATOM     19  H1  UNL     1      43.558  11.108   1.820  1.00  0.00     0.210 HD
ENDBRANCH   1  18
BRANCH   4  20
HETATM   20  C11 UNL     1      46.715   8.708  -0.944  1.00  0.00     0.234 C 
BRANCH  20  21
HETATM   21  N2  UNL     1      45.811   8.360  -2.007  1.00  0.00    -0.079 N 
ATOM     22  H23 UNL     1      44.848   8.630  -1.805  1.00  0.00     0.274 HD
ATOM     23  H22 UNL     1      45.946   8.935  -2.839  1.00  0.00     0.274 HD
ATOM     24  H21 UNL     1      45.904   7.363  -2.202  1.00  0.00     0.274 HD
ENDBRANCH  20  21
ENDBRANCH   4  20
TORSDOF 6
ENDMDL
MODEL 3
REMARK VINA RESULT: -6.133940776      1.154      1.247
REMARK  6 active torsions:
REMARK  status: ('A' for Active; 'I' for Inactive)
REMARK    1  A    between atoms: C2_2  and  C4_4 
REMARK    2  A    between atoms: C5_7  and  C6_8 
REMARK    3  A    between atoms: C6_8  and  C7_9 
REMARK    4  A    between atoms: C7_9  and  O1_10 
REMARK    5  A    between atoms: C10_14  and  C11_15 
REMARK    6  A    between atoms: C11_15  and  N2_16 
ROOT
HETATM    1  C7  UNL     1      45.577  11.018   0.435  1.00  0.00     0.064 C 
HETATM    2  C8  UNL     1      46.448  11.456  -0.703  1.00  0.00     0.038 C 
HETATM    3  C9  UNL     1      47.132  10.273  -1.315  1.00  0.00     0.009 C 
HETATM    4  C10 UNL     1      46.231   9.154  -1.704  1.00  0.00     0.011 C 
HETATM    5  C12 UNL     1      45.058   8.927  -0.821  1.00  0.00     0.009 C 
HETATM    6  C13 UNL     1      44.473  10.161  -0.216  1.00  0.00     0.038 C 
ENDROOT
BRANCH   1   7
HETATM    7  C6  UNL     1      44.856  12.106   1.145  1.00  0.00     0.116 C 
BRANCH   7   8
HETATM    8  C5  UNL     1      45.644  12.844   2.137  1.00  0.00     0.106 A 
HETATM    9  N1  UNL     1      45.500  14.159   2.374  1.00  0.00    -0.326 N 
HETATM   10  C4  UNL     1      46.338  14.554   3.320  1.00  0.00     0.151 A 
ATOM     11  H1  UNL     1      44.838  14.767   1.892  1.00  0.00     0.169 HD
HETATM   12  O2  UNL     1      47.011  13.489   3.682  1.00  0.00    -0.223 OA
HETATM   13  N3  UNL     1      46.610  12.445   2.982  1.00  0.00    -0.247 N 
ATOM     14  H3  UNL     1      46.972  11.495   3.067  1.00  0.00     0.196 HD
BRANCH  10  15
HETATM   15  C2  UNL     1      46.497  15.943   3.880  1.00  0.00     0.055 C 
HETATM   16  C1  UNL     1      45.919  16.957   2.927  1.00  0.00     0.018 C 
HETATM   17  C3  UNL     1      47.966  16.260   4.054  1.00  0.00     0.018 C 
ENDBRANCH  10  15
ENDBRANCH   7   8
ENDBRANCH   1   7
BRANCH   1  18
HETATM   18  O1  UNL     1      46.330  10.211   1.296  1.00  0.00    -0.389 OA
ATOM     19  H1  UNL     1      45.884   9.406   1.531  1.00  0.00     0.210 HD
ENDBRANCH   1  18
BRANCH   4  20
HETATM   20  C11 UNL     1      45.796   9.255  -3.155  1.00  0.00     0.234 C 
BRANCH  20  21
HETATM   21  N2  UNL     1      44.757   8.288  -3.392  1.00  0.00    -0.079 N 
ATOM     22  H23 UNL     1      43.991   8.367  -2.724  1.00  0.00     0.274 HD
ATOM     23  H22 UNL     1      44.225   8.486  -4.240  1.00  0.00     0.274 HD
ATOM     24  H21 UNL     1      45.174   7.357  -3.400  1.00  0.00     0.274 HD
ENDBRANCH  20  21
ENDBRANCH   4  20
TORSDOF 6
ENDMDL
MODEL 4
REMARK VINA RESULT: -6.075484691      1.519      1.897
REMARK  6 active torsions:
REMARK  status: ('A' for Active; 'I' for Inactive)
REMARK    1  A    between atoms: C2_2  and  C4_4 
REMARK    2  A    between atoms: C5_7  and  C6_8 
REMARK    3  A    between atoms: C6_8  and  C7_9 
REMARK    4  A    between atoms: C7_9  and  O1_10 
REMARK    5  A    between atoms: C10_14  and  C11_15 
REMARK    6  A    between atoms: C11_15  and  N2_16 
ROOT
HETATM    1  C7  UNL     1      45.442  11.879   0.723  1.00  0.00     0.064 C 
HETATM    2  C8  UNL     1      45.710  12.402  -0.655  1.00  0.00     0.038 C 
HETATM    3  C9  UNL     1      46.801  11.608  -1.306  1.00  0.00     0.009 C 
HETATM    4  C10 UNL     1      46.598  10.134  -1.300  1.00  0.00     0.011 C 
HETATM    5  C12 UNL     1      45.922   9.575  -0.102  1.00  0.00     0.009 C 
HETATM    6  C13 UNL     1      44.883  10.458   0.509  1.00  0.00     0.038 C 
ENDROOT
BRANCH   1   7
HETATM    7  C6  UNL     1      44.390  12.598   1.488  1.00  0.00     0.116 C 
BRANCH   7   8
HETATM    8  C5  UNL     1      44.674  14.007   1.782  1.00  0.00     0.106 A 
HETATM    9  N1  UNL     1      45.595  14.410   2.673  1.00  0.00    -0.326 N 
HETATM   10  C4  UNL     1      45.636  15.733   2.728  1.00  0.00     0.151 A 
ATOM     11  H1  UNL     1      46.180  13.786   3.227  1.00  0.00     0.169 HD
HETATM   12  O2  UNL     1      44.742  16.165   1.873  1.00  0.00    -0.223 OA
HETATM   13  N3  UNL     1      44.148  15.141   1.289  1.00  0.00    -0.247 N 
ATOM     14  H3  UNL     1      43.414  15.201   0.583  1.00  0.00     0.196 HD
BRANCH  10  15
HETATM   15  C2  UNL     1      46.526  16.585   3.594  1.00  0.00     0.055 C 
HETATM   16  C1  UNL     1      47.827  15.872   3.863  1.00  0.00     0.018 C 
HETATM   17  C3  UNL     1      45.856  16.838   4.927  1.00  0.00     0.018 C 
ENDBRANCH  10  15
ENDBRANCH   7   8
ENDBRANCH   1   7
BRANCH   1  18
HETATM   18  O1  UNL     1      46.655  11.790   1.417  1.00  0.00    -0.389 OA
ATOM     19  H1  UNL     1      46.730  10.992   1.928  1.00  0.00     0.210 HD
ENDBRANCH   1  18
BRANCH   4  20
HETATM   20  C11 UNL     1      45.921   9.650  -2.570  1.00  0.00     0.234 C 
BRANCH  20  21
HETATM   21  N2  UNL     1      45.509   8.285  -2.381  1.00  0.00    -0.079 N 
ATOM     22  H23 UNL     1      45.633   7.720  -3.220  1.00  0.00     0.274 HD
ATOM     23  H22 UNL     1      46.141   7.768  -1.769  1.00  0.00     0.274 HD
ATOM     24  H21 UNL     1      44.546   8.279  -2.044  1.00  0.00     0.274 HD
ENDBRANCH  20  21
ENDBRANCH   4  20
TORSDOF 6
ENDMDL
MODEL 5
REMARK VINA RESULT: -6.069990733      1.241      1.820
REMARK  6 active torsions:
REMARK  status: ('A' for Active; 'I' for Inactive)
REMARK    1  A    between atoms: C2_2  and  C4_4 
REMARK    2  A    between atoms: C5_7  and  C6_8 
REMARK    3  A    between atoms: C6_8  and  C7_9 
REMARK    4  A    between atoms: C7_9  and  O1_10 
REMARK    5  A    between atoms: C10_14  and  C11_15 
REMARK    6  A    between atoms: C11_15  and  N2_16 
ROOT
HETATM    1  C7  UNL     1      45.496  10.993   0.859  1.00  0.00     0.064 C 
HETATM    2  C8  UNL     1      45.620   9.527   0.581  1.00  0.00     0.038 C 
HETATM    3  C9  UNL     1      44.490   9.068  -0.288  1.00  0.00     0.009 C 
HETATM    4  C10 UNL     1      44.293   9.855  -1.535  1.00  0.00     0.011 C 
HETATM    5  C12 UNL     1      44.578  11.309  -1.438  1.00  0.00     0.009 C 
HETATM    6  C13 UNL     1      45.689  11.676  -0.509  1.00  0.00     0.038 C 
ENDROOT
BRANCH   1   7
HETATM    7  C6  UNL     1      46.549  11.571   1.734  1.00  0.00     0.116 C 
BRANCH   7   8
HETATM    8  C5  UNL     1      46.241  12.884   2.312  1.00  0.00     0.106 A 
HETATM    9  N1  UNL     1      46.970  13.458   3.284  1.00  0.00    -0.326 N 
HETATM   10  C4  UNL     1      46.462  14.637   3.607  1.00  0.00     0.151 A 
ATOM     11  H1  UNL     1      47.797  13.044   3.712  1.00  0.00     0.169 HD
HETATM   12  O2  UNL     1      45.413  14.808   2.839  1.00  0.00    -0.223 OA
HETATM   13  N3  UNL     1      45.260  13.763   2.049  1.00  0.00    -0.247 N 
ATOM     14  H3  UNL     1      44.522  13.643   1.355  1.00  0.00     0.196 HD
BRANCH  10  15
HETATM   15  C2  UNL     1      46.973  15.601   4.645  1.00  0.00     0.055 C 
HETATM   16  C1  UNL     1      45.958  16.688   4.890  1.00  0.00     0.018 C 
HETATM   17  C3  UNL     1      48.243  16.259   4.153  1.00  0.00     0.018 C 
ENDBRANCH  10  15
ENDBRANCH   7   8
ENDBRANCH   1   7
BRANCH   1  18
HETATM   18  O1  UNL     1      44.200  11.259   1.320  1.00  0.00    -0.389 OA
ATOM     19  H1  UNL     1      43.551  10.671   0.953  1.00  0.00     0.210 HD
ENDBRANCH   1  18
BRANCH   4  20
HETATM   20  C11 UNL     1      45.030   9.243  -2.713  1.00  0.00     0.234 C 
BRANCH  20  21
HETATM   21  N2  UNL     1      44.295   8.094  -3.169  1.00  0.00    -0.079 N 
ATOM     22  H23 UNL     1      43.966   7.511  -2.400  1.00  0.00     0.274 HD
ATOM     23  H22 UNL     1      43.385   8.342  -3.558  1.00  0.00     0.274 HD
ATOM     24  H21 UNL     1      44.875   7.578  -3.831  1.00  0.00     0.274 HD
ENDBRANCH  20  21
ENDBRANCH   4  20
TORSDOF 6
ENDMDL
