MODEL 1
REMARK VINA RESULT: -4.587757950      0.000      0.000
REMARK  5 active torsions:
REMARK  status: ('A' for Active; 'I' for Inactive)
REMARK    1  A    between atoms: N1_2  and  C2_3 
REMARK    2  A    between atoms: N1_2  and  C7_14 
REMARK    3  A    between atoms: C2_3  and  C3_4 
REMARK    4  A    between atoms: C3_4  and  C4_5 
REMARK    5  A    between atoms: C6_8  and  N2_9 
ROOT
HETATM    1  C4  UNL     1      45.345  15.579   3.212  1.00  0.00     0.019 A 
HETATM    2  C5  UNL     1      44.791  16.180   4.310  1.00  0.00     0.078 A 
HETATM    3  S1  UNL     1      46.155  16.734   5.160  1.00  0.00    -0.064 SA
HETATM    4  C6  UNL     1      47.356  16.181   4.089  1.00  0.00     0.142 A 
HETATM    5  N3  UNL     1      46.665  15.592   3.119  1.00  0.00    -0.340 N 
ATOM      6  H3  UNL     1      47.138  15.161   2.324  1.00  0.00     0.167 HD
ENDROOT
BRANCH   1   7
HETATM    7  C3  UNL     1      44.495  14.912   2.122  1.00  0.00     0.087 C 
BRANCH   7   8
HETATM    8  C2  UNL     1      45.060  13.564   1.854  1.00  0.00     0.278 C 
BRANCH   8   9
HETATM    9  N1  UNL     1      45.086  13.263   0.455  1.00  0.00     0.090 N 
HETATM   10  C1  UNL     1      44.395  14.289  -0.288  1.00  0.00     0.310 C 
BRANCH   9  11
HETATM   11  C7  UNL     1      44.628  11.946   0.194  1.00  0.00     0.242 C 
HETATM   12  C8  UNL     1      44.688  11.595  -1.289  1.00  0.00     0.122 C 
HETATM   13  S2  UNL     1      46.488  11.665  -1.688  1.00  0.00    -0.095 SA
HETATM   14  S3  UNL     1      47.120  11.064   0.302  1.00  0.00    -0.095 SA
HETATM   15  C9  UNL     1      45.392  10.872   0.918  1.00  0.00     0.122 C 
ENDBRANCH   9  11
ENDBRANCH   8   9
ENDBRANCH   7   8
ENDBRANCH   1   7
BRANCH   4  16
HETATM   16  N2  UNL     1      48.660  16.309   4.198  1.00  0.00    -0.380 N 
ATOM     17  H22 UNL     1      49.260  17.028   3.794  1.00  0.00     0.158 HD
ATOM     18  H21 UNL     1      49.309  15.710   4.708  1.00  0.00     0.158 HD
ENDBRANCH   4  16
TORSDOF 5
ENDMDL
MODEL 2
REMARK VINA RESULT: -4.532713391      1.810      5.821
REMARK  5 active torsions:
REMARK  status: ('A' for Active; 'I' for Inactive)
REMARK    1  A    between atoms: N1_2  and  C2_3 
REMARK    2  A    between atoms: N1_2  and  C7_14 
REMARK    3  A    between atoms: C2_3  and  C3_4 
REMARK    4  A    between atoms: C3_4  and  C4_5 
REMARK    5  A    between atoms: C6_8  and  N2_9 
ROOT
HETATM    1  C4  UNL     1      44.638  13.111   0.428  1.00  0.00     0.019 A 
HETATM    2  C5  UNL     1      44.633  12.139   1.392  1.00  0.00     0.078 A 
HETATM    3  S1  UNL     1      44.873  10.717   0.492  1.00  0.00    -0.064 SA
HETATM    4  C6  UNL     1      44.968  11.419  -1.056  1.00  0.00     0.142 A 
HETATM    5  N3  UNL     1      44.812  12.717  -0.823  1.00  0.00    -0.340 N 
ATOM      6  H3  UNL     1      44.826  13.393  -1.588  1.00  0.00     0.167 HD
ENDROOT
BRANCH   1   7
HETATM    7  C3  UNL     1      44.451  14.598   0.757  1.00  0.00     0.087 C 
BRANCH   7   8
HETATM    8  C2  UNL     1      44.155  14.718   2.208  1.00  0.00     0.278 C 
BRANCH   8   9
HETATM    9  N1  UNL     1      44.892  15.781   2.819  1.00  0.00     0.090 N 
HETATM   10  C1  UNL     1      44.611  17.029   2.153  1.00  0.00     0.310 C 
BRANCH   9  11
HETATM   11  C7  UNL     1      46.274  15.472   2.919  1.00  0.00     0.242 C 
HETATM   12  C8  UNL     1      47.093  16.644   3.450  1.00  0.00     0.122 C 
HETATM   13  S2  UNL     1      46.440  16.901   5.157  1.00  0.00    -0.095 SA
HETATM   14  S3  UNL     1      45.937  14.808   5.458  1.00  0.00    -0.095 SA
HETATM   15  C9  UNL     1      46.581  14.298   3.807  1.00  0.00     0.122 C 
ENDBRANCH   9  11
ENDBRANCH   8   9
ENDBRANCH   7   8
ENDBRANCH   1   7
BRANCH   4  16
HETATM   16  N2  UNL     1      45.153  10.814  -2.209  1.00  0.00    -0.380 N 
ATOM     17  H22 UNL     1      44.579  10.089  -2.641  1.00  0.00     0.158 HD
ATOM     18  H21 UNL     1      45.905  10.961  -2.882  1.00  0.00     0.158 HD
ENDBRANCH   4  16
TORSDOF 5
ENDMDL
MODEL 3
REMARK VINA RESULT: -4.345746671      1.640      5.529
REMARK  5 active torsions:
REMARK  status: ('A' for Active; 'I' for Inactive)
REMARK    1  A    between atoms: N1_2  and  C2_3 
REMARK    2  A    between atoms: N1_2  and  C7_14 
REMARK    3  A    between atoms: C2_3  and  C3_4 
REMARK    4  A    between atoms: C3_4  and  C4_5 
REMARK    5  A    between atoms: C6_8  and  N2_9 
ROOT
HETATM    1  C4  UNL     1      45.039  12.813   0.537  1.00  0.00     0.019 A 
HETATM    2  C5  UNL     1      44.752  12.101  -0.596  1.00  0.00     0.078 A 
HETATM    3  S1  UNL     1      45.607  10.652  -0.354  1.00  0.00    -0.064 SA
HETATM    4  C6  UNL     1      46.284  11.016   1.165  1.00  0.00     0.142 A 
HETATM    5  N3  UNL     1      45.827  12.236   1.429  1.00  0.00    -0.340 N 
ATOM      6  H3  UNL     1      46.078  12.714   2.294  1.00  0.00     0.167 HD
ENDROOT
BRANCH   1   7
HETATM    7  C3  UNL     1      44.482  14.222   0.787  1.00  0.00     0.087 C 
BRANCH   7   8
HETATM    8  C2  UNL     1      44.328  14.406   2.253  1.00  0.00     0.278 C 
BRANCH   8   9
HETATM    9  N1  UNL     1      44.974  15.596   2.715  1.00  0.00     0.090 N 
HETATM   10  C1  UNL     1      44.677  16.698   1.833  1.00  0.00     0.310 C 
BRANCH   9  11
HETATM   11  C7  UNL     1      46.360  15.387   2.940  1.00  0.00     0.242 C 
HETATM   12  C8  UNL     1      47.059  16.641   3.452  1.00  0.00     0.122 C 
HETATM   13  S2  UNL     1      46.257  16.961   5.083  1.00  0.00    -0.095 SA
HETATM   14  S3  UNL     1      45.861  14.862   5.485  1.00  0.00    -0.095 SA
HETATM   15  C9  UNL     1      46.666  14.293   3.926  1.00  0.00     0.122 C 
ENDBRANCH   9  11
ENDBRANCH   8   9
ENDBRANCH   7   8
ENDBRANCH   1   7
BRANCH   4  16
HETATM   16  N2  UNL     1      47.072  10.264   1.902  1.00  0.00    -0.380 N 
ATOM     17  H22 UNL     1      46.809   9.580   2.611  1.00  0.00     0.158 HD
ATOM     18  H21 UNL     1      48.091  10.229   1.897  1.00  0.00     0.158 HD
ENDBRANCH   4  16
TORSDOF 5
ENDMDL
MODEL 4
REMARK VINA RESULT: -4.307306684      1.029      1.240
REMARK  5 active torsions:
REMARK  status: ('A' for Active; 'I' for Inactive)
REMARK    1  A    between atoms: N1_2  and  C2_3 
REMARK    2  A    between atoms: N1_2  and  C7_14 
REMARK    3  A    between atoms: C2_3  and  C3_4 
REMARK    4  A    between atoms: C3_4  and  C4_5 
REMARK    5  A    between atoms: C6_8  and  N2_9 
ROOT
HETATM    1  C4  UNL     1      46.024  14.328   2.876  1.00  0.00     0.019 A 
HETATM    2  C5  UNL     1      45.045  15.253   2.634  1.00  0.00     0.078 A 
HETATM    3  S1  UNL     1      45.679  16.663   3.340  1.00  0.00    -0.064 SA
HETATM    4  C6  UNL     1      47.148  16.016   3.906  1.00  0.00     0.142 A 
HETATM    5  N3  UNL     1      47.096  14.743   3.532  1.00  0.00    -0.340 N 
ATOM      6  H3  UNL     1      47.861  14.102   3.743  1.00  0.00     0.167 HD
ENDROOT
BRANCH   1   7
HETATM    7  C3  UNL     1      45.908  12.867   2.419  1.00  0.00     0.087 C 
BRANCH   7   8
HETATM    8  C2  UNL     1      44.730  12.755   1.521  1.00  0.00     0.278 C 
BRANCH   8   9
HETATM    9  N1  UNL     1      45.112  12.511   0.164  1.00  0.00     0.090 N 
HETATM   10  C1  UNL     1      44.728  13.623  -0.670  1.00  0.00     0.310 C 
BRANCH   9  11
HETATM   11  C7  UNL     1      44.646  11.251  -0.293  1.00  0.00     0.242 C 
HETATM   12  C8  UNL     1      44.872  11.058  -1.789  1.00  0.00     0.122 C 
HETATM   13  S2  UNL     1      46.709  11.086  -1.966  1.00  0.00    -0.095 SA
HETATM   14  S3  UNL     1      47.076  10.249   0.006  1.00  0.00    -0.095 SA
HETATM   15  C9  UNL     1      45.281  10.072   0.391  1.00  0.00     0.122 C 
ENDBRANCH   9  11
ENDBRANCH   8   9
ENDBRANCH   7   8
ENDBRANCH   1   7
BRANCH   4  16
HETATM   16  N2  UNL     1      48.107  16.634   4.560  1.00  0.00    -0.380 N 
ATOM     17  H22 UNL     1      48.026  17.234   5.382  1.00  0.00     0.158 HD
ATOM     18  H21 UNL     1      49.108  16.627   4.364  1.00  0.00     0.158 HD
ENDBRANCH   4  16
TORSDOF 5
ENDMDL
MODEL 5
REMARK VINA RESULT: -4.283933558      2.612      6.111
REMARK  5 active torsions:
REMARK  status: ('A' for Active; 'I' for Inactive)
REMARK    1  A    between atoms: N1_2  and  C2_3 
REMARK    2  A    between atoms: N1_2  and  C7_14 
REMARK    3  A    between atoms: C2_3  and  C3_4 
REMARK    4  A    between atoms: C3_4  and  C4_5 
REMARK    5  A    between atoms: C6_8  and  N2_9 
ROOT
HETATM    1  C4  UNL     1      43.899  15.495  -0.484  1.00  0.00     0.019 A 
HETATM    2  C5  UNL     1      44.501  14.393  -1.028  1.00  0.00     0.078 A 
HETATM    3  S1  UNL     1      43.636  14.169  -2.474  1.00  0.00    -0.064 SA
HETATM    4  C6  UNL     1      42.557  15.477  -2.321  1.00  0.00     0.142 A 
HETATM    5  N3  UNL     1      42.902  16.036  -1.166  1.00  0.00    -0.340 N 
ATOM      6  H3  UNL     1      42.413  16.859  -0.814  1.00  0.00     0.167 HD
ENDROOT
BRANCH   1   7
HETATM    7  C3  UNL     1      44.341  16.096   0.857  1.00  0.00     0.087 C 
BRANCH   7   8
HETATM    8  C2  UNL     1      44.140  15.070   1.913  1.00  0.00     0.278 C 
BRANCH   8   9
HETATM    9  N1  UNL     1      45.361  14.746   2.584  1.00  0.00     0.090 N 
HETATM   10  C1  UNL     1      45.794  13.420   2.215  1.00  0.00     0.310 C 
BRANCH   9  11
HETATM   11  C7  UNL     1      45.264  14.959   3.983  1.00  0.00     0.242 C 
HETATM   12  C8  UNL     1      46.555  14.604   4.714  1.00  0.00     0.122 C 
HETATM   13  S2  UNL     1      47.789  15.798   4.038  1.00  0.00    -0.095 SA
HETATM   14  S3  UNL     1      46.325  17.365   3.684  1.00  0.00    -0.095 SA
HETATM   15  C9  UNL     1      44.929  16.373   4.370  1.00  0.00     0.122 C 
ENDBRANCH   9  11
ENDBRANCH   8   9
ENDBRANCH   7   8
ENDBRANCH   1   7
BRANCH   4  16
HETATM   16  N2  UNL     1      41.607  15.845  -3.152  1.00  0.00    -0.380 N 
ATOM     17  H22 UNL     1      41.318  15.394  -4.020  1.00  0.00     0.158 HD
ATOM     18  H21 UNL     1      40.986  16.651  -3.080  1.00  0.00     0.158 HD
ENDBRANCH   4  16
TORSDOF 5
ENDMDL
