MODEL 1
REMARK VINA RESULT: -4.668903864      0.000      0.000
REMARK  2 active torsions:
REMARK  status: ('A' for Active; 'I' for Inactive)
REMARK    1  A    between atoms: C3_3  and  C4_4 
REMARK    2  A    between atoms: C4_4  and  N1_5 
ROOT
HETATM    1  C1  UNL     1       9.933  12.491  16.809  1.00  0.00     0.012 C 
HETATM    2  C2  UNL     1       9.896  11.495  17.511  1.00  0.00    -0.116 C 
HETATM    3  C3  UNL     1       9.827  10.298  18.351  1.00  0.00     0.114 C 
ENDROOT
BRANCH   3   4
HETATM    4  C4  UNL     1      10.570   9.190  17.602  1.00  0.00     0.158 C 
BRANCH   4   5
HETATM    5  N1  UNL     1       9.950   9.096  16.296  1.00  0.00    -0.285 N 
HETATM    6  C5  UNL     1       8.697   8.704  16.076  1.00  0.00     0.126 A 
HETATM    7  C6  UNL     1       8.442   8.733  14.711  1.00  0.00     0.123 A 
HETATM    8  N2  UNL     1       9.585   9.152  14.153  1.00  0.00    -0.294 N 
HETATM    9  N3  UNL     1      10.483   9.367  15.101  1.00  0.00    -0.021 NA
ATOM     10  H2  UNL     1       9.740   9.284  13.154  1.00  0.00     0.183 HD
ENDBRANCH   4   5
ENDBRANCH   3   4
TORSDOF 2
ENDMDL
MODEL 2
REMARK VINA RESULT: -4.617499281      1.392      1.770
REMARK  2 active torsions:
REMARK  status: ('A' for Active; 'I' for Inactive)
REMARK    1  A    between atoms: C3_3  and  C4_4 
REMARK    2  A    between atoms: C4_4  and  N1_5 
ROOT
HETATM    1  C1  UNL     1       9.894  12.532  16.809  1.00  0.00     0.012 C 
HETATM    2  C2  UNL     1      10.731  11.751  16.390  1.00  0.00    -0.116 C 
HETATM    3  C3  UNL     1      11.753  10.826  15.899  1.00  0.00     0.114 C 
ENDROOT
BRANCH   3   4
HETATM    4  C4  UNL     1      11.398   9.443  16.452  1.00  0.00     0.158 C 
BRANCH   4   5
HETATM    5  N1  UNL     1      10.070   9.138  15.959  1.00  0.00    -0.285 N 
HETATM    6  C5  UNL     1       9.708   9.173  14.678  1.00  0.00     0.126 A 
HETATM    7  C6  UNL     1       8.368   8.824  14.572  1.00  0.00     0.123 A 
HETATM    8  N2  UNL     1       7.970   8.588  15.829  1.00  0.00    -0.294 N 
HETATM    9  N3  UNL     1       8.988   8.777  16.654  1.00  0.00    -0.021 NA
ATOM     10  H2  UNL     1       7.030   8.308  16.107  1.00  0.00     0.183 HD
ENDBRANCH   4   5
ENDBRANCH   3   4
TORSDOF 2
ENDMDL
MODEL 3
REMARK VINA RESULT: -4.537568946      1.761      3.508
REMARK  2 active torsions:
REMARK  status: ('A' for Active; 'I' for Inactive)
REMARK    1  A    between atoms: C3_3  and  C4_4 
REMARK    2  A    between atoms: C4_4  and  N1_5 
ROOT
HETATM    1  C1  UNL     1       8.479   8.965  14.921  1.00  0.00     0.012 C 
HETATM    2  C2  UNL     1       9.657   9.266  14.828  1.00  0.00    -0.116 C 
HETATM    3  C3  UNL     1      11.066   9.637  14.694  1.00  0.00     0.114 C 
ENDROOT
BRANCH   3   4
HETATM    4  C4  UNL     1      11.349  10.691  15.767  1.00  0.00     0.158 C 
BRANCH   4   5
HETATM    5  N1  UNL     1      10.779  10.181  16.998  1.00  0.00    -0.285 N 
HETATM    6  C5  UNL     1       9.825  10.787  17.702  1.00  0.00     0.126 A 
HETATM    7  C6  UNL     1       9.522  10.019  18.819  1.00  0.00     0.123 A 
HETATM    8  N2  UNL     1      10.331   8.954  18.736  1.00  0.00    -0.294 N 
HETATM    9  N3  UNL     1      11.079   9.054  17.650  1.00  0.00    -0.021 NA
ATOM     10  H2  UNL     1      10.365   8.186  19.407  1.00  0.00     0.183 HD
ENDBRANCH   4   5
ENDBRANCH   3   4
TORSDOF 2
ENDMDL
MODEL 4
REMARK VINA RESULT: -4.514912094      1.858      3.287
REMARK  2 active torsions:
REMARK  status: ('A' for Active; 'I' for Inactive)
REMARK    1  A    between atoms: C3_3  and  C4_4 
REMARK    2  A    between atoms: C4_4  and  N1_5 
ROOT
HETATM    1  C1  UNL     1       8.476   9.259  15.160  1.00  0.00     0.012 C 
HETATM    2  C2  UNL     1       8.939  10.316  15.555  1.00  0.00    -0.116 C 
HETATM    3  C3  UNL     1       9.474  11.595  16.024  1.00  0.00     0.114 C 
ENDROOT
BRANCH   3   4
HETATM    4  C4  UNL     1       9.789  11.421  17.512  1.00  0.00     0.158 C 
BRANCH   4   5
HETATM    5  N1  UNL     1      10.464  10.145  17.638  1.00  0.00    -0.285 N 
HETATM    6  C5  UNL     1      11.472   9.739  16.869  1.00  0.00     0.126 A 
HETATM    7  C6  UNL     1      11.871   8.471  17.271  1.00  0.00     0.123 A 
HETATM    8  N2  UNL     1      11.063   8.160  18.293  1.00  0.00    -0.294 N 
HETATM    9  N3  UNL     1      10.224   9.161  18.509  1.00  0.00    -0.021 NA
ATOM     10  H2  UNL     1      11.089   7.288  18.822  1.00  0.00     0.183 HD
ENDBRANCH   4   5
ENDBRANCH   3   4
TORSDOF 2
ENDMDL
MODEL 5
REMARK VINA RESULT: -4.508276257      1.924      3.554
REMARK  2 active torsions:
REMARK  status: ('A' for Active; 'I' for Inactive)
REMARK    1  A    between atoms: C3_3  and  C4_4 
REMARK    2  A    between atoms: C4_4  and  N1_5 
ROOT
HETATM    1  C1  UNL     1       8.448   8.987  14.937  1.00  0.00     0.012 C 
HETATM    2  C2  UNL     1       9.621   9.305  14.844  1.00  0.00    -0.116 C 
HETATM    3  C3  UNL     1      11.026   9.696  14.710  1.00  0.00     0.114 C 
ENDROOT
BRANCH   3   4
HETATM    4  C4  UNL     1      11.300  10.736  15.798  1.00  0.00     0.158 C 
BRANCH   4   5
HETATM    5  N1  UNL     1      10.738  10.201  17.023  1.00  0.00    -0.285 N 
HETATM    6  C5  UNL     1      11.092   9.045  17.580  1.00  0.00     0.126 A 
HETATM    7  C6  UNL     1      10.352   8.850  18.739  1.00  0.00     0.123 A 
HETATM    8  N2  UNL     1       9.561   9.927  18.830  1.00  0.00    -0.294 N 
HETATM    9  N3  UNL     1       9.794  10.731  17.805  1.00  0.00    -0.021 NA
ATOM     10  H2  UNL     1       8.885  10.101  19.574  1.00  0.00     0.183 HD
ENDBRANCH   4   5
ENDBRANCH   3   4
TORSDOF 2
ENDMDL
