MODEL 1
REMARK VINA RESULT: -6.599094247      0.000      0.000
REMARK  2 active torsions:
REMARK  status: ('A' for Active; 'I' for Inactive)
REMARK    1  A    between atoms: C4_6  and  N1_7 
REMARK    2  A    between atoms: N1_7  and  C5_10 
ROOT
HETATM    1  N1  UNL     1      21.737  84.257  57.945  1.00  0.00    -0.067 N 
ATOM      2  H11 UNL     1      22.731  84.408  58.110  1.00  0.00     0.278 HD
ATOM      3  H12 UNL     1      21.680  83.263  58.168  1.00  0.00     0.278 HD
ENDROOT
BRANCH   1   4
HETATM    4  C4  UNL     1      21.402  84.495  56.564  1.00  0.00     0.189 C 
HETATM    5  C3  UNL     1      22.694  84.801  55.826  1.00  0.00     0.036 C 
HETATM    6  C2  UNL     1      22.951  83.501  55.074  1.00  0.00     0.044 C 
HETATM    7  C1  UNL     1      21.537  83.242  54.566  1.00  0.00     0.115 C 
HETATM    8 CL1  UNL     1      21.131  84.607  53.518  1.00  0.00    -0.102 Cl
HETATM    9 CL2  UNL     1      21.376  81.708  53.733  1.00  0.00    -0.102 Cl
HETATM   10  C11 UNL     1      20.789  83.291  55.885  1.00  0.00     0.075 C 
ENDBRANCH   1   4
BRANCH   1  11
HETATM   11  C5  UNL     1      20.932  85.043  58.866  1.00  0.00     0.186 C 
HETATM   12  C6  UNL     1      21.850  86.118  59.423  1.00  0.00     0.033 C 
HETATM   13  C7  UNL     1      21.111  86.846  60.533  1.00  0.00     0.002 C 
HETATM   14  C8  UNL     1      21.146  85.910  61.728  1.00  0.00     0.000 C 
HETATM   15  C9  UNL     1      21.141  84.469  61.308  1.00  0.00     0.002 C 
HETATM   16  C10 UNL     1      20.423  84.216  60.013  1.00  0.00     0.033 C 
ENDBRANCH   1  11
TORSDOF 2
ENDMDL
MODEL 2
REMARK VINA RESULT: -6.589963119      1.052      1.226
REMARK  2 active torsions:
REMARK  status: ('A' for Active; 'I' for Inactive)
REMARK    1  A    between atoms: C4_6  and  N1_7 
REMARK    2  A    between atoms: N1_7  and  C5_10 
ROOT
HETATM    1  N1  UNL     1      22.177  85.875  57.590  1.00  0.00    -0.067 N 
ATOM      2  H11 UNL     1      22.130  86.864  57.835  1.00  0.00     0.278 HD
ATOM      3  H12 UNL     1      23.173  85.713  57.741  1.00  0.00     0.278 HD
ENDROOT
BRANCH   1   4
HETATM    4  C4  UNL     1      21.825  85.670  56.208  1.00  0.00     0.189 C 
HETATM    5  C3  UNL     1      23.103  85.348  55.453  1.00  0.00     0.036 C 
HETATM    6  C2  UNL     1      22.983  83.845  55.242  1.00  0.00     0.044 C 
HETATM    7  C1  UNL     1      21.519  83.785  54.818  1.00  0.00     0.115 C 
HETATM    8 CL1  UNL     1      21.397  84.729  53.328  1.00  0.00    -0.102 Cl
HETATM    9 CL2  UNL     1      20.931  82.147  54.604  1.00  0.00    -0.102 Cl
HETATM   10  C11 UNL     1      20.891  84.499  56.001  1.00  0.00     0.075 C 
ENDBRANCH   1   4
BRANCH   1  11
HETATM   11  C5  UNL     1      21.376  85.077  58.504  1.00  0.00     0.186 C 
HETATM   12  C6  UNL     1      20.781  86.048  59.509  1.00  0.00     0.033 C 
HETATM   13  C7  UNL     1      20.093  85.241  60.598  1.00  0.00     0.002 C 
HETATM   14  C8  UNL     1      21.210  84.701  61.474  1.00  0.00     0.000 C 
HETATM   15  C9  UNL     1      22.461  84.443  60.685  1.00  0.00     0.002 C 
HETATM   16  C10 UNL     1      22.210  84.073  59.251  1.00  0.00     0.033 C 
ENDBRANCH   1  11
TORSDOF 2
ENDMDL
MODEL 3
REMARK VINA RESULT: -6.587899295      9.534     10.567
REMARK  2 active torsions:
REMARK  status: ('A' for Active; 'I' for Inactive)
REMARK    1  A    between atoms: C4_6  and  N1_7 
REMARK    2  A    between atoms: N1_7  and  C5_10 
ROOT
HETATM    1  N1  UNL     1      21.156  85.033  48.522  1.00  0.00    -0.067 N 
ATOM      2  H11 UNL     1      21.439  85.910  48.959  1.00  0.00     0.278 HD
ATOM      3  H12 UNL     1      20.812  84.539  49.346  1.00  0.00     0.278 HD
ENDROOT
BRANCH   1   4
HETATM    4  C4  UNL     1      22.290  84.354  47.949  1.00  0.00     0.189 C 
HETATM    5  C3  UNL     1      22.760  85.171  46.758  1.00  0.00     0.036 C 
HETATM    6  C2  UNL     1      24.010  85.848  47.306  1.00  0.00     0.044 C 
HETATM    7  C1  UNL     1      24.632  84.651  48.016  1.00  0.00     0.115 C 
HETATM    8 CL1  UNL     1      24.961  83.449  46.762  1.00  0.00    -0.102 Cl
HETATM    9 CL2  UNL     1      26.076  85.063  48.922  1.00  0.00    -0.102 Cl
HETATM   10  C11 UNL     1      23.463  84.253  48.898  1.00  0.00     0.075 C 
ENDBRANCH   1   4
BRANCH   1  11
HETATM   11  C5  UNL     1      20.084  85.253  47.564  1.00  0.00     0.186 C 
HETATM   12  C6  UNL     1      19.094  86.186  48.240  1.00  0.00     0.033 C 
HETATM   13  C7  UNL     1      17.863  86.293  47.355  1.00  0.00     0.002 C 
HETATM   14  C8  UNL     1      17.097  84.998  47.563  1.00  0.00     0.000 C 
HETATM   15  C9  UNL     1      18.016  83.847  47.852  1.00  0.00     0.002 C 
HETATM   16  C10 UNL     1      19.371  83.976  47.217  1.00  0.00     0.033 C 
ENDBRANCH   1  11
TORSDOF 2
ENDMDL
MODEL 4
REMARK VINA RESULT: -6.584791619      9.461     10.749
REMARK  2 active torsions:
REMARK  status: ('A' for Active; 'I' for Inactive)
REMARK    1  A    between atoms: C4_6  and  N1_7 
REMARK    2  A    between atoms: N1_7  and  C5_10 
ROOT
HETATM    1  N1  UNL     1      21.805  84.674  48.529  1.00  0.00    -0.067 N 
ATOM      2  H11 UNL     1      21.529  83.796  48.967  1.00  0.00     0.278 HD
ATOM      3  H12 UNL     1      22.152  85.168  49.352  1.00  0.00     0.278 HD
ENDROOT
BRANCH   1   4
HETATM    4  C4  UNL     1      20.664  85.349  47.965  1.00  0.00     0.189 C 
HETATM    5  C3  UNL     1      20.211  84.550  46.755  1.00  0.00     0.036 C 
HETATM    6  C2  UNL     1      18.968  83.845  47.283  1.00  0.00     0.044 C 
HETATM    7  C1  UNL     1      18.326  85.020  48.014  1.00  0.00     0.115 C 
HETATM    8 CL1  UNL     1      17.986  86.242  46.783  1.00  0.00    -0.102 Cl
HETATM    9 CL2  UNL     1      16.884  84.569  48.904  1.00  0.00    -0.102 Cl
HETATM   10  C11 UNL     1      19.486  85.415  48.909  1.00  0.00     0.075 C 
ENDBRANCH   1   4
BRANCH   1  11
HETATM   11  C5  UNL     1      22.872  84.460  47.564  1.00  0.00     0.186 C 
HETATM   12  C6  UNL     1      23.858  83.511  48.223  1.00  0.00     0.033 C 
HETATM   13  C7  UNL     1      25.085  83.408  47.332  1.00  0.00     0.002 C 
HETATM   14  C8  UNL     1      25.860  84.694  47.554  1.00  0.00     0.000 C 
HETATM   15  C9  UNL     1      24.950  85.848  47.863  1.00  0.00     0.002 C 
HETATM   16  C10 UNL     1      23.592  85.737  47.232  1.00  0.00     0.033 C 
ENDBRANCH   1  11
TORSDOF 2
ENDMDL
MODEL 5
REMARK VINA RESULT: -6.550351176      1.584      2.622
REMARK  2 active torsions:
REMARK  status: ('A' for Active; 'I' for Inactive)
REMARK    1  A    between atoms: C4_6  and  N1_7 
REMARK    2  A    between atoms: N1_7  and  C5_10 
ROOT
HETATM    1  N1  UNL     1      20.803  83.825  57.608  1.00  0.00    -0.067 N 
ATOM      2  H11 UNL     1      20.810  82.828  57.822  1.00  0.00     0.278 HD
ATOM      3  H12 UNL     1      19.813  84.021  57.759  1.00  0.00     0.278 HD
ENDROOT
BRANCH   1   4
HETATM    4  C4  UNL     1      21.172  84.060  56.235  1.00  0.00     0.189 C 
HETATM    5  C3  UNL     1      19.898  84.357  55.463  1.00  0.00     0.036 C 
HETATM    6  C2  UNL     1      19.982  85.867  55.275  1.00  0.00     0.044 C 
HETATM    7  C1  UNL     1      21.450  85.971  54.876  1.00  0.00     0.115 C 
HETATM    8 CL1  UNL     1      21.621  85.052  53.376  1.00  0.00    -0.102 Cl
HETATM    9 CL2  UNL     1      21.996  87.628  54.694  1.00  0.00    -0.102 Cl
HETATM   10  C11 UNL     1      22.077  85.258  56.059  1.00  0.00     0.075 C 
ENDBRANCH   1   4
BRANCH   1  11
HETATM   11  C5  UNL     1      21.628  84.564  58.551  1.00  0.00     0.186 C 
HETATM   12  C6  UNL     1      22.026  83.576  59.634  1.00  0.00     0.033 C 
HETATM   13  C7  UNL     1      22.727  84.343  60.742  1.00  0.00     0.002 C 
HETATM   14  C8  UNL     1      21.625  85.052  61.509  1.00  0.00     0.000 C 
HETATM   15  C9  UNL     1      20.475  85.422  60.618  1.00  0.00     0.002 C 
HETATM   16  C10 UNL     1      20.871  85.692  59.194  1.00  0.00     0.033 C 
ENDBRANCH   1  11
TORSDOF 2
ENDMDL
