MODEL 1
REMARK VINA RESULT: -6.558273593      0.000      0.000
REMARK  8 active torsions:
REMARK  status: ('A' for Active; 'I' for Inactive)
REMARK    1  A    between atoms: C4_5  and  N1_6 
REMARK    2  A    between atoms: C4_5  and  C13_23 
REMARK    3  A    between atoms: C8_13  and  S1_14 
REMARK    4  A    between atoms: S1_14  and  C9_15 
REMARK    5  A    between atoms: C9_15  and  C10_16 
REMARK    6  A    between atoms: C10_16  and  O2_18 
REMARK    7  A    between atoms: O2_18  and  C11_19 
REMARK       I    between atoms: C13_23  and  N4_25 
REMARK    8  A    between atoms: N4_25  and  C14_27 
ROOT
HETATM    1  C1  UNL     1      -1.041   3.581  24.227  1.00  0.00     0.019 C 
HETATM    2  C2  UNL     1      -1.396   3.295  23.112  1.00  0.00    -0.063 C 
HETATM    3  C3  UNL     1      -1.849   2.936  21.760  1.00  0.00     0.118 C 
HETATM    4 CL1  UNL     1      -1.089   3.801  20.450  1.00  0.00    -0.072 Cl
HETATM    5  C4  UNL     1      -2.768   2.016  21.666  1.00  0.00     0.132 C 
ENDROOT
BRANCH   5   6
HETATM    6  N1  UNL     1      -3.213   1.473  22.947  1.00  0.00    -0.340 N 
HETATM    7  C5  UNL     1      -2.690   0.356  23.316  1.00  0.00     0.085 C 
HETATM    8  C6  UNL     1      -1.684  -0.354  22.490  1.00  0.00     0.096 C 
HETATM    9  N3  UNL     1      -3.065  -0.246  24.548  1.00  0.00    -0.327 N 
HETATM   10  C7  UNL     1      -2.052  -1.827  22.409  1.00  0.00     0.129 C 
HETATM   11  N2  UNL     1      -2.459  -2.315  23.687  1.00  0.00    -0.370 N 
HETATM   12  C8  UNL     1      -2.915  -1.649  24.666  1.00  0.00     0.141 C 
ATOM     13  H2  UNL     1      -2.373  -3.321  23.830  1.00  0.00     0.161 HD
ATOM     14  H3  UNL     1      -3.430   0.313  25.319  1.00  0.00     0.169 HD
ATOM     15  H1  UNL     1      -3.904   1.955  23.520  1.00  0.00     0.167 HD
BRANCH  12  16
HETATM   16  S1  UNL     1      -3.386  -2.430  26.226  1.00  0.00    -0.084 SA
BRANCH  16  17
HETATM   17  C9  UNL     1      -2.104  -2.143  27.476  1.00  0.00     0.193 C 
BRANCH  17  18
HETATM   18  C10 UNL     1      -0.783  -2.177  26.796  1.00  0.00     0.268 C 
HETATM   19  O1  UNL     1      -0.571  -3.074  25.942  1.00  0.00    -0.264 OA
BRANCH  18  20
HETATM   20  O2  UNL     1       0.217  -1.257  27.071  1.00  0.00    -0.321 OA
BRANCH  20  21
HETATM   21  C11 UNL     1       0.040   0.089  26.712  1.00  0.00     0.174 C 
HETATM   22  C12 UNL     1       0.514   0.327  25.307  1.00  0.00     0.034 C 
ENDBRANCH  20  21
ENDBRANCH  18  20
ENDBRANCH  17  18
ENDBRANCH  16  17
ENDBRANCH  12  16
ENDBRANCH   5   6
BRANCH   5  23
HETATM   23  C13 UNL     1      -3.400   1.461  20.509  1.00  0.00     0.271 C 
HETATM   24  O3  UNL     1      -4.441   0.721  20.724  1.00  0.00    -0.266 OA
HETATM   25  N4  UNL     1      -3.071   1.590  19.150  1.00  0.00    -0.352 N 
ATOM     26  H4  UNL     1      -2.264   2.155  18.888  1.00  0.00     0.163 HD
BRANCH  25  27
HETATM   27  C14 UNL     1      -3.849   0.938  18.099  1.00  0.00     0.076 C 
HETATM   28  C15 UNL     1      -4.817   1.929  17.505  1.00  0.00     0.032 C 
HETATM   29  C16 UNL     1      -2.950   0.306  17.063  1.00  0.00     0.032 C 
ENDBRANCH  25  27
ENDBRANCH   5  23
TORSDOF 8
ENDMDL
MODEL 2
REMARK VINA RESULT: -6.554219576      3.219      5.428
REMARK  8 active torsions:
REMARK  status: ('A' for Active; 'I' for Inactive)
REMARK    1  A    between atoms: C4_5  and  N1_6 
REMARK    2  A    between atoms: C4_5  and  C13_23 
REMARK    3  A    between atoms: C8_13  and  S1_14 
REMARK    4  A    between atoms: S1_14  and  C9_15 
REMARK    5  A    between atoms: C9_15  and  C10_16 
REMARK    6  A    between atoms: C10_16  and  O2_18 
REMARK    7  A    between atoms: O2_18  and  C11_19 
REMARK       I    between atoms: C13_23  and  N4_25 
REMARK    8  A    between atoms: N4_25  and  C14_27 
ROOT
HETATM    1  C1  UNL     1      -6.358   0.676  18.483  1.00  0.00     0.019 C 
HETATM    2  C2  UNL     1      -5.573   1.158  17.708  1.00  0.00    -0.063 C 
HETATM    3  C3  UNL     1      -4.596   1.735  16.772  1.00  0.00     0.118 C 
HETATM    4 CL1  UNL     1      -5.257   2.422  15.312  1.00  0.00    -0.072 Cl
HETATM    5  C4  UNL     1      -3.339   1.678  17.116  1.00  0.00     0.132 C 
ENDROOT
BRANCH   5   6
HETATM    6  N1  UNL     1      -3.093   1.038  18.405  1.00  0.00    -0.340 N 
HETATM    7  C5  UNL     1      -2.970   1.814  19.424  1.00  0.00     0.085 C 
HETATM    8  C6  UNL     1      -3.071   3.289  19.307  1.00  0.00     0.096 C 
HETATM    9  N3  UNL     1      -2.728   1.277  20.718  1.00  0.00    -0.327 N 
HETATM   10  C7  UNL     1      -1.927   3.932  20.075  1.00  0.00     0.129 C 
HETATM   11  N2  UNL     1      -1.740   3.286  21.333  1.00  0.00    -0.370 N 
HETATM   12  C8  UNL     1      -2.079   2.109  21.663  1.00  0.00     0.141 C 
ATOM     13  H2  UNL     1      -1.277   3.838  22.056  1.00  0.00     0.161 HD
ATOM     14  H3  UNL     1      -3.011   0.327  20.957  1.00  0.00     0.169 HD
ATOM     15  H1  UNL     1      -3.023   0.024  18.493  1.00  0.00     0.167 HD
BRANCH  12  16
HETATM   16  S1  UNL     1      -1.766   1.442  23.313  1.00  0.00    -0.084 SA
BRANCH  16  17
HETATM   17  C9  UNL     1      -3.328   0.951  24.092  1.00  0.00     0.193 C 
BRANCH  17  18
HETATM   18  C10 UNL     1      -3.558  -0.486  23.797  1.00  0.00     0.268 C 
HETATM   19  O1  UNL     1      -3.590  -1.298  24.755  1.00  0.00    -0.264 OA
BRANCH  18  20
HETATM   20  O2  UNL     1      -3.739  -0.959  22.506  1.00  0.00    -0.321 OA
BRANCH  20  21
HETATM   21  C11 UNL     1      -3.185  -2.195  22.135  1.00  0.00     0.174 C 
HETATM   22  C12 UNL     1      -1.739  -2.035  21.762  1.00  0.00     0.034 C 
ENDBRANCH  20  21
ENDBRANCH  18  20
ENDBRANCH  17  18
ENDBRANCH  16  17
ENDBRANCH  12  16
ENDBRANCH   5   6
BRANCH   5  23
HETATM   23  C13 UNL     1      -2.175   2.145  16.428  1.00  0.00     0.271 C 
HETATM   24  O3  UNL     1      -1.034   1.822  16.948  1.00  0.00    -0.266 OA
HETATM   25  N4  UNL     1      -2.064   2.912  15.257  1.00  0.00    -0.352 N 
ATOM     26  H4  UNL     1      -2.913   3.212  14.780  1.00  0.00     0.163 HD
BRANCH  25  27
HETATM   27  C14 UNL     1      -0.768   3.295  14.701  1.00  0.00     0.076 C 
HETATM   28  C15 UNL     1      -0.084   2.074  14.141  1.00  0.00     0.032 C 
HETATM   29  C16 UNL     1      -0.912   4.402  13.684  1.00  0.00     0.032 C 
ENDBRANCH  25  27
ENDBRANCH   5  23
TORSDOF 8
ENDMDL
MODEL 3
REMARK VINA RESULT: -6.406708893      3.064      5.241
REMARK  8 active torsions:
REMARK  status: ('A' for Active; 'I' for Inactive)
REMARK    1  A    between atoms: C4_5  and  N1_6 
REMARK    2  A    between atoms: C4_5  and  C13_23 
REMARK    3  A    between atoms: C8_13  and  S1_14 
REMARK    4  A    between atoms: S1_14  and  C9_15 
REMARK    5  A    between atoms: C9_15  and  C10_16 
REMARK    6  A    between atoms: C10_16  and  O2_18 
REMARK    7  A    between atoms: O2_18  and  C11_19 
REMARK       I    between atoms: C13_23  and  N4_25 
REMARK    8  A    between atoms: N4_25  and  C14_27 
ROOT
HETATM    1  C1  UNL     1      -6.407   0.606  18.377  1.00  0.00     0.019 C 
HETATM    2  C2  UNL     1      -5.616   1.135  17.639  1.00  0.00    -0.063 C 
HETATM    3  C3  UNL     1      -4.632   1.769  16.748  1.00  0.00     0.118 C 
HETATM    4 CL1  UNL     1      -5.289   2.623  15.377  1.00  0.00    -0.072 Cl
HETATM    5  C4  UNL     1      -3.374   1.633  17.061  1.00  0.00     0.132 C 
ENDROOT
BRANCH   5   6
HETATM    6  N1  UNL     1      -3.132   0.857  18.274  1.00  0.00    -0.340 N 
HETATM    7  C5  UNL     1      -3.052   1.516  19.378  1.00  0.00     0.085 C 
HETATM    8  C6  UNL     1      -3.196   2.991  19.426  1.00  0.00     0.096 C 
HETATM    9  N3  UNL     1      -2.818   0.842  20.607  1.00  0.00    -0.327 N 
HETATM   10  C7  UNL     1      -2.088   3.575  20.287  1.00  0.00     0.129 C 
HETATM   11  N2  UNL     1      -1.905   2.795  21.468  1.00  0.00    -0.370 N 
HETATM   12  C8  UNL     1      -2.214   1.579  21.655  1.00  0.00     0.141 C 
ATOM     13  H2  UNL     1      -1.473   3.274  22.259  1.00  0.00     0.161 HD
ATOM     14  H3  UNL     1      -3.076  -0.137  20.731  1.00  0.00     0.169 HD
ATOM     15  H1  UNL     1      -3.032  -0.157  18.249  1.00  0.00     0.167 HD
BRANCH  12  16
HETATM   16  S1  UNL     1      -1.911   0.738  23.225  1.00  0.00    -0.084 SA
BRANCH  16  17
HETATM   17  C9  UNL     1      -1.331  -0.954  22.922  1.00  0.00     0.193 C 
BRANCH  17  18
HETATM   18  C10 UNL     1      -2.504  -1.863  23.000  1.00  0.00     0.268 C 
HETATM   19  O1  UNL     1      -3.395  -1.769  22.120  1.00  0.00    -0.264 OA
BRANCH  18  20
HETATM   20  O2  UNL     1      -2.645  -2.807  24.006  1.00  0.00    -0.321 OA
BRANCH  20  21
HETATM   21  C11 UNL     1      -2.469  -2.425  25.346  1.00  0.00     0.174 C 
HETATM   22  C12 UNL     1      -3.645  -1.623  25.825  1.00  0.00     0.034 C 
ENDBRANCH  20  21
ENDBRANCH  18  20
ENDBRANCH  17  18
ENDBRANCH  16  17
ENDBRANCH  12  16
ENDBRANCH   5   6
BRANCH   5  23
HETATM   23  C13 UNL     1      -2.203   2.126  16.402  1.00  0.00     0.271 C 
HETATM   24  O3  UNL     1      -1.069   1.844  16.961  1.00  0.00    -0.266 OA
HETATM   25  N4  UNL     1      -2.078   2.880  15.224  1.00  0.00    -0.352 N 
ATOM     26  H4  UNL     1      -2.922   3.148  14.718  1.00  0.00     0.163 HD
BRANCH  25  27
HETATM   27  C14 UNL     1      -0.778   3.294  14.703  1.00  0.00     0.076 C 
HETATM   28  C15 UNL     1      -0.038   2.086  14.188  1.00  0.00     0.032 C 
HETATM   29  C16 UNL     1      -0.924   4.377  13.661  1.00  0.00     0.032 C 
ENDBRANCH  25  27
ENDBRANCH   5  23
TORSDOF 8
ENDMDL
MODEL 4
REMARK VINA RESULT: -6.370729801      2.872      7.613
REMARK  8 active torsions:
REMARK  status: ('A' for Active; 'I' for Inactive)
REMARK    1  A    between atoms: C4_5  and  N1_6 
REMARK    2  A    between atoms: C4_5  and  C13_23 
REMARK    3  A    between atoms: C8_13  and  S1_14 
REMARK    4  A    between atoms: S1_14  and  C9_15 
REMARK    5  A    between atoms: C9_15  and  C10_16 
REMARK    6  A    between atoms: C10_16  and  O2_18 
REMARK    7  A    between atoms: O2_18  and  C11_19 
REMARK       I    between atoms: C13_23  and  N4_25 
REMARK    8  A    between atoms: N4_25  and  C14_27 
ROOT
HETATM    1  C1  UNL     1       0.843   2.063  24.480  1.00  0.00     0.019 C 
HETATM    2  C2  UNL     1       0.394   1.294  25.291  1.00  0.00    -0.063 C 
HETATM    3  C3  UNL     1      -0.153   0.337  26.266  1.00  0.00     0.118 C 
HETATM    4 CL1  UNL     1      -0.052   0.817  27.939  1.00  0.00    -0.072 Cl
HETATM    5  C4  UNL     1      -0.656  -0.769  25.793  1.00  0.00     0.132 C 
ENDROOT
BRANCH   5   6
HETATM    6  N1  UNL     1      -0.597  -0.888  24.339  1.00  0.00    -0.340 N 
HETATM    7  C5  UNL     1      -1.658  -0.563  23.687  1.00  0.00     0.085 C 
HETATM    8  C6  UNL     1      -2.887  -0.089  24.368  1.00  0.00     0.096 C 
HETATM    9  N3  UNL     1      -1.691  -0.648  22.268  1.00  0.00    -0.327 N 
HETATM   10  C7  UNL     1      -4.092  -0.811  23.787  1.00  0.00     0.129 C 
HETATM   11  N2  UNL     1      -3.998  -0.883  22.365  1.00  0.00    -0.370 N 
HETATM   12  C8  UNL     1      -2.953  -0.815  21.649  1.00  0.00     0.141 C 
ATOM     13  H2  UNL     1      -4.878  -1.003  21.864  1.00  0.00     0.161 HD
ATOM     14  H3  UNL     1      -0.835  -0.591  21.716  1.00  0.00     0.169 HD
ATOM     15  H1  UNL     1       0.244  -1.213  23.863  1.00  0.00     0.167 HD
BRANCH  12  16
HETATM   16  S1  UNL     1      -3.012  -0.924  19.847  1.00  0.00    -0.084 SA
BRANCH  16  17
HETATM   17  C9  UNL     1      -2.872   0.732  19.120  1.00  0.00     0.193 C 
BRANCH  17  18
HETATM   18  C10 UNL     1      -4.240   1.300  19.003  1.00  0.00     0.268 C 
HETATM   19  O1  UNL     1      -5.153   0.817  19.719  1.00  0.00    -0.264 OA
BRANCH  18  20
HETATM   20  O2  UNL     1      -4.540   2.339  18.136  1.00  0.00    -0.321 OA
BRANCH  20  21
HETATM   21  C11 UNL     1      -4.168   2.247  16.786  1.00  0.00     0.174 C 
HETATM   22  C12 UNL     1      -5.383   2.196  15.905  1.00  0.00     0.034 C 
ENDBRANCH  20  21
ENDBRANCH  18  20
ENDBRANCH  17  18
ENDBRANCH  16  17
ENDBRANCH  12  16
ENDBRANCH   5   6
BRANCH   5  23
HETATM   23  C13 UNL     1      -1.253  -1.875  26.478  1.00  0.00     0.271 C 
HETATM   24  O3  UNL     1      -0.823  -3.052  26.150  1.00  0.00    -0.266 OA
HETATM   25  N4  UNL     1      -2.249  -1.894  27.467  1.00  0.00    -0.352 N 
ATOM     26  H4  UNL     1      -2.646  -1.011  27.786  1.00  0.00     0.163 HD
BRANCH  25  27
HETATM   27  C14 UNL     1      -2.735  -3.141  28.054  1.00  0.00     0.076 C 
HETATM   28  C15 UNL     1      -2.560  -3.091  29.550  1.00  0.00     0.032 C 
HETATM   29  C16 UNL     1      -4.160  -3.422  27.641  1.00  0.00     0.032 C 
ENDBRANCH  25  27
ENDBRANCH   5  23
TORSDOF 8
ENDMDL
MODEL 5
REMARK VINA RESULT: -6.365349323      3.703      7.905
REMARK  8 active torsions:
REMARK  status: ('A' for Active; 'I' for Inactive)
REMARK    1  A    between atoms: C4_5  and  N1_6 
REMARK    2  A    between atoms: C4_5  and  C13_23 
REMARK    3  A    between atoms: C8_13  and  S1_14 
REMARK    4  A    between atoms: S1_14  and  C9_15 
REMARK    5  A    between atoms: C9_15  and  C10_16 
REMARK    6  A    between atoms: C10_16  and  O2_18 
REMARK    7  A    between atoms: O2_18  and  C11_19 
REMARK       I    between atoms: C13_23  and  N4_25 
REMARK    8  A    between atoms: N4_25  and  C14_27 
ROOT
HETATM    1  C1  UNL     1      -1.857  -2.710  20.719  1.00  0.00     0.019 C 
HETATM    2  C2  UNL     1      -1.716  -1.870  21.570  1.00  0.00    -0.063 C 
HETATM    3  C3  UNL     1      -1.567  -0.838  22.607  1.00  0.00     0.118 C 
HETATM    4 CL1  UNL     1      -0.174  -0.998  23.643  1.00  0.00    -0.072 Cl
HETATM    5  C4  UNL     1      -2.482   0.091  22.657  1.00  0.00     0.132 C 
ENDROOT
BRANCH   5   6
HETATM    6  N1  UNL     1      -3.533  -0.042  21.653  1.00  0.00    -0.340 N 
HETATM    7  C5  UNL     1      -3.393   0.643  20.572  1.00  0.00     0.085 C 
HETATM    8  C6  UNL     1      -2.225   1.528  20.347  1.00  0.00     0.096 C 
HETATM    9  N3  UNL     1      -4.369   0.576  19.540  1.00  0.00    -0.327 N 
HETATM   10  C7  UNL     1      -2.707   2.869  19.818  1.00  0.00     0.129 C 
HETATM   11  N2  UNL     1      -3.716   2.686  18.827  1.00  0.00    -0.370 N 
HETATM   12  C8  UNL     1      -4.478   1.685  18.666  1.00  0.00     0.141 C 
ATOM     13  H2  UNL     1      -3.841   3.454  18.167  1.00  0.00     0.161 HD
ATOM     14  H3  UNL     1      -4.969  -0.242  19.434  1.00  0.00     0.169 HD
ATOM     15  H1  UNL     1      -4.340  -0.648  21.800  1.00  0.00     0.167 HD
BRANCH  12  16
HETATM   16  S1  UNL     1      -5.713   1.614  17.349  1.00  0.00    -0.084 SA
BRANCH  16  17
HETATM   17  C9  UNL     1      -5.058   2.383  15.842  1.00  0.00     0.193 C 
BRANCH  17  18
HETATM   18  C10 UNL     1      -3.634   1.984  15.704  1.00  0.00     0.268 C 
HETATM   19  O1  UNL     1      -3.372   0.804  15.361  1.00  0.00    -0.264 OA
BRANCH  18  20
HETATM   20  O2  UNL     1      -2.590   2.866  15.938  1.00  0.00    -0.321 OA
BRANCH  20  21
HETATM   21  C11 UNL     1      -1.321   2.598  15.401  1.00  0.00     0.174 C 
HETATM   22  C12 UNL     1      -0.934   3.655  14.407  1.00  0.00     0.034 C 
ENDBRANCH  20  21
ENDBRANCH  18  20
ENDBRANCH  17  18
ENDBRANCH  16  17
ENDBRANCH  12  16
ENDBRANCH   5   6
BRANCH   5  23
HETATM   23  C13 UNL     1      -2.609   1.211  23.538  1.00  0.00     0.271 C 
HETATM   24  O3  UNL     1      -3.718   1.876  23.463  1.00  0.00    -0.266 OA
HETATM   25  N4  UNL     1      -1.711   1.719  24.490  1.00  0.00    -0.352 N 
ATOM     26  H4  UNL     1      -0.811   1.256  24.617  1.00  0.00     0.163 HD
BRANCH  25  27
HETATM   27  C14 UNL     1      -2.026   2.889  25.306  1.00  0.00     0.076 C 
HETATM   28  C15 UNL     1      -2.625   2.441  26.614  1.00  0.00     0.032 C 
HETATM   29  C16 UNL     1      -0.815   3.772  25.490  1.00  0.00     0.032 C 
ENDBRANCH  25  27
ENDBRANCH   5  23
TORSDOF 8
ENDMDL
