MODEL 1
REMARK VINA RESULT: -6.430572299      0.000      0.000
REMARK  8 active torsions:
REMARK  status: ('A' for Active; 'I' for Inactive)
REMARK    1  A    between atoms: N1_1  and  C1_4 
REMARK    2  A    between atoms: C4_9  and  N3_10 
REMARK    3  A    between atoms: N7_18  and  O1_19 
REMARK    4  A    between atoms: O1_19  and  C5_20 
REMARK    5  A    between atoms: C5_20  and  O2_21 
REMARK    6  A    between atoms: O2_21  and  C6_22 
REMARK    7  A    between atoms: C6_22  and  O3_23 
REMARK    8  A    between atoms: O3_23  and  N8_24 
ROOT
HETATM    1  C1  UNL     1      23.741  -9.536  15.186  1.00  0.00     0.679 A 
HETATM    2  N2  UNL     1      24.849 -10.312  15.246  1.00  0.00    -0.171 N 
ATOM      3  H2  UNL     1      24.770 -11.288  15.532  1.00  0.00     0.186 HD
HETATM    4  C2  UNL     1      26.035  -9.811  14.937  1.00  0.00     0.196 A 
HETATM    5  C3  UNL     1      26.097  -8.478  14.556  1.00  0.00     0.139 A 
HETATM    6  C4  UNL     1      24.973  -7.682  14.493  1.00  0.00     0.146 A 
HETATM    7  N4  UNL     1      23.789  -8.227  14.814  1.00  0.00    -0.175 N 
ATOM      8  H4  UNL     1      22.936  -7.669  14.779  1.00  0.00     0.186 HD
HETATM    9  N5  UNL     1      27.478  -8.240  14.298  1.00  0.00    -0.275 N 
ATOM     10  H5  UNL     1      27.897  -7.327  14.127  1.00  0.00     0.184 HD
HETATM   11  N6  UNL     1      28.168  -9.453  14.316  1.00  0.00     0.009 NA
HETATM   12  N7  UNL     1      27.347 -10.401  14.914  1.00  0.00    -0.123 N 
ENDROOT
BRANCH  12  13
HETATM   13  O1  UNL     1      27.718 -11.593  15.369  1.00  0.00    -0.232 OA
BRANCH  13  14
HETATM   14  C5  UNL     1      27.844 -11.742  16.722  1.00  0.00     0.375 C 
BRANCH  14  15
HETATM   15  O2  UNL     1      29.052 -11.975  17.253  1.00  0.00    -0.338 OA
BRANCH  15  16
HETATM   16  C6  UNL     1      30.061 -12.464  16.519  1.00  0.00     0.372 C 
BRANCH  16  17
HETATM   17  O3  UNL     1      31.279 -11.848  16.512  1.00  0.00    -0.261 OA
BRANCH  17  18
HETATM   18  N8  UNL     1      32.342 -12.619  16.547  1.00  0.00    -0.309 N 
ATOM     19  H82 UNL     1      33.071 -12.463  17.243  1.00  0.00     0.184 HD
ATOM     20  H81 UNL     1      32.398 -13.366  15.857  1.00  0.00     0.184 HD
ENDBRANCH  17  18
ENDBRANCH  16  17
ENDBRANCH  15  16
ENDBRANCH  14  15
ENDBRANCH  13  14
ENDBRANCH  12  13
BRANCH   1  21
HETATM   21  N1  UNL     1      22.614 -10.046  15.490  1.00  0.00    -0.234 N 
ATOM     22  H12 UNL     1      22.580 -11.022  15.784  1.00  0.00     0.174 HD
ATOM     23  H11 UNL     1      21.777  -9.466  15.431  1.00  0.00     0.174 HD
ENDBRANCH   1  21
BRANCH   6  24
HETATM   24  N3  UNL     1      25.050  -6.450  14.137  1.00  0.00    -0.383 N 
ATOM     25  H32 UNL     1      25.713  -6.158  13.418  1.00  0.00     0.157 HD
ATOM     26  H31 UNL     1      24.456  -5.740  14.563  1.00  0.00     0.157 HD
ENDBRANCH   6  24
TORSDOF 8
ENDMDL
MODEL 2
REMARK VINA RESULT: -6.214722331      1.035      1.035
REMARK  8 active torsions:
REMARK  status: ('A' for Active; 'I' for Inactive)
REMARK    1  A    between atoms: N1_1  and  C1_4 
REMARK    2  A    between atoms: C4_9  and  N3_10 
REMARK    3  A    between atoms: N7_18  and  O1_19 
REMARK    4  A    between atoms: O1_19  and  C5_20 
REMARK    5  A    between atoms: C5_20  and  O2_21 
REMARK    6  A    between atoms: O2_21  and  C6_22 
REMARK    7  A    between atoms: C6_22  and  O3_23 
REMARK    8  A    between atoms: O3_23  and  N8_24 
ROOT
HETATM    1  C1  UNL     1      24.147  -9.549  15.019  1.00  0.00     0.679 A 
HETATM    2  N2  UNL     1      25.223 -10.366  15.112  1.00  0.00    -0.171 N 
ATOM      3  H2  UNL     1      25.090 -11.360  15.298  1.00  0.00     0.186 HD
HETATM    4  C2  UNL     1      26.447  -9.882  14.964  1.00  0.00     0.196 A 
HETATM    5  C3  UNL     1      26.581  -8.524  14.715  1.00  0.00     0.139 A 
HETATM    6  C4  UNL     1      25.491  -7.686  14.619  1.00  0.00     0.146 A 
HETATM    7  N4  UNL     1      24.267  -8.215  14.775  1.00  0.00    -0.175 N 
ATOM      8  H4  UNL     1      23.437  -7.626  14.711  1.00  0.00     0.186 HD
HETATM    9  N5  UNL     1      27.987  -8.314  14.612  1.00  0.00    -0.275 N 
ATOM     10  H5  UNL     1      28.445  -7.404  14.566  1.00  0.00     0.184 HD
HETATM   11  N6  UNL     1      28.639  -9.548  14.584  1.00  0.00     0.009 NA
HETATM   12  N7  UNL     1      27.738 -10.515  15.011  1.00  0.00    -0.123 N 
ENDROOT
BRANCH  12  13
HETATM   13  O1  UNL     1      28.031 -11.756  15.387  1.00  0.00    -0.232 OA
BRANCH  13  14
HETATM   14  C5  UNL     1      28.747 -11.914  16.542  1.00  0.00     0.375 C 
BRANCH  14  15
HETATM   15  O2  UNL     1      30.050 -12.216  16.475  1.00  0.00    -0.338 OA
BRANCH  15  16
HETATM   16  C6  UNL     1      30.498 -13.458  16.705  1.00  0.00     0.372 C 
BRANCH  16  17
HETATM   17  O3  UNL     1      30.898 -14.256  15.673  1.00  0.00    -0.261 OA
BRANCH  17  18
HETATM   18  N8  UNL     1      32.154 -14.641  15.664  1.00  0.00    -0.309 N 
ATOM     19  H82 UNL     1      32.674 -14.689  14.788  1.00  0.00     0.184 HD
ATOM     20  H81 UNL     1      32.573 -14.885  16.561  1.00  0.00     0.184 HD
ENDBRANCH  17  18
ENDBRANCH  16  17
ENDBRANCH  15  16
ENDBRANCH  14  15
ENDBRANCH  13  14
ENDBRANCH  12  13
BRANCH   1  21
HETATM   21  N1  UNL     1      22.983 -10.043  15.167  1.00  0.00    -0.234 N 
ATOM     22  H12 UNL     1      22.530  -9.969  16.077  1.00  0.00     0.174 HD
ATOM     23  H11 UNL     1      22.536 -10.501  14.372  1.00  0.00     0.174 HD
ENDBRANCH   1  21
BRANCH   6  24
HETATM   24  N3  UNL     1      25.636  -6.431  14.387  1.00  0.00    -0.383 N 
ATOM     25  H32 UNL     1      25.668  -5.760  15.156  1.00  0.00     0.157 HD
ATOM     26  H31 UNL     1      25.722  -6.077  13.435  1.00  0.00     0.157 HD
ENDBRANCH   6  24
TORSDOF 8
ENDMDL
MODEL 3
REMARK VINA RESULT: -6.116923052      1.810      2.504
REMARK  8 active torsions:
REMARK  status: ('A' for Active; 'I' for Inactive)
REMARK    1  A    between atoms: N1_1  and  C1_4 
REMARK    2  A    between atoms: C4_9  and  N3_10 
REMARK    3  A    between atoms: N7_18  and  O1_19 
REMARK    4  A    between atoms: O1_19  and  C5_20 
REMARK    5  A    between atoms: C5_20  and  O2_21 
REMARK    6  A    between atoms: O2_21  and  C6_22 
REMARK    7  A    between atoms: C6_22  and  O3_23 
REMARK    8  A    between atoms: O3_23  and  N8_24 
ROOT
HETATM    1  C1  UNL     1      23.047 -10.813  15.364  1.00  0.00     0.679 A 
HETATM    2  N2  UNL     1      24.295 -10.617  14.877  1.00  0.00    -0.171 N 
ATOM      3  H2  UNL     1      24.791 -11.387  14.427  1.00  0.00     0.186 HD
HETATM    4  C2  UNL     1      24.877  -9.432  14.981  1.00  0.00     0.196 A 
HETATM    5  C3  UNL     1      24.167  -8.414  15.601  1.00  0.00     0.139 A 
HETATM    6  C4  UNL     1      22.897  -8.605  16.100  1.00  0.00     0.146 A 
HETATM    7  N4  UNL     1      22.341  -9.821  15.974  1.00  0.00    -0.175 N 
ATOM      8  H4  UNL     1      21.402 -10.001  16.331  1.00  0.00     0.186 HD
HETATM    9  N5  UNL     1      25.043  -7.290  15.564  1.00  0.00    -0.275 N 
ATOM     10  H5  UNL     1      24.892  -6.409  16.053  1.00  0.00     0.184 HD
HETATM   11  N6  UNL     1      26.140  -7.584  14.753  1.00  0.00     0.009 NA
HETATM   12  N7  UNL     1      26.168  -8.959  14.557  1.00  0.00    -0.123 N 
ENDROOT
BRANCH  12  13
HETATM   13  O1  UNL     1      27.187  -9.669  14.083  1.00  0.00    -0.232 OA
BRANCH  13  14
HETATM   14  C5  UNL     1      28.410  -9.486  14.667  1.00  0.00     0.375 C 
BRANCH  14  15
HETATM   15  O2  UNL     1      29.040 -10.527  15.226  1.00  0.00    -0.338 OA
BRANCH  15  16
HETATM   16  C6  UNL     1      28.367 -11.587  15.696  1.00  0.00     0.372 C 
BRANCH  16  17
HETATM   17  O3  UNL     1      28.694 -12.852  15.298  1.00  0.00    -0.261 OA
BRANCH  17  18
HETATM   18  N8  UNL     1      29.412 -13.575  16.126  1.00  0.00    -0.309 N 
ATOM     19  H82 UNL     1      29.017 -13.893  17.011  1.00  0.00     0.184 HD
ATOM     20  H81 UNL     1      30.365 -13.799  15.843  1.00  0.00     0.184 HD
ENDBRANCH  17  18
ENDBRANCH  16  17
ENDBRANCH  15  16
ENDBRANCH  14  15
ENDBRANCH  13  14
ENDBRANCH  12  13
BRANCH   1  21
HETATM   21  N1  UNL     1      22.514 -11.964  15.249  1.00  0.00    -0.234 N 
ATOM     22  H12 UNL     1      22.542 -12.430  14.343  1.00  0.00     0.174 HD
ATOM     23  H11 UNL     1      22.072 -12.387  16.066  1.00  0.00     0.174 HD
ENDBRANCH   1  21
BRANCH   6  24
HETATM   24  N3  UNL     1      22.255  -7.650  16.670  1.00  0.00    -0.383 N 
ATOM     25  H32 UNL     1      21.237  -7.608  16.624  1.00  0.00     0.157 HD
ATOM     26  H31 UNL     1      22.747  -6.914  17.178  1.00  0.00     0.157 HD
ENDBRANCH   6  24
TORSDOF 8
ENDMDL
MODEL 4
REMARK VINA RESULT: -6.067455501      1.584      1.902
REMARK  8 active torsions:
REMARK  status: ('A' for Active; 'I' for Inactive)
REMARK    1  A    between atoms: N1_1  and  C1_4 
REMARK    2  A    between atoms: C4_9  and  N3_10 
REMARK    3  A    between atoms: N7_18  and  O1_19 
REMARK    4  A    between atoms: O1_19  and  C5_20 
REMARK    5  A    between atoms: C5_20  and  O2_21 
REMARK    6  A    between atoms: O2_21  and  C6_22 
REMARK    7  A    between atoms: C6_22  and  O3_23 
REMARK    8  A    between atoms: O3_23  and  N8_24 
ROOT
HETATM    1  C1  UNL     1      23.793  -9.596  15.146  1.00  0.00     0.679 A 
HETATM    2  N2  UNL     1      24.915 -10.351  15.229  1.00  0.00    -0.171 N 
ATOM      3  H2  UNL     1      24.848 -11.330  15.507  1.00  0.00     0.186 HD
HETATM    4  C2  UNL     1      26.098  -9.826  14.952  1.00  0.00     0.196 A 
HETATM    5  C3  UNL     1      26.143  -8.490  14.578  1.00  0.00     0.139 A 
HETATM    6  C4  UNL     1      25.006  -7.715  14.493  1.00  0.00     0.146 A 
HETATM    7  N4  UNL     1      23.825  -8.285  14.781  1.00  0.00    -0.175 N 
ATOM      8  H4  UNL     1      22.963  -7.743  14.729  1.00  0.00     0.186 HD
HETATM    9  N5  UNL     1      27.525  -8.225  14.356  1.00  0.00    -0.275 N 
ATOM     10  H5  UNL     1      27.931  -7.302  14.200  1.00  0.00     0.184 HD
HETATM   11  N6  UNL     1      28.238  -9.424  14.385  1.00  0.00     0.009 NA
HETATM   12  N7  UNL     1      27.422 -10.391  14.957  1.00  0.00    -0.123 N 
ENDROOT
BRANCH  12  13
HETATM   13  O1  UNL     1      27.804 -11.578  15.414  1.00  0.00    -0.232 OA
BRANCH  13  14
HETATM   14  C5  UNL     1      28.825 -11.606  16.324  1.00  0.00     0.375 C 
BRANCH  14  15
HETATM   15  O2  UNL     1      28.832 -12.540  17.283  1.00  0.00    -0.338 OA
BRANCH  15  16
HETATM   16  C6  UNL     1      28.830 -13.848  16.992  1.00  0.00     0.372 C 
BRANCH  16  17
HETATM   17  O3  UNL     1      27.655 -14.526  16.838  1.00  0.00    -0.261 OA
BRANCH  17  18
HETATM   18  N8  UNL     1      26.776 -14.432  17.809  1.00  0.00    -0.309 N 
ATOM     19  H82 UNL     1      26.241 -15.249  18.103  1.00  0.00     0.184 HD
ATOM     20  H81 UNL     1      26.659 -13.518  18.245  1.00  0.00     0.184 HD
ENDBRANCH  17  18
ENDBRANCH  16  17
ENDBRANCH  15  16
ENDBRANCH  14  15
ENDBRANCH  13  14
ENDBRANCH  12  13
BRANCH   1  21
HETATM   21  N1  UNL     1      22.670 -10.130  15.420  1.00  0.00    -0.234 N 
ATOM     22  H12 UNL     1      22.583 -11.144  15.371  1.00  0.00     0.174 HD
ATOM     23  H11 UNL     1      21.887  -9.528  15.679  1.00  0.00     0.174 HD
ENDBRANCH   1  21
BRANCH   6  24
HETATM   24  N3  UNL     1      25.068  -6.480  14.145  1.00  0.00    -0.383 N 
ATOM     25  H32 UNL     1      25.911  -5.932  14.322  1.00  0.00     0.157 HD
ATOM     26  H31 UNL     1      24.282  -6.021  13.687  1.00  0.00     0.157 HD
ENDBRANCH   6  24
TORSDOF 8
ENDMDL
MODEL 5
REMARK VINA RESULT: -6.015509632      1.127      1.186
REMARK  8 active torsions:
REMARK  status: ('A' for Active; 'I' for Inactive)
REMARK    1  A    between atoms: N1_1  and  C1_4 
REMARK    2  A    between atoms: C4_9  and  N3_10 
REMARK    3  A    between atoms: N7_18  and  O1_19 
REMARK    4  A    between atoms: O1_19  and  C5_20 
REMARK    5  A    between atoms: C5_20  and  O2_21 
REMARK    6  A    between atoms: O2_21  and  C6_22 
REMARK    7  A    between atoms: C6_22  and  O3_23 
REMARK    8  A    between atoms: O3_23  and  N8_24 
ROOT
HETATM    1  C1  UNL     1      23.768  -9.531  15.143  1.00  0.00     0.679 A 
HETATM    2  N2  UNL     1      24.887 -10.291  15.205  1.00  0.00    -0.171 N 
ATOM      3  H2  UNL     1      24.821 -11.268  15.492  1.00  0.00     0.186 HD
HETATM    4  C2  UNL     1      26.066  -9.774  14.897  1.00  0.00     0.196 A 
HETATM    5  C3  UNL     1      26.110  -8.441  14.514  1.00  0.00     0.139 A 
HETATM    6  C4  UNL     1      24.975  -7.661  14.449  1.00  0.00     0.146 A 
HETATM    7  N4  UNL     1      23.798  -8.222  14.769  1.00  0.00    -0.175 N 
ATOM      8  H4  UNL     1      22.938  -7.676  14.732  1.00  0.00     0.186 HD
HETATM    9  N5  UNL     1      27.488  -8.185  14.258  1.00  0.00    -0.275 N 
ATOM     10  H5  UNL     1      27.894  -7.265  14.086  1.00  0.00     0.184 HD
HETATM   11  N6  UNL     1      28.195  -9.388  14.279  1.00  0.00     0.009 NA
HETATM   12  N7  UNL     1      27.387 -10.347  14.876  1.00  0.00    -0.123 N 
ENDROOT
BRANCH  12  13
HETATM   13  O1  UNL     1      27.773 -11.533  15.333  1.00  0.00    -0.232 OA
BRANCH  13  14
HETATM   14  C5  UNL     1      28.494 -11.558  16.495  1.00  0.00     0.375 C 
BRANCH  14  15
HETATM   15  O2  UNL     1      29.810 -11.803  16.452  1.00  0.00    -0.338 OA
BRANCH  15  16
HETATM   16  C6  UNL     1      30.300 -13.045  16.571  1.00  0.00     0.372 C 
BRANCH  16  17
HETATM   17  O3  UNL     1      30.009 -13.807  17.665  1.00  0.00    -0.261 OA
BRANCH  17  18
HETATM   18  N8  UNL     1      29.396 -14.949  17.456  1.00  0.00    -0.309 N 
ATOM     19  H82 UNL     1      29.925 -15.820  17.413  1.00  0.00     0.184 HD
ATOM     20  H81 UNL     1      28.383 -14.921  17.342  1.00  0.00     0.184 HD
ENDBRANCH  17  18
ENDBRANCH  16  17
ENDBRANCH  15  16
ENDBRANCH  14  15
ENDBRANCH  13  14
ENDBRANCH  12  13
BRANCH   1  21
HETATM   21  N1  UNL     1      22.648 -10.056  15.446  1.00  0.00    -0.234 N 
ATOM     22  H12 UNL     1      22.199 -10.678  14.773  1.00  0.00     0.174 HD
ATOM     23  H11 UNL     1      22.230  -9.841  16.351  1.00  0.00     0.174 HD
ENDBRANCH   1  21
BRANCH   6  24
HETATM   24  N3  UNL     1      25.036  -6.428  14.091  1.00  0.00    -0.383 N 
ATOM     25  H32 UNL     1      25.936  -5.953  14.017  1.00  0.00     0.157 HD
ATOM     26  H31 UNL     1      24.191  -5.900  13.876  1.00  0.00     0.157 HD
ENDBRANCH   6  24
TORSDOF 8
ENDMDL
