MODEL 1
REMARK VINA RESULT: -7.812262793      0.000      0.000
REMARK  18 active torsions:
REMARK  status: ('A' for Active; 'I' for Inactive)
REMARK    1  A    between atoms: N1_1  and  C1_4 
REMARK    2  A    between atoms: C2_7  and  C3_8 
REMARK    3  A    between atoms: C4_10  and  C5_11 
REMARK    4  A    between atoms: C6_20  and  C7_21 
REMARK    5  A    between atoms: N8_22  and  C8_24 
REMARK    6  A    between atoms: C9_25  and  C10_26 
REMARK    7  A    between atoms: C10_26  and  C11_27 
REMARK    8  A    between atoms: C11_27  and  O1_28 
REMARK    9  A    between atoms: C11_27  and  C12_30 
REMARK   10  A    between atoms: C12_30  and  O2_31 
REMARK   11  A    between atoms: N11_37  and  C13_38 
REMARK   12  A    between atoms: C13_38  and  C14_39 
REMARK   13  A    between atoms: C13_38  and  C15_44 
REMARK   14  A    between atoms: C14_39  and  O3_40 
REMARK   15  A    between atoms: C14_39  and  O4_42 
REMARK   16  A    between atoms: C15_44  and  O5_45 
REMARK   17  A    between atoms: C15_44  and  O6_47 
REMARK   18  A    between atoms: C16_49  and  O7_50 
ROOT
HETATM    1  C7  UNL     1     -18.430  21.744   1.430  1.00  0.00     0.120 C 
HETATM    2  N8  UNL     1     -19.100  22.617   0.834  1.00  0.00    -0.347 N 
ATOM      3  H8  UNL     1     -19.976  22.243   0.469  1.00  0.00     0.167 HD
ENDROOT
BRANCH   1   4
HETATM    4  C6  UNL     1     -18.930  20.332   1.547  1.00  0.00     0.068 A 
HETATM    5  C3  UNL     1     -19.820  19.948   2.496  1.00  0.00     0.065 A 
HETATM    6  S1  UNL     1     -19.814  18.198   2.213  1.00  0.00    -0.064 SA
HETATM    7  C4  UNL     1     -18.702  18.159   0.937  1.00  0.00     0.122 A 
HETATM    8  N7  UNL     1     -18.397  19.414   0.791  1.00  0.00    -0.345 N 
ATOM      9  H7  UNL     1     -17.729  19.685   0.069  1.00  0.00     0.167 HD
BRANCH   5  10
HETATM   10  C2  UNL     1     -20.706  20.605   3.433  1.00  0.00     0.107 A 
HETATM   11  N2  UNL     1     -21.728  21.306   2.826  1.00  0.00    -0.188 N 
HETATM   12  C1  UNL     1     -22.619  22.030   3.511  1.00  0.00     0.679 A 
ATOM     13  H2  UNL     1     -21.806  21.271   1.809  1.00  0.00     0.184 HD
HETATM   14  N12 UNL     1     -22.583  22.127   4.851  1.00  0.00    -0.154 N 
HETATM   15  C17 UNL     1     -21.611  21.467   5.478  1.00  0.00     0.295 A 
ATOM     16  H12 UNL     1     -23.269  22.680   5.365  1.00  0.00     0.187 HD
HETATM   17  C16 UNL     1     -20.653  20.695   4.776  1.00  0.00     0.164 A 
HETATM   18  O8  UNL     1     -21.548  21.535   6.733  1.00  0.00    -0.265 OA
BRANCH  12  19
HETATM   19  N1  UNL     1     -23.565  22.681   2.915  1.00  0.00    -0.234 N 
ATOM     20  H12 UNL     1     -23.869  22.312   2.013  1.00  0.00     0.174 HD
ATOM     21  H11 UNL     1     -23.984  23.514   3.329  1.00  0.00     0.174 HD
ENDBRANCH  12  19
BRANCH  17  22
HETATM   22  O7  UNL     1     -19.729  20.109   5.563  1.00  0.00    -0.354 OA
ATOM     23  H7  UNL     1     -19.703  20.156   6.511  1.00  0.00     0.218 HD
ENDBRANCH  17  22
ENDBRANCH   5  10
BRANCH   7  24
HETATM   24  C5  UNL     1     -18.154  17.056   0.142  1.00  0.00     0.165 A 
HETATM   25  N3  UNL     1     -18.441  16.730  -1.127  1.00  0.00    -0.268 N 
HETATM   26  N4  UNL     1     -17.733  15.667  -1.493  1.00  0.00    -0.007 NA
ATOM     27  H3  UNL     1     -19.105  17.226  -1.722  1.00  0.00     0.185 HD
HETATM   28  N5  UNL     1     -16.993  15.311  -0.459  1.00  0.00    -0.007 NA
HETATM   29  N6  UNL     1     -17.247  16.153   0.536  1.00  0.00    -0.268 N 
ATOM     30  H6  UNL     1     -16.816  16.117   1.460  1.00  0.00     0.185 HD
ENDBRANCH   7  24
ENDBRANCH   1   4
BRANCH   2  31
HETATM   31  C8  UNL     1     -18.955  23.939   0.549  1.00  0.00     0.148 A 
HETATM   32  C9  UNL     1     -18.099  24.560  -0.322  1.00  0.00     0.075 A 
HETATM   33  N9  UNL     1     -18.311  25.914  -0.262  1.00  0.00    -0.286 N 
HETATM   34  N10 UNL     1     -19.260  26.091   0.611  1.00  0.00    -0.238 N 
ATOM     35  H9  UNL     1     -17.825  26.635  -0.795  1.00  0.00     0.188 HD
HETATM   36  N11 UNL     1     -19.665  24.945   1.112  1.00  0.00    -0.246 N 
ATOM     37  H10 UNL     1     -19.639  27.001   0.874  1.00  0.00     0.208 HD
BRANCH  32  38
HETATM   38  C10 UNL     1     -17.105  23.924  -1.197  1.00  0.00     0.096 C 
BRANCH  38  39
HETATM   39  C11 UNL     1     -17.721  23.299  -2.425  1.00  0.00     0.147 C 
BRANCH  39  40
HETATM   40  O1  UNL     1     -17.729  24.116  -3.527  1.00  0.00    -0.393 OA
ATOM     41  H1  UNL     1     -17.809  23.655  -4.353  1.00  0.00     0.210 HD
ENDBRANCH  39  40
BRANCH  39  42
HETATM   42  C12 UNL     1     -17.104  21.937  -2.666  1.00  0.00     0.196 C 
BRANCH  42  43
HETATM   43  O2  UNL     1     -17.558  21.121  -1.617  1.00  0.00    -0.398 OA
ATOM     44  H2  UNL     1     -18.106  20.459  -2.023  1.00  0.00     0.209 HD
ENDBRANCH  42  43
ENDBRANCH  39  42
ENDBRANCH  38  39
ENDBRANCH  32  38
BRANCH  36  45
HETATM   45  C13 UNL     1     -20.684  24.771   2.094  1.00  0.00     0.220 C 
BRANCH  45  46
HETATM   46  C14 UNL     1     -20.077  24.916   3.472  1.00  0.00     0.283 C 
BRANCH  46  47
HETATM   47  O3  UNL     1     -19.193  25.960   3.584  1.00  0.00    -0.369 OA
ATOM     48  H3  UNL     1     -18.281  25.696   3.564  1.00  0.00     0.212 HD
ENDBRANCH  46  47
BRANCH  46  49
HETATM   49  O4  UNL     1     -21.080  25.099   4.445  1.00  0.00    -0.369 OA
ATOM     50  H4  UNL     1     -21.652  25.821   4.210  1.00  0.00     0.212 HD
ENDBRANCH  46  49
ENDBRANCH  45  46
BRANCH  45  51
HETATM   51  C15 UNL     1     -21.735  25.846   1.868  1.00  0.00     0.283 C 
BRANCH  51  52
HETATM   52  O5  UNL     1     -22.980  25.489   2.315  1.00  0.00    -0.369 OA
ATOM     53  H5  UNL     1     -23.681  25.993   1.918  1.00  0.00     0.212 HD
ENDBRANCH  51  52
BRANCH  51  54
HETATM   54  O6  UNL     1     -21.330  27.072   2.364  1.00  0.00    -0.369 OA
ATOM     55  H6  UNL     1     -21.657  27.791   1.836  1.00  0.00     0.212 HD
ENDBRANCH  51  54
ENDBRANCH  45  51
ENDBRANCH  36  45
ENDBRANCH   2  31
TORSDOF 18
ENDMDL
MODEL 2
REMARK VINA RESULT: -7.519476524      3.697      8.230
REMARK  18 active torsions:
REMARK  status: ('A' for Active; 'I' for Inactive)
REMARK    1  A    between atoms: N1_1  and  C1_4 
REMARK    2  A    between atoms: C2_7  and  C3_8 
REMARK    3  A    between atoms: C4_10  and  C5_11 
REMARK    4  A    between atoms: C6_20  and  C7_21 
REMARK    5  A    between atoms: N8_22  and  C8_24 
REMARK    6  A    between atoms: C9_25  and  C10_26 
REMARK    7  A    between atoms: C10_26  and  C11_27 
REMARK    8  A    between atoms: C11_27  and  O1_28 
REMARK    9  A    between atoms: C11_27  and  C12_30 
REMARK   10  A    between atoms: C12_30  and  O2_31 
REMARK   11  A    between atoms: N11_37  and  C13_38 
REMARK   12  A    between atoms: C13_38  and  C14_39 
REMARK   13  A    between atoms: C13_38  and  C15_44 
REMARK   14  A    between atoms: C14_39  and  O3_40 
REMARK   15  A    between atoms: C14_39  and  O4_42 
REMARK   16  A    between atoms: C15_44  and  O5_45 
REMARK   17  A    between atoms: C15_44  and  O6_47 
REMARK   18  A    between atoms: C16_49  and  O7_50 
ROOT
HETATM    1  C7  UNL     1     -18.684  22.834   3.359  1.00  0.00     0.120 C 
HETATM    2  N8  UNL     1     -18.709  22.642   4.596  1.00  0.00    -0.347 N 
ATOM      3  H8  UNL     1     -19.452  23.175   5.049  1.00  0.00     0.167 HD
ENDROOT
BRANCH   1   4
HETATM    4  C6  UNL     1     -19.667  23.758   2.699  1.00  0.00     0.068 A 
HETATM    5  C3  UNL     1     -19.518  24.193   1.423  1.00  0.00     0.065 A 
HETATM    6  S1  UNL     1     -20.849  25.361   1.353  1.00  0.00    -0.064 SA
HETATM    7  C4  UNL     1     -21.436  25.161   2.928  1.00  0.00     0.122 A 
HETATM    8  N7  UNL     1     -20.633  24.262   3.415  1.00  0.00    -0.345 N 
ATOM      9  H7  UNL     1     -20.762  23.943   4.375  1.00  0.00     0.167 HD
BRANCH   5  10
HETATM   10  C2  UNL     1     -18.701  23.841   0.281  1.00  0.00     0.107 A 
HETATM   11  N2  UNL     1     -18.546  22.479   0.114  1.00  0.00    -0.188 N 
HETATM   12  C1  UNL     1     -17.781  21.948  -0.846  1.00  0.00     0.679 A 
ATOM     13  H2  UNL     1     -19.036  21.851   0.751  1.00  0.00     0.184 HD
HETATM   14  N12 UNL     1     -17.103  22.708  -1.723  1.00  0.00    -0.154 N 
HETATM   15  C17 UNL     1     -17.223  24.028  -1.597  1.00  0.00     0.295 A 
ATOM     16  H12 UNL     1     -16.524  22.293  -2.453  1.00  0.00     0.187 HD
HETATM   17  C16 UNL     1     -18.024  24.616  -0.588  1.00  0.00     0.164 A 
HETATM   18  O8  UNL     1     -16.602  24.770  -2.401  1.00  0.00    -0.265 OA
BRANCH  12  19
HETATM   19  N1  UNL     1     -17.651  20.667  -0.977  1.00  0.00    -0.234 N 
ATOM     20  H12 UNL     1     -17.150  20.185  -0.231  1.00  0.00     0.174 HD
ATOM     21  H11 UNL     1     -18.033  20.171  -1.782  1.00  0.00     0.174 HD
ENDBRANCH  12  19
BRANCH  17  22
HETATM   22  O7  UNL     1     -18.018  25.964  -0.590  1.00  0.00    -0.354 OA
ATOM     23  H7  UNL     1     -17.592  26.511  -1.238  1.00  0.00     0.218 HD
ENDBRANCH  17  22
ENDBRANCH   5  10
BRANCH   7  24
HETATM   24  C5  UNL     1     -22.544  25.788   3.654  1.00  0.00     0.165 A 
HETATM   25  N3  UNL     1     -22.578  27.003   4.220  1.00  0.00    -0.268 N 
HETATM   26  N4  UNL     1     -23.765  27.209   4.781  1.00  0.00    -0.007 NA
ATOM     27  H3  UNL     1     -21.807  27.670   4.220  1.00  0.00     0.185 HD
HETATM   28  N5  UNL     1     -24.491  26.126   4.574  1.00  0.00    -0.007 NA
HETATM   29  N6  UNL     1     -23.752  25.260   3.890  1.00  0.00    -0.268 N 
ATOM     30  H6  UNL     1     -24.057  24.334   3.590  1.00  0.00     0.185 HD
ENDBRANCH   7  24
ENDBRANCH   1   4
BRANCH   2  31
HETATM   31  C8  UNL     1     -17.997  21.904   5.489  1.00  0.00     0.148 A 
HETATM   32  C9  UNL     1     -18.378  20.816   6.228  1.00  0.00     0.075 A 
HETATM   33  N9  UNL     1     -17.318  20.412   7.001  1.00  0.00    -0.286 N 
HETATM   34  N10 UNL     1     -16.344  21.232   6.730  1.00  0.00    -0.238 N 
ATOM     35  H9  UNL     1     -17.299  19.630   7.655  1.00  0.00     0.188 HD
HETATM   36  N11 UNL     1     -16.709  22.127   5.840  1.00  0.00    -0.246 N 
ATOM     37  H10 UNL     1     -15.418  21.185   7.154  1.00  0.00     0.208 HD
BRANCH  32  38
HETATM   38  C10 UNL     1     -19.689  20.153   6.224  1.00  0.00     0.096 C 
BRANCH  38  39
HETATM   39  C11 UNL     1     -20.035  19.548   4.885  1.00  0.00     0.147 C 
BRANCH  39  40
HETATM   40  O1  UNL     1     -19.868  18.188   4.824  1.00  0.00    -0.393 OA
ATOM     41  H1  UNL     1     -20.389  17.762   4.154  1.00  0.00     0.210 HD
ENDBRANCH  39  40
BRANCH  39  42
HETATM   42  C12 UNL     1     -21.404  20.026   4.450  1.00  0.00     0.196 C 
BRANCH  42  43
HETATM   43  O2  UNL     1     -21.452  21.392   4.772  1.00  0.00    -0.398 OA
ATOM     44  H2  UNL     1     -20.590  21.736   4.569  1.00  0.00     0.209 HD
ENDBRANCH  42  43
ENDBRANCH  39  42
ENDBRANCH  38  39
ENDBRANCH  32  38
BRANCH  36  45
HETATM   45  C13 UNL     1     -15.893  23.175   5.320  1.00  0.00     0.220 C 
BRANCH  45  46
HETATM   46  C14 UNL     1     -16.149  24.441   6.107  1.00  0.00     0.283 C 
BRANCH  46  47
HETATM   47  O3  UNL     1     -17.109  25.254   5.560  1.00  0.00    -0.369 OA
ATOM     48  H3  UNL     1     -17.744  24.794   5.024  1.00  0.00     0.212 HD
ENDBRANCH  46  47
BRANCH  46  49
HETATM   49  O4  UNL     1     -16.545  24.139   7.427  1.00  0.00    -0.369 OA
ATOM     50  H4  UNL     1     -17.121  23.384   7.442  1.00  0.00     0.212 HD
ENDBRANCH  46  49
ENDBRANCH  45  46
BRANCH  45  51
HETATM   51  C15 UNL     1     -14.441  22.750   5.466  1.00  0.00     0.283 C 
BRANCH  51  52
HETATM   52  O5  UNL     1     -13.972  22.859   6.749  1.00  0.00    -0.369 OA
ATOM     53  H5  UNL     1     -14.073  23.730   7.113  1.00  0.00     0.212 HD
ENDBRANCH  51  52
BRANCH  51  54
HETATM   54  O6  UNL     1     -14.218  21.494   4.930  1.00  0.00    -0.369 OA
ATOM     55  H6  UNL     1     -14.911  20.885   5.158  1.00  0.00     0.212 HD
ENDBRANCH  51  54
ENDBRANCH  45  51
ENDBRANCH  36  45
ENDBRANCH   2  31
TORSDOF 18
ENDMDL
MODEL 3
REMARK VINA RESULT: -7.510912698      2.234      5.212
REMARK  18 active torsions:
REMARK  status: ('A' for Active; 'I' for Inactive)
REMARK    1  A    between atoms: N1_1  and  C1_4 
REMARK    2  A    between atoms: C2_7  and  C3_8 
REMARK    3  A    between atoms: C4_10  and  C5_11 
REMARK    4  A    between atoms: C6_20  and  C7_21 
REMARK    5  A    between atoms: N8_22  and  C8_24 
REMARK    6  A    between atoms: C9_25  and  C10_26 
REMARK    7  A    between atoms: C10_26  and  C11_27 
REMARK    8  A    between atoms: C11_27  and  O1_28 
REMARK    9  A    between atoms: C11_27  and  C12_30 
REMARK   10  A    between atoms: C12_30  and  O2_31 
REMARK   11  A    between atoms: N11_37  and  C13_38 
REMARK   12  A    between atoms: C13_38  and  C14_39 
REMARK   13  A    between atoms: C13_38  and  C15_44 
REMARK   14  A    between atoms: C14_39  and  O3_40 
REMARK   15  A    between atoms: C14_39  and  O4_42 
REMARK   16  A    between atoms: C15_44  and  O5_45 
REMARK   17  A    between atoms: C15_44  and  O6_47 
REMARK   18  A    between atoms: C16_49  and  O7_50 
ROOT
HETATM    1  C7  UNL     1     -20.072  20.994   2.238  1.00  0.00     0.120 C 
HETATM    2  N8  UNL     1     -21.002  21.756   1.887  1.00  0.00    -0.347 N 
ATOM      3  H8  UNL     1     -20.988  21.937   0.884  1.00  0.00     0.167 HD
ENDROOT
BRANCH   1   4
HETATM    4  C6  UNL     1     -19.092  20.457   1.234  1.00  0.00     0.068 A 
HETATM    5  C3  UNL     1     -18.450  21.250   0.341  1.00  0.00     0.065 A 
HETATM    6  S1  UNL     1     -17.645  20.007  -0.632  1.00  0.00    -0.064 SA
HETATM    7  C4  UNL     1     -18.205  18.643   0.199  1.00  0.00     0.122 A 
HETATM    8  N7  UNL     1     -18.944  19.166   1.132  1.00  0.00    -0.345 N 
ATOM      9  H7  UNL     1     -19.416  18.554   1.797  1.00  0.00     0.167 HD
BRANCH   5  10
HETATM   10  C2  UNL     1     -18.239  22.671   0.159  1.00  0.00     0.107 A 
HETATM   11  N2  UNL     1     -18.257  23.066  -1.164  1.00  0.00    -0.188 N 
HETATM   12  C1  UNL     1     -18.025  24.325  -1.549  1.00  0.00     0.679 A 
ATOM     13  H2  UNL     1     -18.457  22.365  -1.878  1.00  0.00     0.184 HD
HETATM   14  N12 UNL     1     -17.754  25.304  -0.668  1.00  0.00    -0.154 N 
HETATM   15  C17 UNL     1     -17.724  24.966   0.620  1.00  0.00     0.295 A 
ATOM     16  H12 UNL     1     -17.580  26.262  -0.972  1.00  0.00     0.187 HD
HETATM   17  C16 UNL     1     -17.965  23.639   1.054  1.00  0.00     0.164 A 
HETATM   18  O8  UNL     1     -17.474  25.858   1.471  1.00  0.00    -0.265 OA
BRANCH  12  19
HETATM   19  N1  UNL     1     -18.045  24.666  -2.797  1.00  0.00    -0.234 N 
ATOM     20  H12 UNL     1     -18.165  23.910  -3.471  1.00  0.00     0.174 HD
ATOM     21  H11 UNL     1     -17.950  25.640  -3.086  1.00  0.00     0.174 HD
ENDBRANCH  12  19
BRANCH  17  22
HETATM   22  O7  UNL     1     -17.877  23.468   2.388  1.00  0.00    -0.354 OA
ATOM     23  H7  UNL     1     -17.420  24.045   2.988  1.00  0.00     0.218 HD
ENDBRANCH  17  22
ENDBRANCH   5  10
BRANCH   7  24
HETATM   24  C5  UNL     1     -17.982  17.208   0.000  1.00  0.00     0.165 A 
HETATM   25  N3  UNL     1     -18.456  16.426  -0.981  1.00  0.00    -0.268 N 
HETATM   26  N4  UNL     1     -18.026  15.179  -0.815  1.00  0.00    -0.007 NA
ATOM     27  H3  UNL     1     -19.057  16.742  -1.742  1.00  0.00     0.185 HD
HETATM   28  N5  UNL     1     -17.277  15.162   0.273  1.00  0.00    -0.007 NA
HETATM   29  N6  UNL     1     -17.249  16.393   0.771  1.00  0.00    -0.268 N 
ATOM     30  H6  UNL     1     -16.746  16.676   1.612  1.00  0.00     0.185 HD
ENDBRANCH   7  24
ENDBRANCH   1   4
BRANCH   2  31
HETATM   31  C8  UNL     1     -22.025  22.403   2.506  1.00  0.00     0.148 A 
HETATM   32  C9  UNL     1     -23.185  21.904   3.037  1.00  0.00     0.075 A 
HETATM   33  N9  UNL     1     -23.921  22.943   3.549  1.00  0.00    -0.286 N 
HETATM   34  N10 UNL     1     -23.223  24.019   3.331  1.00  0.00    -0.238 N 
ATOM     35  H9  UNL     1     -24.830  22.883   4.007  1.00  0.00     0.188 HD
HETATM   36  N11 UNL     1     -22.095  23.739   2.717  1.00  0.00    -0.246 N 
ATOM     37  H10 UNL     1     -23.513  24.959   3.602  1.00  0.00     0.208 HD
BRANCH  32  38
HETATM   38  C10 UNL     1     -23.612  20.499   3.077  1.00  0.00     0.096 C 
BRANCH  38  39
HETATM   39  C11 UNL     1     -24.850  20.239   2.253  1.00  0.00     0.147 C 
BRANCH  39  40
HETATM   40  O1  UNL     1     -25.752  21.273   2.253  1.00  0.00    -0.393 OA
ATOM     41  H1  UNL     1     -26.657  20.999   2.331  1.00  0.00     0.210 HD
ENDBRANCH  39  40
BRANCH  39  42
HETATM   42  C12 UNL     1     -24.451  19.762   0.873  1.00  0.00     0.196 C 
BRANCH  42  43
HETATM   43  O2  UNL     1     -23.494  18.755   1.078  1.00  0.00    -0.398 OA
ATOM     44  H2  UNL     1     -23.668  18.405   1.943  1.00  0.00     0.209 HD
ENDBRANCH  42  43
ENDBRANCH  39  42
ENDBRANCH  38  39
ENDBRANCH  32  38
BRANCH  36  45
HETATM   45  C13 UNL     1     -21.097  24.678   2.323  1.00  0.00     0.220 C 
BRANCH  45  46
HETATM   46  C14 UNL     1     -21.703  25.673   1.358  1.00  0.00     0.283 C 
BRANCH  46  47
HETATM   47  O3  UNL     1     -20.799  26.228   0.488  1.00  0.00    -0.369 OA
ATOM     48  H3  UNL     1     -20.914  27.161   0.356  1.00  0.00     0.212 HD
ENDBRANCH  46  47
BRANCH  46  49
HETATM   49  O4  UNL     1     -22.721  25.070   0.590  1.00  0.00    -0.369 OA
ATOM     50  H4  UNL     1     -22.718  25.405  -0.298  1.00  0.00     0.212 HD
ENDBRANCH  46  49
ENDBRANCH  45  46
BRANCH  45  51
HETATM   51  C15 UNL     1     -20.610  25.391   3.575  1.00  0.00     0.283 C 
BRANCH  51  52
HETATM   52  O5  UNL     1     -19.451  26.094   3.382  1.00  0.00    -0.369 OA
ATOM     53  H5  UNL     1     -19.178  26.586   4.147  1.00  0.00     0.212 HD
ENDBRANCH  51  52
BRANCH  51  54
HETATM   54  O6  UNL     1     -21.606  26.165   4.144  1.00  0.00    -0.369 OA
ATOM     55  H6  UNL     1     -21.247  26.850   4.696  1.00  0.00     0.212 HD
ENDBRANCH  51  54
ENDBRANCH  45  51
ENDBRANCH  36  45
ENDBRANCH   2  31
TORSDOF 18
ENDMDL
MODEL 4
REMARK VINA RESULT: -7.460567663      3.845      8.161
REMARK  18 active torsions:
REMARK  status: ('A' for Active; 'I' for Inactive)
REMARK    1  A    between atoms: N1_1  and  C1_4 
REMARK    2  A    between atoms: C2_7  and  C3_8 
REMARK    3  A    between atoms: C4_10  and  C5_11 
REMARK    4  A    between atoms: C6_20  and  C7_21 
REMARK    5  A    between atoms: N8_22  and  C8_24 
REMARK    6  A    between atoms: C9_25  and  C10_26 
REMARK    7  A    between atoms: C10_26  and  C11_27 
REMARK    8  A    between atoms: C11_27  and  O1_28 
REMARK    9  A    between atoms: C11_27  and  C12_30 
REMARK   10  A    between atoms: C12_30  and  O2_31 
REMARK   11  A    between atoms: N11_37  and  C13_38 
REMARK   12  A    between atoms: C13_38  and  C14_39 
REMARK   13  A    between atoms: C13_38  and  C15_44 
REMARK   14  A    between atoms: C14_39  and  O3_40 
REMARK   15  A    between atoms: C14_39  and  O4_42 
REMARK   16  A    between atoms: C15_44  and  O5_45 
REMARK   17  A    between atoms: C15_44  and  O6_47 
REMARK   18  A    between atoms: C16_49  and  O7_50 
ROOT
HETATM    1  C7  UNL     1     -18.310  22.904   3.460  1.00  0.00     0.120 C 
HETATM    2  N8  UNL     1     -18.520  22.533   4.636  1.00  0.00    -0.347 N 
ATOM      3  H8  UNL     1     -19.415  22.872   4.989  1.00  0.00     0.167 HD
ENDROOT
BRANCH   1   4
HETATM    4  C6  UNL     1     -19.310  23.751   2.725  1.00  0.00     0.068 A 
HETATM    5  C3  UNL     1     -19.230  23.985   1.391  1.00  0.00     0.065 A 
HETATM    6  S1  UNL     1     -20.535  25.173   1.223  1.00  0.00    -0.064 SA
HETATM    7  C4  UNL     1     -21.027  25.229   2.842  1.00  0.00     0.122 A 
HETATM    8  N7  UNL     1     -20.217  24.387   3.411  1.00  0.00    -0.345 N 
ATOM      9  H7  UNL     1     -20.294  24.220   4.415  1.00  0.00     0.167 HD
BRANCH   5  10
HETATM   10  C2  UNL     1     -18.495  23.440   0.271  1.00  0.00     0.107 A 
HETATM   11  N2  UNL     1     -18.036  24.401  -0.608  1.00  0.00    -0.188 N 
HETATM   12  C1  UNL     1     -17.384  24.101  -1.736  1.00  0.00     0.679 A 
ATOM     13  H2  UNL     1     -18.201  25.383  -0.385  1.00  0.00     0.184 HD
HETATM   14  N12 UNL     1     -17.128  22.832  -2.099  1.00  0.00    -0.154 N 
HETATM   15  C17 UNL     1     -17.556  21.872  -1.282  1.00  0.00     0.295 A 
ATOM     16  H12 UNL     1     -16.629  22.614  -2.962  1.00  0.00     0.187 HD
HETATM   17  C16 UNL     1     -18.250  22.163  -0.081  1.00  0.00     0.164 A 
HETATM   18  O8  UNL     1     -17.333  20.673  -1.591  1.00  0.00    -0.265 OA
BRANCH  12  19
HETATM   19  N1  UNL     1     -16.967  25.023  -2.543  1.00  0.00    -0.234 N 
ATOM     20  H12 UNL     1     -17.448  25.921  -2.490  1.00  0.00     0.174 HD
ATOM     21  H11 UNL     1     -16.199  24.857  -3.193  1.00  0.00     0.174 HD
ENDBRANCH  12  19
BRANCH  17  22
HETATM   22  O7  UNL     1     -18.628  21.074   0.618  1.00  0.00    -0.354 OA
ATOM     23  H7  UNL     1     -19.407  21.009   1.157  1.00  0.00     0.218 HD
ENDBRANCH  17  22
ENDBRANCH   5  10
BRANCH   7  24
HETATM   24  C5  UNL     1     -22.073  25.994   3.527  1.00  0.00     0.165 A 
HETATM   25  N3  UNL     1     -22.584  27.186   3.186  1.00  0.00    -0.268 N 
HETATM   26  N4  UNL     1     -23.519  27.545   4.059  1.00  0.00    -0.007 NA
ATOM     27  H3  UNL     1     -22.297  27.735   2.375  1.00  0.00     0.185 HD
HETATM   28  N5  UNL     1     -23.607  26.585   4.960  1.00  0.00    -0.007 NA
HETATM   29  N6  UNL     1     -22.729  25.640   4.641  1.00  0.00    -0.268 N 
ATOM     30  H6  UNL     1     -22.578  24.777   5.163  1.00  0.00     0.185 HD
ENDBRANCH   7  24
ENDBRANCH   1   4
BRANCH   2  31
HETATM   31  C8  UNL     1     -17.857  21.792   5.564  1.00  0.00     0.148 A 
HETATM   32  C9  UNL     1     -18.280  20.708   6.286  1.00  0.00     0.075 A 
HETATM   33  N9  UNL     1     -17.262  20.299   7.110  1.00  0.00    -0.286 N 
HETATM   34  N10 UNL     1     -16.270  21.111   6.885  1.00  0.00    -0.238 N 
ATOM     35  H9  UNL     1     -17.280  19.518   7.766  1.00  0.00     0.188 HD
HETATM   36  N11 UNL     1     -16.585  22.007   5.976  1.00  0.00    -0.246 N 
ATOM     37  H10 UNL     1     -15.365  21.059   7.353  1.00  0.00     0.208 HD
BRANCH  32  38
HETATM   38  C10 UNL     1     -19.594  20.054   6.220  1.00  0.00     0.096 C 
BRANCH  38  39
HETATM   39  C11 UNL     1     -19.677  19.014   5.128  1.00  0.00     0.147 C 
BRANCH  39  40
HETATM   40  O1  UNL     1     -19.976  17.753   5.575  1.00  0.00    -0.393 OA
ATOM     41  H1  UNL     1     -20.814  17.422   5.274  1.00  0.00     0.210 HD
ENDBRANCH  39  40
BRANCH  39  42
HETATM   42  C12 UNL     1     -20.581  19.512   4.021  1.00  0.00     0.196 C 
BRANCH  42  43
HETATM   43  O2  UNL     1     -19.725  19.953   2.998  1.00  0.00    -0.398 OA
ATOM     44  H2  UNL     1     -20.232  20.574   2.487  1.00  0.00     0.209 HD
ENDBRANCH  42  43
ENDBRANCH  39  42
ENDBRANCH  38  39
ENDBRANCH  32  38
BRANCH  36  45
HETATM   45  C13 UNL     1     -15.738  23.048   5.494  1.00  0.00     0.220 C 
BRANCH  45  46
HETATM   46  C14 UNL     1     -15.978  24.301   6.308  1.00  0.00     0.283 C 
BRANCH  46  47
HETATM   47  O3  UNL     1     -16.870  25.174   5.738  1.00  0.00    -0.369 OA
ATOM     48  H3  UNL     1     -17.297  25.750   6.360  1.00  0.00     0.212 HD
ENDBRANCH  46  47
BRANCH  46  49
HETATM   49  O4  UNL     1     -16.458  23.979   7.594  1.00  0.00    -0.369 OA
ATOM     50  H4  UNL     1     -15.849  24.267   8.264  1.00  0.00     0.212 HD
ENDBRANCH  46  49
ENDBRANCH  45  46
BRANCH  45  51
HETATM   51  C15 UNL     1     -14.299  22.587   5.653  1.00  0.00     0.283 C 
BRANCH  51  52
HETATM   52  O5  UNL     1     -13.849  22.650   6.946  1.00  0.00    -0.369 OA
ATOM     53  H5  UNL     1     -12.922  22.461   7.031  1.00  0.00     0.212 HD
ENDBRANCH  51  52
BRANCH  51  54
HETATM   54  O6  UNL     1     -14.093  21.342   5.086  1.00  0.00    -0.369 OA
ATOM     55  H6  UNL     1     -14.095  21.383   4.136  1.00  0.00     0.212 HD
ENDBRANCH  51  54
ENDBRANCH  45  51
ENDBRANCH  36  45
ENDBRANCH   2  31
TORSDOF 18
ENDMDL
MODEL 5
REMARK VINA RESULT: -7.402714632      2.081      5.338
REMARK  18 active torsions:
REMARK  status: ('A' for Active; 'I' for Inactive)
REMARK    1  A    between atoms: N1_1  and  C1_4 
REMARK    2  A    between atoms: C2_7  and  C3_8 
REMARK    3  A    between atoms: C4_10  and  C5_11 
REMARK    4  A    between atoms: C6_20  and  C7_21 
REMARK    5  A    between atoms: N8_22  and  C8_24 
REMARK    6  A    between atoms: C9_25  and  C10_26 
REMARK    7  A    between atoms: C10_26  and  C11_27 
REMARK    8  A    between atoms: C11_27  and  O1_28 
REMARK    9  A    between atoms: C11_27  and  C12_30 
REMARK   10  A    between atoms: C12_30  and  O2_31 
REMARK   11  A    between atoms: N11_37  and  C13_38 
REMARK   12  A    between atoms: C13_38  and  C14_39 
REMARK   13  A    between atoms: C13_38  and  C15_44 
REMARK   14  A    between atoms: C14_39  and  O3_40 
REMARK   15  A    between atoms: C14_39  and  O4_42 
REMARK   16  A    between atoms: C15_44  and  O5_45 
REMARK   17  A    between atoms: C15_44  and  O6_47 
REMARK   18  A    between atoms: C16_49  and  O7_50 
ROOT
HETATM    1  C7  UNL     1     -20.044  20.998   2.160  1.00  0.00     0.120 C 
HETATM    2  N8  UNL     1     -21.051  21.638   1.782  1.00  0.00    -0.347 N 
ATOM      3  H8  UNL     1     -21.090  21.721   0.766  1.00  0.00     0.167 HD
ENDROOT
BRANCH   1   4
HETATM    4  C6  UNL     1     -19.056  20.453   1.169  1.00  0.00     0.068 A 
HETATM    5  C3  UNL     1     -18.410  21.239   0.272  1.00  0.00     0.065 A 
HETATM    6  S1  UNL     1     -17.595  19.988  -0.683  1.00  0.00    -0.064 SA
HETATM    7  C4  UNL     1     -18.156  18.631   0.159  1.00  0.00     0.122 A 
HETATM    8  N7  UNL     1     -18.903  19.161   1.081  1.00  0.00    -0.345 N 
ATOM      9  H7  UNL     1     -19.378  18.555   1.750  1.00  0.00     0.167 HD
BRANCH   5  10
HETATM   10  C2  UNL     1     -18.202  22.658   0.076  1.00  0.00     0.107 A 
HETATM   11  N2  UNL     1     -18.179  23.034  -1.252  1.00  0.00    -0.188 N 
HETATM   12  C1  UNL     1     -17.942  24.289  -1.647  1.00  0.00     0.679 A 
ATOM     13  H2  UNL     1     -18.351  22.323  -1.963  1.00  0.00     0.184 HD
HETATM   14  N12 UNL     1     -17.706  25.283  -0.772  1.00  0.00    -0.154 N 
HETATM   15  C17 UNL     1     -17.717  24.963   0.521  1.00  0.00     0.295 A 
ATOM     16  H12 UNL     1     -17.528  26.237  -1.084  1.00  0.00     0.187 HD
HETATM   17  C16 UNL     1     -17.963  23.641   0.966  1.00  0.00     0.164 A 
HETATM   18  O8  UNL     1     -17.500  25.869   1.367  1.00  0.00    -0.265 OA
BRANCH  12  19
HETATM   19  N1  UNL     1     -17.923  24.613  -2.900  1.00  0.00    -0.234 N 
ATOM     20  H12 UNL     1     -18.345  23.945  -3.546  1.00  0.00     0.174 HD
ATOM     21  H11 UNL     1     -17.511  25.490  -3.219  1.00  0.00     0.174 HD
ENDBRANCH  12  19
BRANCH  17  22
HETATM   22  O7  UNL     1     -17.918  23.490   2.304  1.00  0.00    -0.354 OA
ATOM     23  H7  UNL     1     -17.830  22.662   2.761  1.00  0.00     0.218 HD
ENDBRANCH  17  22
ENDBRANCH   5  10
BRANCH   7  24
HETATM   24  C5  UNL     1     -17.928  17.195  -0.024  1.00  0.00     0.165 A 
HETATM   25  N3  UNL     1     -17.195  16.371   0.739  1.00  0.00    -0.268 N 
HETATM   26  N4  UNL     1     -17.238  15.138   0.246  1.00  0.00    -0.007 NA
ATOM     27  H3  UNL     1     -16.680  16.651   1.574  1.00  0.00     0.185 HD
HETATM   28  N5  UNL     1     -17.998  15.171  -0.833  1.00  0.00    -0.007 NA
HETATM   29  N6  UNL     1     -18.419  16.419  -1.000  1.00  0.00    -0.268 N 
ATOM     30  H6  UNL     1     -19.024  16.740  -1.756  1.00  0.00     0.185 HD
ENDBRANCH   7  24
ENDBRANCH   1   4
BRANCH   2  31
HETATM   31  C8  UNL     1     -22.106  22.251   2.382  1.00  0.00     0.148 A 
HETATM   32  C9  UNL     1     -23.274  21.718   2.861  1.00  0.00     0.075 A 
HETATM   33  N9  UNL     1     -24.046  22.729   3.374  1.00  0.00    -0.286 N 
HETATM   34  N10 UNL     1     -23.361  23.823   3.207  1.00  0.00    -0.238 N 
ATOM     35  H9  UNL     1     -24.968  22.641   3.800  1.00  0.00     0.188 HD
HETATM   36  N11 UNL     1     -22.208  23.579   2.623  1.00  0.00    -0.246 N 
ATOM     37  H10 UNL     1     -23.677  24.750   3.491  1.00  0.00     0.208 HD
BRANCH  32  38
HETATM   38  C10 UNL     1     -23.675  20.304   2.851  1.00  0.00     0.096 C 
BRANCH  38  39
HETATM   39  C11 UNL     1     -22.922  19.475   3.864  1.00  0.00     0.147 C 
BRANCH  39  40
HETATM   40  O1  UNL     1     -23.584  19.303   5.052  1.00  0.00    -0.393 OA
ATOM     41  H1  UNL     1     -23.056  18.914   5.739  1.00  0.00     0.210 HD
ENDBRANCH  39  40
BRANCH  39  42
HETATM   42  C12 UNL     1     -22.456  18.187   3.219  1.00  0.00     0.196 C 
BRANCH  42  43
HETATM   43  O2  UNL     1     -22.018  18.539   1.932  1.00  0.00    -0.398 OA
ATOM     44  H2  UNL     1     -21.879  19.479   1.955  1.00  0.00     0.209 HD
ENDBRANCH  42  43
ENDBRANCH  39  42
ENDBRANCH  38  39
ENDBRANCH  32  38
BRANCH  36  45
HETATM   45  C13 UNL     1     -21.215  24.546   2.287  1.00  0.00     0.220 C 
BRANCH  45  46
HETATM   46  C14 UNL     1     -21.837  25.614   1.414  1.00  0.00     0.283 C 
BRANCH  46  47
HETATM   47  O3  UNL     1     -20.936  26.282   0.624  1.00  0.00    -0.369 OA
ATOM     48  H3  UNL     1     -20.921  25.987  -0.278  1.00  0.00     0.212 HD
ENDBRANCH  46  47
BRANCH  46  49
HETATM   49  O4  UNL     1     -22.820  25.060   0.568  1.00  0.00    -0.369 OA
ATOM     50  H4  UNL     1     -23.293  25.742   0.107  1.00  0.00     0.212 HD
ENDBRANCH  46  49
ENDBRANCH  45  46
BRANCH  45  51
HETATM   51  C15 UNL     1     -20.706  25.158   3.582  1.00  0.00     0.283 C 
BRANCH  51  52
HETATM   52  O5  UNL     1     -19.558  25.888   3.421  1.00  0.00    -0.369 OA
ATOM     53  H5  UNL     1     -19.654  26.799   3.676  1.00  0.00     0.212 HD
ENDBRANCH  51  52
BRANCH  51  54
HETATM   54  O6  UNL     1     -21.695  25.870   4.237  1.00  0.00    -0.369 OA
ATOM     55  H6  UNL     1     -21.346  26.368   4.967  1.00  0.00     0.212 HD
ENDBRANCH  51  54
ENDBRANCH  45  51
ENDBRANCH  36  45
ENDBRANCH   2  31
TORSDOF 18
ENDMDL
