MODEL 1
REMARK VINA RESULT: -6.240526480      0.000      0.000
REMARK  10 active torsions:
REMARK  status: ('A' for Active; 'I' for Inactive)
REMARK    1  A    between atoms: O1_2  and  C2_3 
REMARK    2  A    between atoms: C12_14  and  O3_15 
REMARK    3  A    between atoms: C15_19  and  C16_20 
REMARK    4  A    between atoms: C16_20  and  O5_22 
REMARK    5  A    between atoms: O5_22  and  C17_23 
REMARK    6  A    between atoms: C17_23  and  C18_24 
REMARK    7  A    between atoms: C18_24  and  C19_25 
REMARK    8  A    between atoms: C19_25  and  C20_26 
REMARK    9  A    between atoms: C21_28  and  C23_30 
REMARK   10  A    between atoms: C23_30  and  O6_31 
ROOT
HETATM    1  C2  UNL     1       6.365   7.854  21.903  1.00  0.00     0.106 C 
HETATM    2  C3  UNL     1       6.987   9.139  21.399  1.00  0.00     0.029 C 
HETATM    3  C4  UNL     1       7.387  10.161  22.355  1.00  0.00     0.011 C 
HETATM    4  C5  UNL     1       7.751   9.743  23.723  1.00  0.00     0.041 C 
HETATM    5  C6  UNL     1       7.797   8.277  23.952  1.00  0.00     0.087 A 
HETATM    6  C7  UNL     1       8.087   7.896  25.398  1.00  0.00     0.049 C 
HETATM    7  O2  UNL     1       8.583   7.568  23.046  1.00  0.00    -0.366 OA
HETATM    8  C8  UNL     1       7.208   7.358  23.071  1.00  0.00     0.192 A 
HETATM    9  C9  UNL     1       5.998   9.636  20.435  1.00  0.00     0.008 C 
HETATM   10  C10 UNL     1       6.049  10.989  19.892  1.00  0.00     0.009 C 
HETATM   11  C11 UNL     1       5.094  10.829  18.696  1.00  0.00     0.033 C 
HETATM   12  C12 UNL     1       4.999   9.308  18.448  1.00  0.00     0.131 C 
HETATM   13  C13 UNL     1       6.203   8.822  19.143  1.00  0.00     0.016 C 
HETATM   14  C14 UNL     1       7.384   9.536  18.445  1.00  0.00     0.023 C 
HETATM   15  C15 UNL     1       6.481   7.396  19.367  1.00  0.00     0.020 C 
HETATM   16  C21 UNL     1       6.461   6.847  20.756  1.00  0.00     0.042 C 
HETATM   17  C22 UNL     1       7.760   6.052  21.033  1.00  0.00     0.026 C 
ENDROOT
BRANCH  15  18
HETATM   18  C16 UNL     1       5.887   6.470  18.367  1.00  0.00     0.287 C 
HETATM   19  O4  UNL     1       4.655   6.291  18.193  1.00  0.00    -0.260 OA
BRANCH  18  20
HETATM   20  O5  UNL     1       6.658   5.698  17.512  1.00  0.00    -0.318 OA
BRANCH  20  21
HETATM   21  C17 UNL     1       6.706   4.298  17.545  1.00  0.00     0.179 C 
BRANCH  21  22
HETATM   22  C18 UNL     1       7.950   3.840  18.229  1.00  0.00     0.028 C 
BRANCH  22  23
HETATM   23  C19 UNL     1       7.639   2.899  19.368  1.00  0.00     0.013 C 
BRANCH  23  24
HETATM   24  C20 UNL     1       8.342   1.578  19.123  1.00  0.00     0.085 C 
HETATM   25 BR1  UNL     1       9.940   1.905  18.074  1.00  0.00    -0.097 Br
ENDBRANCH  23  24
ENDBRANCH  22  23
ENDBRANCH  21  22
ENDBRANCH  20  21
ENDBRANCH  18  20
ENDBRANCH  15  18
BRANCH  16  26
HETATM   26  C23 UNL     1       5.387   5.811  21.012  1.00  0.00     0.181 C 
BRANCH  26  27
HETATM   27  O6  UNL     1       5.775   4.720  21.736  1.00  0.00    -0.400 OA
ATOM     28  H6  UNL     1       5.134   4.382  22.351  1.00  0.00     0.209 HD
ENDBRANCH  26  27
ENDBRANCH  16  26
BRANCH  12  29
HETATM   29  O3  UNL     1       3.780   8.943  19.003  1.00  0.00    -0.394 OA
ATOM     30  H3  UNL     1       3.841   8.001  19.107  1.00  0.00     0.210 HD
ENDBRANCH  12  29
BRANCH   1  31
HETATM   31  O1  UNL     1       5.051   7.943  22.236  1.00  0.00    -0.381 OA
HETATM   32  C1  UNL     1       4.581   7.556  23.426  1.00  0.00     0.202 C 
ENDBRANCH   1  31
TORSDOF 10
ENDMDL
MODEL 2
REMARK VINA RESULT: -6.141013077      2.369      5.003
REMARK  10 active torsions:
REMARK  status: ('A' for Active; 'I' for Inactive)
REMARK    1  A    between atoms: O1_2  and  C2_3 
REMARK    2  A    between atoms: C12_14  and  O3_15 
REMARK    3  A    between atoms: C15_19  and  C16_20 
REMARK    4  A    between atoms: C16_20  and  O5_22 
REMARK    5  A    between atoms: O5_22  and  C17_23 
REMARK    6  A    between atoms: C17_23  and  C18_24 
REMARK    7  A    between atoms: C18_24  and  C19_25 
REMARK    8  A    between atoms: C19_25  and  C20_26 
REMARK    9  A    between atoms: C21_28  and  C23_30 
REMARK   10  A    between atoms: C23_30  and  O6_31 
ROOT
HETATM    1  C2  UNL     1       4.098   6.306  21.925  1.00  0.00     0.106 C 
HETATM    2  C3  UNL     1       3.673   4.856  21.833  1.00  0.00     0.029 C 
HETATM    3  C4  UNL     1       2.693   4.338  22.776  1.00  0.00     0.011 C 
HETATM    4  C5  UNL     1       1.717   5.276  23.365  1.00  0.00     0.041 C 
HETATM    5  C6  UNL     1       1.755   6.658  22.825  1.00  0.00     0.087 A 
HETATM    6  C7  UNL     1       0.794   7.611  23.526  1.00  0.00     0.049 C 
HETATM    7  O2  UNL     1       1.674   6.746  21.437  1.00  0.00    -0.366 OA
HETATM    8  C8  UNL     1       2.839   7.149  22.083  1.00  0.00     0.192 A 
HETATM    9  C9  UNL     1       4.946   4.128  21.898  1.00  0.00     0.008 C 
HETATM   10  C10 UNL     1       5.010   2.685  22.111  1.00  0.00     0.009 C 
HETATM   11  C11 UNL     1       6.466   2.421  21.688  1.00  0.00     0.033 C 
HETATM   12  C12 UNL     1       6.882   3.655  20.857  1.00  0.00     0.131 C 
HETATM   13  C13 UNL     1       5.571   4.218  20.492  1.00  0.00     0.016 C 
HETATM   14  C14 UNL     1       4.859   3.095  19.703  1.00  0.00     0.023 C 
HETATM   15  C15 UNL     1       5.411   5.528  19.845  1.00  0.00     0.020 C 
HETATM   16  C21 UNL     1       4.763   6.648  20.591  1.00  0.00     0.042 C 
HETATM   17  C22 UNL     1       3.637   7.276  19.736  1.00  0.00     0.026 C 
ENDROOT
BRANCH  15  18
HETATM   18  C16 UNL     1       6.564   5.971  19.018  1.00  0.00     0.287 C 
HETATM   19  O4  UNL     1       7.645   6.425  19.471  1.00  0.00    -0.260 OA
BRANCH  18  20
HETATM   20  O5  UNL     1       6.553   5.922  17.632  1.00  0.00    -0.318 OA
BRANCH  20  21
HETATM   21  C17 UNL     1       6.518   4.736  16.888  1.00  0.00     0.179 C 
BRANCH  21  22
HETATM   22  C18 UNL     1       7.634   3.835  17.299  1.00  0.00     0.028 C 
BRANCH  22  23
HETATM   23  C19 UNL     1       7.829   2.711  16.310  1.00  0.00     0.013 C 
BRANCH  23  24
HETATM   24  C20 UNL     1       9.103   1.964  16.656  1.00  0.00     0.085 C 
HETATM   25 BR1  UNL     1       9.130   1.626  18.565  1.00  0.00    -0.097 Br
ENDBRANCH  23  24
ENDBRANCH  22  23
ENDBRANCH  21  22
ENDBRANCH  20  21
ENDBRANCH  18  20
ENDBRANCH  15  18
BRANCH  16  26
HETATM   26  C23 UNL     1       5.665   7.835  20.861  1.00  0.00     0.181 C 
BRANCH  26  27
HETATM   27  O6  UNL     1       5.063   9.060  20.814  1.00  0.00    -0.400 OA
ATOM     28  H6  UNL     1       4.831   9.374  19.947  1.00  0.00     0.209 HD
ENDBRANCH  26  27
ENDBRANCH  16  26
BRANCH  12  29
HETATM   29  O3  UNL     1       7.655   4.412  21.726  1.00  0.00    -0.394 OA
ATOM     30  H3  UNL     1       8.501   3.980  21.728  1.00  0.00     0.210 HD
ENDBRANCH  12  29
BRANCH   1  31
HETATM   31  O1  UNL     1       5.008   6.578  22.896  1.00  0.00    -0.381 OA
HETATM   32  C1  UNL     1       4.687   7.217  24.026  1.00  0.00     0.202 C 
ENDBRANCH   1  31
TORSDOF 10
ENDMDL
MODEL 3
REMARK VINA RESULT: -6.119886353      2.305      3.845
REMARK  10 active torsions:
REMARK  status: ('A' for Active; 'I' for Inactive)
REMARK    1  A    between atoms: O1_2  and  C2_3 
REMARK    2  A    between atoms: C12_14  and  O3_15 
REMARK    3  A    between atoms: C15_19  and  C16_20 
REMARK    4  A    between atoms: C16_20  and  O5_22 
REMARK    5  A    between atoms: O5_22  and  C17_23 
REMARK    6  A    between atoms: C17_23  and  C18_24 
REMARK    7  A    between atoms: C18_24  and  C19_25 
REMARK    8  A    between atoms: C19_25  and  C20_26 
REMARK    9  A    between atoms: C21_28  and  C23_30 
REMARK   10  A    between atoms: C23_30  and  O6_31 
ROOT
HETATM    1  C2  UNL     1       4.460   5.086  21.130  1.00  0.00     0.106 C 
HETATM    2  C3  UNL     1       5.044   6.207  21.963  1.00  0.00     0.029 C 
HETATM    3  C4  UNL     1       4.227   6.833  22.992  1.00  0.00     0.011 C 
HETATM    4  C5  UNL     1       3.149   6.040  23.615  1.00  0.00     0.041 C 
HETATM    5  C6  UNL     1       3.091   4.613  23.211  1.00  0.00     0.087 A 
HETATM    6  C7  UNL     1       1.909   3.860  23.809  1.00  0.00     0.049 C 
HETATM    7  O2  UNL     1       4.290   3.917  23.348  1.00  0.00    -0.366 OA
HETATM    8  C8  UNL     1       3.757   4.122  22.079  1.00  0.00     0.192 A 
HETATM    9  C9  UNL     1       5.502   7.171  20.955  1.00  0.00     0.008 C 
HETATM   10  C10 UNL     1       5.897   8.533  21.300  1.00  0.00     0.009 C 
HETATM   11  C11 UNL     1       6.642   8.925  20.012  1.00  0.00     0.033 C 
HETATM   12  C12 UNL     1       6.973   7.591  19.307  1.00  0.00     0.131 C 
HETATM   13  C13 UNL     1       6.843   6.633  20.418  1.00  0.00     0.016 C 
HETATM   14  C14 UNL     1       7.873   7.100  21.472  1.00  0.00     0.023 C 
HETATM   15  C15 UNL     1       6.875   5.176  20.230  1.00  0.00     0.020 C 
HETATM   16  C21 UNL     1       5.642   4.369  20.477  1.00  0.00     0.042 C 
HETATM   17  C22 UNL     1       5.961   3.187  21.423  1.00  0.00     0.026 C 
ENDROOT
BRANCH  15  18
HETATM   18  C16 UNL     1       7.649   4.706  19.050  1.00  0.00     0.287 C 
HETATM   19  O4  UNL     1       7.372   4.972  17.853  1.00  0.00    -0.260 OA
BRANCH  18  20
HETATM   20  O5  UNL     1       8.778   3.909  19.166  1.00  0.00    -0.318 OA
BRANCH  20  21
HETATM   21  C17 UNL     1       9.142   2.922  18.240  1.00  0.00     0.179 C 
BRANCH  21  22
HETATM   22  C18 UNL     1       9.105   1.575  18.880  1.00  0.00     0.028 C 
BRANCH  22  23
HETATM   23  C19 UNL     1      10.034   0.609  18.185  1.00  0.00     0.013 C 
BRANCH  23  24
HETATM   24  C20 UNL     1       9.312  -0.004  17.000  1.00  0.00     0.085 C 
HETATM   25 BR1  UNL     1      10.035  -1.774  16.675  1.00  0.00    -0.097 Br
ENDBRANCH  23  24
ENDBRANCH  22  23
ENDBRANCH  21  22
ENDBRANCH  20  21
ENDBRANCH  18  20
ENDBRANCH  15  18
BRANCH  16  26
HETATM   26  C23 UNL     1       5.088   3.667  19.255  1.00  0.00     0.181 C 
BRANCH  26  27
HETATM   27  O6  UNL     1       5.213   2.307  19.245  1.00  0.00    -0.400 OA
ATOM     28  H6  UNL     1       4.416   1.820  19.073  1.00  0.00     0.209 HD
ENDBRANCH  26  27
ENDBRANCH  16  26
BRANCH  12  29
HETATM   29  O3  UNL     1       6.027   7.491  18.295  1.00  0.00    -0.394 OA
ATOM     30  H3  UNL     1       5.231   7.228  18.741  1.00  0.00     0.210 HD
ENDBRANCH  12  29
BRANCH   1  31
HETATM   31  O1  UNL     1       3.640   5.484  20.124  1.00  0.00    -0.381 OA
HETATM   32  C1  UNL     1       2.308   5.402  20.202  1.00  0.00     0.202 C 
ENDBRANCH   1  31
TORSDOF 10
ENDMDL
MODEL 4
REMARK VINA RESULT: -6.079709481      1.214      1.356
REMARK  10 active torsions:
REMARK  status: ('A' for Active; 'I' for Inactive)
REMARK    1  A    between atoms: O1_2  and  C2_3 
REMARK    2  A    between atoms: C12_14  and  O3_15 
REMARK    3  A    between atoms: C15_19  and  C16_20 
REMARK    4  A    between atoms: C16_20  and  O5_22 
REMARK    5  A    between atoms: O5_22  and  C17_23 
REMARK    6  A    between atoms: C17_23  and  C18_24 
REMARK    7  A    between atoms: C18_24  and  C19_25 
REMARK    8  A    between atoms: C19_25  and  C20_26 
REMARK    9  A    between atoms: C21_28  and  C23_30 
REMARK   10  A    between atoms: C23_30  and  O6_31 
ROOT
HETATM    1  C2  UNL     1       6.441   7.929  21.399  1.00  0.00     0.106 C 
HETATM    2  C3  UNL     1       6.423   9.162  20.521  1.00  0.00     0.029 C 
HETATM    3  C4  UNL     1       6.835  10.441  21.079  1.00  0.00     0.011 C 
HETATM    4  C5  UNL     1       7.793  10.445  22.202  1.00  0.00     0.041 C 
HETATM    5  C6  UNL     1       8.348   9.118  22.572  1.00  0.00     0.087 A 
HETATM    6  C7  UNL     1       9.259   9.160  23.793  1.00  0.00     0.049 C 
HETATM    7  O2  UNL     1       8.905   8.402  21.516  1.00  0.00    -0.366 OA
HETATM    8  C8  UNL     1       7.767   7.914  22.150  1.00  0.00     0.192 A 
HETATM    9  C9  UNL     1       5.044   9.194  20.017  1.00  0.00     0.008 C 
HETATM   10  C10 UNL     1       4.490  10.361  19.338  1.00  0.00     0.009 C 
HETATM   11  C11 UNL     1       3.246   9.723  18.693  1.00  0.00     0.033 C 
HETATM   12  C12 UNL     1       3.514   8.202  18.703  1.00  0.00     0.131 C 
HETATM   13  C13 UNL     1       4.976   8.162  18.874  1.00  0.00     0.016 C 
HETATM   14  C14 UNL     1       5.542   8.928  17.656  1.00  0.00     0.023 C 
HETATM   15  C15 UNL     1       5.721   6.923  19.136  1.00  0.00     0.020 C 
HETATM   16  C21 UNL     1       6.387   6.725  20.458  1.00  0.00     0.042 C 
HETATM   17  C22 UNL     1       7.865   6.315  20.253  1.00  0.00     0.026 C 
ENDROOT
BRANCH  15  18
HETATM   18  C16 UNL     1       5.093   5.683  18.610  1.00  0.00     0.287 C 
HETATM   19  O4  UNL     1       3.944   5.272  18.913  1.00  0.00    -0.260 OA
BRANCH  18  20
HETATM   20  O5  UNL     1       5.734   4.842  17.713  1.00  0.00    -0.318 OA
BRANCH  20  21
HETATM   21  C17 UNL     1       6.456   3.700  18.084  1.00  0.00     0.179 C 
BRANCH  21  22
HETATM   22  C18 UNL     1       7.857   3.789  17.577  1.00  0.00     0.028 C 
BRANCH  22  23
HETATM   23  C19 UNL     1       8.852   3.362  18.630  1.00  0.00     0.013 C 
BRANCH  23  24
HETATM   24  C20 UNL     1       8.581   1.918  19.007  1.00  0.00     0.085 C 
HETATM   25 BR1  UNL     1       9.944   0.796  18.203  1.00  0.00    -0.097 Br
ENDBRANCH  23  24
ENDBRANCH  22  23
ENDBRANCH  21  22
ENDBRANCH  20  21
ENDBRANCH  18  20
ENDBRANCH  15  18
BRANCH  16  26
HETATM   26  C23 UNL     1       5.842   5.572  21.276  1.00  0.00     0.181 C 
BRANCH  26  27
HETATM   27  O6  UNL     1       6.728   4.572  21.555  1.00  0.00    -0.400 OA
ATOM     28  H6  UNL     1       6.536   4.054  22.328  1.00  0.00     0.209 HD
ENDBRANCH  26  27
ENDBRANCH  16  26
BRANCH  12  29
HETATM   29  O3  UNL     1       2.758   7.725  19.765  1.00  0.00    -0.394 OA
ATOM     30  H3  UNL     1       2.431   6.886  19.464  1.00  0.00     0.210 HD
ENDBRANCH  12  29
BRANCH   1  31
HETATM   31  O1  UNL     1       5.385   7.810  22.246  1.00  0.00    -0.381 OA
HETATM   32  C1  UNL     1       5.530   7.736  23.573  1.00  0.00     0.202 C 
ENDBRANCH   1  31
TORSDOF 10
ENDMDL
MODEL 5
REMARK VINA RESULT: -6.057773712      1.908      3.311
REMARK  10 active torsions:
REMARK  status: ('A' for Active; 'I' for Inactive)
REMARK    1  A    between atoms: O1_2  and  C2_3 
REMARK    2  A    between atoms: C12_14  and  O3_15 
REMARK    3  A    between atoms: C15_19  and  C16_20 
REMARK    4  A    between atoms: C16_20  and  O5_22 
REMARK    5  A    between atoms: O5_22  and  C17_23 
REMARK    6  A    between atoms: C17_23  and  C18_24 
REMARK    7  A    between atoms: C18_24  and  C19_25 
REMARK    8  A    between atoms: C19_25  and  C20_26 
REMARK    9  A    between atoms: C21_28  and  C23_30 
REMARK   10  A    between atoms: C23_30  and  O6_31 
ROOT
HETATM    1  C2  UNL     1       4.391   7.091  22.223  1.00  0.00     0.106 C 
HETATM    2  C3  UNL     1       5.381   7.455  23.309  1.00  0.00     0.029 C 
HETATM    3  C4  UNL     1       4.894   7.739  24.651  1.00  0.00     0.011 C 
HETATM    4  C5  UNL     1       3.632   7.113  25.091  1.00  0.00     0.041 C 
HETATM    5  C6  UNL     1       3.041   6.135  24.143  1.00  0.00     0.087 A 
HETATM    6  C7  UNL     1       1.695   5.584  24.599  1.00  0.00     0.049 C 
HETATM    7  O2  UNL     1       3.911   5.132  23.720  1.00  0.00    -0.366 OA
HETATM    8  C8  UNL     1       3.430   6.058  22.798  1.00  0.00     0.192 A 
HETATM    9  C9  UNL     1       6.111   8.590  22.731  1.00  0.00     0.008 C 
HETATM   10  C10 UNL     1       6.989   9.441  23.529  1.00  0.00     0.009 C 
HETATM   11  C11 UNL     1       7.765  10.146  22.403  1.00  0.00     0.033 C 
HETATM   12  C12 UNL     1       7.556   9.270  21.149  1.00  0.00     0.131 C 
HETATM   13  C13 UNL     1       7.138   7.992  21.751  1.00  0.00     0.016 C 
HETATM   14  C14 UNL     1       8.314   7.575  22.663  1.00  0.00     0.023 C 
HETATM   15  C15 UNL     1       6.630   6.861  20.963  1.00  0.00     0.020 C 
HETATM   16  C21 UNL     1       5.201   6.446  21.097  1.00  0.00     0.042 C 
HETATM   17  C22 UNL     1       5.111   4.925  21.365  1.00  0.00     0.026 C 
ENDROOT
BRANCH  15  18
HETATM   18  C16 UNL     1       7.125   6.791  19.562  1.00  0.00     0.287 C 
HETATM   19  O4  UNL     1       7.056   7.726  18.725  1.00  0.00    -0.260 OA
BRANCH  18  20
HETATM   20  O5  UNL     1       7.725   5.656  19.037  1.00  0.00    -0.318 OA
BRANCH  20  21
HETATM   21  C17 UNL     1       7.184   4.892  17.995  1.00  0.00     0.179 C 
BRANCH  21  22
HETATM   22  C18 UNL     1       7.952   3.622  17.834  1.00  0.00     0.028 C 
BRANCH  22  23
HETATM   23  C19 UNL     1       8.467   3.119  19.161  1.00  0.00     0.013 C 
BRANCH  23  24
HETATM   24  C20 UNL     1       8.412   1.603  19.168  1.00  0.00     0.085 C 
HETATM   25 BR1  UNL     1       9.932   0.916  18.179  1.00  0.00    -0.097 Br
ENDBRANCH  23  24
ENDBRANCH  22  23
ENDBRANCH  21  22
ENDBRANCH  20  21
ENDBRANCH  18  20
ENDBRANCH  15  18
BRANCH  16  26
HETATM   26  C23 UNL     1       4.374   6.603  19.838  1.00  0.00     0.181 C 
BRANCH  26  27
HETATM   27  O6  UNL     1       3.824   5.455  19.342  1.00  0.00    -0.400 OA
ATOM     28  H6  UNL     1       4.427   4.863  18.908  1.00  0.00     0.209 HD
ENDBRANCH  26  27
ENDBRANCH  16  26
BRANCH  12  29
HETATM   29  O3  UNL     1       6.594   9.945  20.412  1.00  0.00    -0.394 OA
ATOM     30  H3  UNL     1       7.086  10.391  19.733  1.00  0.00     0.210 HD
ENDBRANCH  12  29
BRANCH   1  31
HETATM   31  O1  UNL     1       3.727   8.141  21.674  1.00  0.00    -0.381 OA
HETATM   32  C1  UNL     1       2.394   8.238  21.689  1.00  0.00     0.202 C 
ENDBRANCH   1  31
TORSDOF 10
ENDMDL
