MODEL 1
REMARK VINA RESULT: -7.913119556      0.000      0.000
REMARK  10 active torsions:
REMARK  status: ('A' for Active; 'I' for Inactive)
REMARK    1  A    between atoms: C2_2  and  C3_3 
REMARK    2  A    between atoms: C3_3  and  N1_4 
REMARK    3  A    between atoms: N2_7  and  C6_8 
REMARK    4  A    between atoms: C10_12  and  N3_13 
REMARK    5  A    between atoms: N3_13  and  C11_15 
REMARK    6  A    between atoms: C12_18  and  C13_19 
REMARK    7  A    between atoms: C16_24  and  C17_25 
REMARK    8  A    between atoms: C18_28  and  C19_29 
REMARK    9  A    between atoms: C20_30  and  C21_31 
REMARK   10  A    between atoms: C21_31  and  C22_32 
ROOT
HETATM    1  C11 UNL     1       4.064   6.704  23.044  1.00  0.00     0.124 A 
HETATM    2  N4  UNL     1       3.417   7.550  23.857  1.00  0.00    -0.331 N 
ATOM      3  H4  UNL     1       3.694   8.531  23.845  1.00  0.00     0.168 HD
HETATM    4  C12 UNL     1       2.426   7.184  24.686  1.00  0.00     0.086 A 
HETATM    5  N5  UNL     1       2.072   5.899  24.695  1.00  0.00    -0.339 N 
ATOM      6  H5  UNL     1       1.321   5.599  25.318  1.00  0.00     0.167 HD
HETATM    7  C16 UNL     1       2.680   4.968  23.899  1.00  0.00     0.133 A 
HETATM    8  C18 UNL     1       3.689   5.354  23.056  1.00  0.00     0.095 A 
ENDROOT
BRANCH   1   9
HETATM    9  N3  UNL     1       4.999   7.019  22.253  1.00  0.00    -0.370 N 
ATOM     10  H3  UNL     1       4.989   6.532  21.357  1.00  0.00     0.161 HD
BRANCH   9  11
HETATM   11  C10 UNL     1       6.065   7.949  22.420  1.00  0.00     0.085 C 
HETATM   12  C9  UNL     1       6.373   8.752  21.156  1.00  0.00     0.025 C 
HETATM   13  C8  UNL     1       7.300   9.860  21.685  1.00  0.00     0.004 C 
HETATM   14  C7  UNL     1       8.629   9.156  21.905  1.00  0.00     0.036 C 
HETATM   15  C6  UNL     1       8.567   8.017  22.874  1.00  0.00     0.225 C 
HETATM   16  C25 UNL     1       7.282   7.309  23.001  1.00  0.00     0.061 C 
BRANCH  15  17
HETATM   17  N2  UNL     1       9.176   8.326  24.145  1.00  0.00     0.096 N 
HETATM   18  C5  UNL     1       8.324   8.686  25.194  1.00  0.00     0.303 C 
HETATM   19  C4  UNL     1       9.018   8.267  26.503  1.00  0.00     0.302 C 
HETATM   20  N1  UNL     1      10.432   8.607  26.393  1.00  0.00     0.091 N 
HETATM   21  C27 UNL     1      10.665   9.651  25.463  1.00  0.00     0.302 C 
HETATM   22  C26 UNL     1      10.254   9.272  24.039  1.00  0.00     0.303 C 
BRANCH  20  23
HETATM   23  C3  UNL     1      11.268   7.463  26.311  1.00  0.00     0.272 C 
BRANCH  23  24
HETATM   24  C2  UNL     1      12.359   7.541  27.344  1.00  0.00     0.026 C 
HETATM   25  C1  UNL     1      13.738   7.505  26.697  1.00  0.00     0.007 C 
ENDBRANCH  23  24
ENDBRANCH  20  23
ENDBRANCH  15  17
ENDBRANCH   9  11
ENDBRANCH   1   9
BRANCH   8  26
HETATM   26  C19 UNL     1       4.383   4.421  22.180  1.00  0.00    -0.060 C 
HETATM   27  C20 UNL     1       4.947   3.654  21.427  1.00  0.00    -0.097 C 
BRANCH  27  28
HETATM   28  C21 UNL     1       5.632   2.714  20.538  1.00  0.00     0.124 C 
BRANCH  28  29
HETATM   29  C22 UNL     1       6.647   3.505  19.781  1.00  0.00     0.022 C 
HETATM   30  C23 UNL     1       7.785   2.892  19.480  1.00  0.00     0.087 C 
HETATM   31  C24 UNL     1       8.814   3.655  18.727  1.00  0.00     0.082 C 
HETATM   32  F1  UNL     1       8.045   1.611  19.828  1.00  0.00    -0.212 F 
ENDBRANCH  28  29
ENDBRANCH  27  28
ENDBRANCH   8  26
BRANCH   4  33
HETATM   33  C13 UNL     1       1.747   8.196  25.570  1.00  0.00     0.045 C 
HETATM   34  C14 UNL     1       0.693   8.975  24.797  1.00  0.00     0.017 C 
HETATM   35  C15 UNL     1       2.796   9.177  26.026  1.00  0.00     0.017 C 
ENDBRANCH   4  33
BRANCH   7  36
HETATM   36  C17 UNL     1       2.246   3.584  23.954  1.00  0.00     0.228 C 
HETATM   37  O1  UNL     1       2.716   2.805  24.794  1.00  0.00    -0.643 OA
HETATM   38  O2  UNL     1       1.304   3.113  23.068  1.00  0.00    -0.643 OA
ENDBRANCH   7  36
TORSDOF 10
ENDMDL
MODEL 2
REMARK VINA RESULT: -7.650816379      4.330      8.312
REMARK  10 active torsions:
REMARK  status: ('A' for Active; 'I' for Inactive)
REMARK    1  A    between atoms: C2_2  and  C3_3 
REMARK    2  A    between atoms: C3_3  and  N1_4 
REMARK    3  A    between atoms: N2_7  and  C6_8 
REMARK    4  A    between atoms: C10_12  and  N3_13 
REMARK    5  A    between atoms: N3_13  and  C11_15 
REMARK    6  A    between atoms: C12_18  and  C13_19 
REMARK    7  A    between atoms: C16_24  and  C17_25 
REMARK    8  A    between atoms: C18_28  and  C19_29 
REMARK    9  A    between atoms: C20_30  and  C21_31 
REMARK   10  A    between atoms: C21_31  and  C22_32 
ROOT
HETATM    1  C11 UNL     1       6.224   8.979  20.937  1.00  0.00     0.124 A 
HETATM    2  N4  UNL     1       5.315   9.259  19.993  1.00  0.00    -0.331 N 
ATOM      3  H4  UNL     1       4.619   8.548  19.772  1.00  0.00     0.168 HD
HETATM    4  C12 UNL     1       5.266  10.420  19.320  1.00  0.00     0.086 A 
HETATM    5  N5  UNL     1       6.181  11.344  19.615  1.00  0.00    -0.339 N 
ATOM      6  H5  UNL     1       6.162  12.234  19.116  1.00  0.00     0.167 HD
HETATM    7  C16 UNL     1       7.145  11.140  20.564  1.00  0.00     0.133 A 
HETATM    8  C18 UNL     1       7.184   9.952  21.244  1.00  0.00     0.095 A 
ENDROOT
BRANCH   1   9
HETATM    9  N3  UNL     1       6.295   7.896  21.586  1.00  0.00    -0.370 N 
ATOM     10  H3  UNL     1       6.691   7.980  22.523  1.00  0.00     0.161 HD
BRANCH   9  11
HETATM   11  C10 UNL     1       5.909   6.577  21.213  1.00  0.00     0.085 C 
HETATM   12  C9  UNL     1       4.744   6.030  22.039  1.00  0.00     0.025 C 
HETATM   13  C8  UNL     1       4.334   4.777  21.243  1.00  0.00     0.004 C 
HETATM   14  C7  UNL     1       5.416   3.762  21.571  1.00  0.00     0.036 C 
HETATM   15  C6  UNL     1       6.799   4.194  21.194  1.00  0.00     0.225 C 
HETATM   16  C25 UNL     1       7.071   5.642  21.174  1.00  0.00     0.061 C 
BRANCH  15  17
HETATM   17  N2  UNL     1       7.306   3.503  20.033  1.00  0.00     0.096 N 
HETATM   18  C5  UNL     1       7.765   4.286  18.969  1.00  0.00     0.303 C 
HETATM   19  C4  UNL     1       8.851   3.470  18.243  1.00  0.00     0.302 C 
HETATM   20  N1  UNL     1       8.392   2.088  18.154  1.00  0.00     0.091 N 
HETATM   21  C27 UNL     1       6.981   1.983  18.218  1.00  0.00     0.302 C 
HETATM   22  C26 UNL     1       6.413   2.486  19.546  1.00  0.00     0.303 C 
BRANCH  20  23
HETATM   23  C3  UNL     1       9.148   1.205  18.967  1.00  0.00     0.272 C 
BRANCH  23  24
HETATM   24  C2  UNL     1      10.228   0.545  18.153  1.00  0.00     0.026 C 
HETATM   25  C1  UNL     1       9.639  -0.311  17.040  1.00  0.00     0.007 C 
ENDBRANCH  23  24
ENDBRANCH  20  23
ENDBRANCH  15  17
ENDBRANCH   9  11
ENDBRANCH   1   9
BRANCH   8  26
HETATM   26  C19 UNL     1       8.180   9.662  22.267  1.00  0.00    -0.060 C 
HETATM   27  C20 UNL     1       8.994   9.398  23.127  1.00  0.00    -0.097 C 
BRANCH  27  28
HETATM   28  C21 UNL     1       9.984   9.103  24.164  1.00  0.00     0.124 C 
BRANCH  28  29
HETATM   29  C22 UNL     1       9.267   8.352  25.236  1.00  0.00     0.022 C 
HETATM   30  C23 UNL     1       9.983   7.977  26.289  1.00  0.00     0.087 C 
HETATM   31  C24 UNL     1       9.296   7.227  27.373  1.00  0.00     0.082 C 
HETATM   32  F1  UNL     1      11.303   8.245  26.415  1.00  0.00    -0.212 F 
ENDBRANCH  28  29
ENDBRANCH  27  28
ENDBRANCH   8  26
BRANCH   4  33
HETATM   33  C13 UNL     1       4.212  10.660  18.272  1.00  0.00     0.045 C 
HETATM   34  C14 UNL     1       3.805   9.358  17.599  1.00  0.00     0.017 C 
HETATM   35  C15 UNL     1       4.818  11.549  17.216  1.00  0.00     0.017 C 
ENDBRANCH   4  33
BRANCH   7  36
HETATM   36  C17 UNL     1       8.112  12.187  20.840  1.00  0.00     0.228 C 
HETATM   37  O1  UNL     1       8.051  12.847  21.886  1.00  0.00    -0.643 OA
HETATM   38  O2  UNL     1       9.115  12.465  19.939  1.00  0.00    -0.643 OA
ENDBRANCH   7  36
TORSDOF 10
ENDMDL
MODEL 3
REMARK VINA RESULT: -7.578581893      2.239      2.760
REMARK  10 active torsions:
REMARK  status: ('A' for Active; 'I' for Inactive)
REMARK    1  A    between atoms: C2_2  and  C3_3 
REMARK    2  A    between atoms: C3_3  and  N1_4 
REMARK    3  A    between atoms: N2_7  and  C6_8 
REMARK    4  A    between atoms: C10_12  and  N3_13 
REMARK    5  A    between atoms: N3_13  and  C11_15 
REMARK    6  A    between atoms: C12_18  and  C13_19 
REMARK    7  A    between atoms: C16_24  and  C17_25 
REMARK    8  A    between atoms: C18_28  and  C19_29 
REMARK    9  A    between atoms: C20_30  and  C21_31 
REMARK   10  A    between atoms: C21_31  and  C22_32 
ROOT
HETATM    1  C11 UNL     1       4.166   5.278  20.466  1.00  0.00     0.124 A 
HETATM    2  N4  UNL     1       3.040   5.926  20.794  1.00  0.00    -0.331 N 
ATOM      3  H4  UNL     1       2.952   6.903  20.517  1.00  0.00     0.168 HD
HETATM    4  C12 UNL     1       2.022   5.367  21.467  1.00  0.00     0.086 A 
HETATM    5  N5  UNL     1       2.147   4.089  21.827  1.00  0.00    -0.339 N 
ATOM      6  H5  UNL     1       1.384   3.644  22.338  1.00  0.00     0.167 HD
HETATM    7  C16 UNL     1       3.262   3.354  21.532  1.00  0.00     0.133 A 
HETATM    8  C18 UNL     1       4.294   3.936  20.845  1.00  0.00     0.095 A 
ENDROOT
BRANCH   1   9
HETATM    9  N3  UNL     1       5.141   5.778  19.833  1.00  0.00    -0.370 N 
ATOM     10  H3  UNL     1       5.347   5.334  18.939  1.00  0.00     0.161 HD
BRANCH   9  11
HETATM   11  C10 UNL     1       5.995   6.865  20.177  1.00  0.00     0.085 C 
HETATM   12  C9  UNL     1       6.748   7.446  18.980  1.00  0.00     0.025 C 
HETATM   13  C8  UNL     1       7.318   8.756  19.552  1.00  0.00     0.004 C 
HETATM   14  C7  UNL     1       8.477   8.304  20.425  1.00  0.00     0.036 C 
HETATM   15  C6  UNL     1       8.087   7.374  21.532  1.00  0.00     0.225 C 
HETATM   16  C25 UNL     1       6.901   6.528  21.314  1.00  0.00     0.061 C 
BRANCH  15  17
HETATM   17  N2  UNL     1       8.106   8.005  22.829  1.00  0.00     0.096 N 
HETATM   18  C5  UNL     1       6.931   8.630  23.257  1.00  0.00     0.303 C 
HETATM   19  C4  UNL     1       6.920   8.568  24.796  1.00  0.00     0.302 C 
HETATM   20  N1  UNL     1       8.269   8.864  25.268  1.00  0.00     0.091 N 
HETATM   21  C27 UNL     1       9.013   9.626  24.333  1.00  0.00     0.302 C 
HETATM   22  C26 UNL     1       9.228   8.888  23.011  1.00  0.00     0.303 C 
BRANCH  20  23
HETATM   23  C3  UNL     1       8.909   7.737  25.845  1.00  0.00     0.272 C 
BRANCH  23  24
HETATM   24  C2  UNL     1      10.213   8.145  26.474  1.00  0.00     0.026 C 
HETATM   25  C1  UNL     1      10.765   7.043  27.371  1.00  0.00     0.007 C 
ENDBRANCH  23  24
ENDBRANCH  20  23
ENDBRANCH  15  17
ENDBRANCH   9  11
ENDBRANCH   1   9
BRANCH   8  26
HETATM   26  C19 UNL     1       5.512   3.217  20.497  1.00  0.00    -0.060 C 
HETATM   27  C20 UNL     1       6.542   2.637  20.223  1.00  0.00    -0.097 C 
BRANCH  27  28
HETATM   28  C21 UNL     1       7.775   1.929  19.873  1.00  0.00     0.124 C 
BRANCH  28  29
HETATM   29  C22 UNL     1       7.798   1.823  18.385  1.00  0.00     0.022 C 
HETATM   30  C23 UNL     1       8.907   2.218  17.771  1.00  0.00     0.087 C 
HETATM   31  C24 UNL     1       8.959   2.125  16.289  1.00  0.00     0.082 C 
HETATM   32  F1  UNL     1       9.982   2.701  18.434  1.00  0.00    -0.212 F 
ENDBRANCH  28  29
ENDBRANCH  27  28
ENDBRANCH   8  26
BRANCH   4  33
HETATM   33  C13 UNL     1       0.787   6.162  21.799  1.00  0.00     0.045 C 
HETATM   34  C14 UNL     1       0.832   7.536  21.147  1.00  0.00     0.017 C 
HETATM   35  C15 UNL     1       0.768   6.367  23.293  1.00  0.00     0.017 C 
ENDBRANCH   4  33
BRANCH   7  36
HETATM   36  C17 UNL     1       3.336   1.965  21.950  1.00  0.00     0.228 C 
HETATM   37  O1  UNL     1       4.001   1.636  22.941  1.00  0.00    -0.643 OA
HETATM   38  O2  UNL     1       2.668   0.989  21.247  1.00  0.00    -0.643 OA
ENDBRANCH   7  36
TORSDOF 10
ENDMDL
MODEL 4
REMARK VINA RESULT: -7.460670115      4.213      8.274
REMARK  10 active torsions:
REMARK  status: ('A' for Active; 'I' for Inactive)
REMARK    1  A    between atoms: C2_2  and  C3_3 
REMARK    2  A    between atoms: C3_3  and  N1_4 
REMARK    3  A    between atoms: N2_7  and  C6_8 
REMARK    4  A    between atoms: C10_12  and  N3_13 
REMARK    5  A    between atoms: N3_13  and  C11_15 
REMARK    6  A    between atoms: C12_18  and  C13_19 
REMARK    7  A    between atoms: C16_24  and  C17_25 
REMARK    8  A    between atoms: C18_28  and  C19_29 
REMARK    9  A    between atoms: C20_30  and  C21_31 
REMARK   10  A    between atoms: C21_31  and  C22_32 
ROOT
HETATM    1  C11 UNL     1       5.494   8.033  20.144  1.00  0.00     0.124 A 
HETATM    2  N4  UNL     1       5.149   8.140  18.853  1.00  0.00    -0.331 N 
ATOM      3  H4  UNL     1       4.511   7.442  18.469  1.00  0.00     0.168 HD
HETATM    4  C12 UNL     1       5.591   9.108  18.036  1.00  0.00     0.086 A 
HETATM    5  N5  UNL     1       6.426  10.014  18.547  1.00  0.00    -0.339 N 
ATOM      6  H5  UNL     1       6.774  10.759  17.943  1.00  0.00     0.167 HD
HETATM    7  C16 UNL     1       6.830   9.980  19.853  1.00  0.00     0.133 A 
HETATM    8  C18 UNL     1       6.370   8.987  20.678  1.00  0.00     0.095 A 
ENDROOT
BRANCH   1   9
HETATM    9  N3  UNL     1       5.093   7.133  20.937  1.00  0.00    -0.370 N 
ATOM     10  H3  UNL     1       4.581   7.473  21.751  1.00  0.00     0.161 HD
BRANCH   9  11
HETATM   11  C10 UNL     1       5.247   5.719  20.870  1.00  0.00     0.085 C 
HETATM   12  C9  UNL     1       4.591   4.982  22.038  1.00  0.00     0.025 C 
HETATM   13  C8  UNL     1       4.622   3.517  21.565  1.00  0.00     0.004 C 
HETATM   14  C7  UNL     1       6.073   3.102  21.746  1.00  0.00     0.036 C 
HETATM   15  C6  UNL     1       7.050   3.926  20.967  1.00  0.00     0.225 C 
HETATM   16  C25 UNL     1       6.671   5.318  20.669  1.00  0.00     0.061 C 
BRANCH  15  17
HETATM   17  N2  UNL     1       7.592   3.227  19.827  1.00  0.00     0.096 N 
HETATM   18  C5  UNL     1       8.125   4.002  18.792  1.00  0.00     0.303 C 
HETATM   19  C4  UNL     1       9.220   3.158  18.114  1.00  0.00     0.302 C 
HETATM   20  N1  UNL     1       8.726   1.791  17.994  1.00  0.00     0.091 N 
HETATM   21  C27 UNL     1       7.310   1.728  17.988  1.00  0.00     0.302 C 
HETATM   22  C26 UNL     1       6.694   2.240  19.291  1.00  0.00     0.303 C 
BRANCH  20  23
HETATM   23  C3  UNL     1       9.415   0.881  18.835  1.00  0.00     0.272 C 
BRANCH  23  24
HETATM   24  C2  UNL     1      10.504   0.183  18.066  1.00  0.00     0.026 C 
HETATM   25  C1  UNL     1       9.926  -0.771  17.029  1.00  0.00     0.007 C 
ENDBRANCH  23  24
ENDBRANCH  20  23
ENDBRANCH  15  17
ENDBRANCH   9  11
ENDBRANCH   1   9
BRANCH   8  26
HETATM   26  C19 UNL     1       6.757   8.884  22.078  1.00  0.00    -0.060 C 
HETATM   27  C20 UNL     1       7.100   8.781  23.237  1.00  0.00    -0.097 C 
BRANCH  27  28
HETATM   28  C21 UNL     1       7.492   8.663  24.643  1.00  0.00     0.124 C 
BRANCH  28  29
HETATM   29  C22 UNL     1       8.934   9.041  24.717  1.00  0.00     0.022 C 
HETATM   30  C23 UNL     1       9.690   8.366  25.574  1.00  0.00     0.087 C 
HETATM   31  C24 UNL     1      11.129   8.721  25.670  1.00  0.00     0.082 C 
HETATM   32  F1  UNL     1       9.206   7.377  26.361  1.00  0.00    -0.212 F 
ENDBRANCH  28  29
ENDBRANCH  27  28
ENDBRANCH   8  26
BRANCH   4  33
HETATM   33  C13 UNL     1       5.157   9.160  16.595  1.00  0.00     0.045 C 
HETATM   34  C14 UNL     1       3.826   9.884  16.454  1.00  0.00     0.017 C 
HETATM   35  C15 UNL     1       4.956   7.740  16.131  1.00  0.00     0.017 C 
ENDBRANCH   4  33
BRANCH   7  36
HETATM   36  C17 UNL     1       7.738  10.997  20.350  1.00  0.00     0.228 C 
HETATM   37  O1  UNL     1       8.926  10.731  20.577  1.00  0.00    -0.643 OA
HETATM   38  O2  UNL     1       7.291  12.279  20.579  1.00  0.00    -0.643 OA
ENDBRANCH   7  36
TORSDOF 10
ENDMDL
MODEL 5
REMARK VINA RESULT: -7.415159293      4.181      8.133
REMARK  10 active torsions:
REMARK  status: ('A' for Active; 'I' for Inactive)
REMARK    1  A    between atoms: C2_2  and  C3_3 
REMARK    2  A    between atoms: C3_3  and  N1_4 
REMARK    3  A    between atoms: N2_7  and  C6_8 
REMARK    4  A    between atoms: C10_12  and  N3_13 
REMARK    5  A    between atoms: N3_13  and  C11_15 
REMARK    6  A    between atoms: C12_18  and  C13_19 
REMARK    7  A    between atoms: C16_24  and  C17_25 
REMARK    8  A    between atoms: C18_28  and  C19_29 
REMARK    9  A    between atoms: C20_30  and  C21_31 
REMARK   10  A    between atoms: C21_31  and  C22_32 
ROOT
HETATM    1  C11 UNL     1       6.750   8.149  22.651  1.00  0.00     0.124 A 
HETATM    2  N4  UNL     1       7.646   7.916  23.621  1.00  0.00    -0.331 N 
ATOM      3  H4  UNL     1       7.504   7.102  24.218  1.00  0.00     0.168 HD
HETATM    4  C12 UNL     1       8.718   8.690  23.853  1.00  0.00     0.086 A 
HETATM    5  N5  UNL     1       8.895   9.753  23.068  1.00  0.00    -0.339 N 
ATOM      6  H5  UNL     1       9.703  10.355  23.227  1.00  0.00     0.167 HD
HETATM    7  C16 UNL     1       8.029  10.064  22.056  1.00  0.00     0.133 A 
HETATM    8  C18 UNL     1       6.939   9.266  21.827  1.00  0.00     0.095 A 
ENDROOT
BRANCH   1   9
HETATM    9  N3  UNL     1       5.732   7.439  22.409  1.00  0.00    -0.370 N 
ATOM     10  H3  UNL     1       5.045   7.400  23.161  1.00  0.00     0.161 HD
BRANCH   9  11
HETATM   11  C10 UNL     1       5.397   6.685  21.248  1.00  0.00     0.085 C 
HETATM   12  C9  UNL     1       3.892   6.484  21.069  1.00  0.00     0.025 C 
HETATM   13  C8  UNL     1       3.799   5.946  19.630  1.00  0.00     0.004 C 
HETATM   14  C7  UNL     1       4.266   4.505  19.744  1.00  0.00     0.036 C 
HETATM   15  C6  UNL     1       5.658   4.349  20.273  1.00  0.00     0.225 C 
HETATM   16  C25 UNL     1       6.158   5.403  21.174  1.00  0.00     0.061 C 
BRANCH  15  17
HETATM   17  N2  UNL     1       6.608   3.973  19.254  1.00  0.00     0.096 N 
HETATM   18  C5  UNL     1       7.790   4.715  19.172  1.00  0.00     0.303 C 
HETATM   19  C4  UNL     1       8.874   3.778  18.609  1.00  0.00     0.302 C 
HETATM   20  N1  UNL     1       8.278   2.995  17.531  1.00  0.00     0.091 N 
HETATM   21  C27 UNL     1       7.157   3.641  16.952  1.00  0.00     0.302 C 
HETATM   22  C26 UNL     1       6.015   3.845  17.950  1.00  0.00     0.303 C 
BRANCH  20  23
HETATM   23  C3  UNL     1       8.140   1.623  17.861  1.00  0.00     0.272 C 
BRANCH  23  24
HETATM   24  C2  UNL     1       9.194   1.218  18.855  1.00  0.00     0.026 C 
HETATM   25  C1  UNL     1      10.314   0.431  18.186  1.00  0.00     0.007 C 
ENDBRANCH  23  24
ENDBRANCH  20  23
ENDBRANCH  15  17
ENDBRANCH   9  11
ENDBRANCH   1   9
BRANCH   8  26
HETATM   26  C19 UNL     1       5.974   9.534  20.770  1.00  0.00    -0.060 C 
HETATM   27  C20 UNL     1       5.175   9.786  19.893  1.00  0.00    -0.097 C 
BRANCH  27  28
HETATM   28  C21 UNL     1       4.200  10.068  18.837  1.00  0.00     0.124 C 
BRANCH  28  29
HETATM   29  C22 UNL     1       4.027  11.550  18.800  1.00  0.00     0.022 C 
HETATM   30  C23 UNL     1       4.903  12.240  18.080  1.00  0.00     0.087 C 
HETATM   31  C24 UNL     1       4.756  13.717  18.025  1.00  0.00     0.082 C 
HETATM   32  F1  UNL     1       5.917  11.658  17.400  1.00  0.00    -0.212 F 
ENDBRANCH  28  29
ENDBRANCH  27  28
ENDBRANCH   8  26
BRANCH   4  33
HETATM   33  C13 UNL     1       9.680   8.362  24.964  1.00  0.00     0.045 C 
HETATM   34  C14 UNL     1       8.940   8.107  26.269  1.00  0.00     0.017 C 
HETATM   35  C15 UNL     1      10.563   9.566  25.169  1.00  0.00     0.017 C 
ENDBRANCH   4  33
BRANCH   7  36
HETATM   36  C17 UNL     1       8.278  11.235  21.233  1.00  0.00     0.228 C 
HETATM   37  O1  UNL     1       8.567  11.119  20.035  1.00  0.00    -0.643 OA
HETATM   38  O2  UNL     1       8.199  12.497  21.777  1.00  0.00    -0.643 OA
ENDBRANCH   7  36
TORSDOF 10
ENDMDL
