MODEL 1
REMARK VINA RESULT: -5.789660059      0.000      0.000
REMARK  1 active torsions:
REMARK  status: ('A' for Active; 'I' for Inactive)
REMARK    1  A    between atoms: C1_2  and  C2_4 
ROOT
HETATM    1  C2  UNL     1      23.556  21.738  28.131  1.00  0.00     0.178 A 
HETATM    2  N2  UNL     1      23.893  22.045  29.383  1.00  0.00    -0.312 N 
ATOM      3  H2  UNL     1      24.852  21.865  29.679  1.00  0.00     0.170 HD
HETATM    4  C3  UNL     1      23.041  22.581  30.284  1.00  0.00     0.198 A 
HETATM    5  N3  UNL     1      23.419  22.899  31.607  1.00  0.00    -0.063 NA
HETATM    6  N4  UNL     1      21.781  22.818  29.891  1.00  0.00    -0.282 N 
ATOM      7  H4  UNL     1      21.112  23.222  30.546  1.00  0.00     0.173 HD
HETATM    8  C4  UNL     1      21.394  22.523  28.630  1.00  0.00     0.328 A 
HETATM    9  O2  UNL     1      20.219  22.750  28.282  1.00  0.00    -0.247 OA
HETATM   10  N5  UNL     1      22.286  21.983  27.755  1.00  0.00    -0.290 N 
ATOM     11  H5  UNL     1      21.990  21.760  26.804  1.00  0.00     0.172 HD
ENDROOT
BRANCH   1  12
HETATM   12  C1  UNL     1      24.518  21.161  27.201  1.00  0.00     0.299 C 
HETATM   13  N1  UNL     1      25.892  21.116  27.535  1.00  0.00    -0.054 NA
HETATM   14  O1  UNL     1      24.159  20.695  26.096  1.00  0.00    -0.268 OA
ENDBRANCH   1  12
TORSDOF 1
ENDMDL
MODEL 2
REMARK VINA RESULT: -5.614528721      1.535      2.417
REMARK  1 active torsions:
REMARK  status: ('A' for Active; 'I' for Inactive)
REMARK    1  A    between atoms: C1_2  and  C2_4 
ROOT
HETATM    1  C2  UNL     1      23.503  21.748  28.222  1.00  0.00     0.178 A 
HETATM    2  N2  UNL     1      22.226  21.928  27.889  1.00  0.00    -0.312 N 
ATOM      3  H2  UNL     1      21.941  21.690  26.938  1.00  0.00     0.170 HD
HETATM    4  C3  UNL     1      21.286  22.406  28.732  1.00  0.00     0.198 A 
HETATM    5  N3  UNL     1      19.936  22.589  28.358  1.00  0.00    -0.063 NA
HETATM    6  N4  UNL     1      21.665  22.716  29.981  1.00  0.00    -0.282 N 
ATOM      7  H4  UNL     1      20.980  23.079  30.644  1.00  0.00     0.173 HD
HETATM    8  C4  UNL     1      22.949  22.550  30.365  1.00  0.00     0.328 A 
HETATM    9  O2  UNL     1      23.283  22.844  31.529  1.00  0.00    -0.247 OA
HETATM   10  N5  UNL     1      23.865  22.065  29.480  1.00  0.00    -0.290 N 
ATOM     11  H5  UNL     1      24.834  21.943  29.773  1.00  0.00     0.172 HD
ENDROOT
BRANCH   1  12
HETATM   12  C1  UNL     1      24.476  21.228  27.270  1.00  0.00     0.299 C 
HETATM   13  N1  UNL     1      25.849  21.180  27.610  1.00  0.00    -0.054 NA
HETATM   14  O1  UNL     1      24.129  20.817  26.139  1.00  0.00    -0.268 OA
ENDBRANCH   1  12
TORSDOF 1
ENDMDL
MODEL 3
REMARK VINA RESULT: -5.509514284      1.002      1.002
REMARK  1 active torsions:
REMARK  status: ('A' for Active; 'I' for Inactive)
REMARK    1  A    between atoms: C1_2  and  C2_4 
ROOT
HETATM    1  C2  UNL     1      22.936  21.359  28.159  1.00  0.00     0.178 A 
HETATM    2  N2  UNL     1      23.435  21.768  29.324  1.00  0.00    -0.312 N 
ATOM      3  H2  UNL     1      24.408  21.545  29.534  1.00  0.00     0.170 HD
HETATM    4  C3  UNL     1      22.731  22.461  30.246  1.00  0.00     0.198 A 
HETATM    5  N3  UNL     1      23.280  22.886  31.475  1.00  0.00    -0.063 NA
HETATM    6  N4  UNL     1      21.452  22.753  29.966  1.00  0.00    -0.282 N 
ATOM      7  H4  UNL     1      20.892  23.275  30.639  1.00  0.00     0.173 HD
HETATM    8  C4  UNL     1      20.903  22.359  28.796  1.00  0.00     0.328 A 
HETATM    9  O2  UNL     1      19.713  22.639  28.554  1.00  0.00    -0.247 OA
HETATM   10  N5  UNL     1      21.650  21.661  27.896  1.00  0.00    -0.290 N 
ATOM     11  H5  UNL     1      21.231  21.363  27.015  1.00  0.00     0.172 HD
ENDROOT
BRANCH   1  12
HETATM   12  C1  UNL     1      23.743  20.612  27.202  1.00  0.00     0.299 C 
HETATM   13  N1  UNL     1      23.903  19.213  27.345  1.00  0.00    -0.054 NA
HETATM   14  O1  UNL     1      24.309  21.180  26.241  1.00  0.00    -0.268 OA
ENDBRANCH   1  12
TORSDOF 1
ENDMDL
MODEL 4
REMARK VINA RESULT: -5.385215314      2.010      3.680
REMARK  1 active torsions:
REMARK  status: ('A' for Active; 'I' for Inactive)
REMARK    1  A    between atoms: C1_2  and  C2_4 
ROOT
HETATM    1  C2  UNL     1      23.377  22.557  30.128  1.00  0.00     0.178 A 
HETATM    2  N2  UNL     1      22.050  22.654  30.081  1.00  0.00    -0.312 N 
ATOM      3  H2  UNL     1      21.551  22.825  30.954  1.00  0.00     0.170 HD
HETATM    4  C3  UNL     1      21.324  22.539  28.947  1.00  0.00     0.198 A 
HETATM    5  N3  UNL     1      19.917  22.646  28.919  1.00  0.00    -0.063 NA
HETATM    6  N4  UNL     1      21.985  22.316  27.801  1.00  0.00    -0.282 N 
ATOM      7  H4  UNL     1      21.468  22.225  26.927  1.00  0.00     0.173 HD
HETATM    8  C4  UNL     1      23.331  22.211  27.800  1.00  0.00     0.328 A 
HETATM    9  O2  UNL     1      23.928  22.002  26.726  1.00  0.00    -0.247 OA
HETATM   10  N5  UNL     1      24.023  22.331  28.968  1.00  0.00    -0.290 N 
ATOM     11  H5  UNL     1      25.040  22.250  28.963  1.00  0.00     0.172 HD
ENDROOT
BRANCH   1  12
HETATM   12  C1  UNL     1      24.109  22.688  31.382  1.00  0.00     0.299 C 
HETATM   13  N1  UNL     1      24.735  21.558  31.961  1.00  0.00    -0.054 NA
HETATM   14  O1  UNL     1      24.203  23.787  31.973  1.00  0.00    -0.268 OA
ENDBRANCH   1  12
TORSDOF 1
ENDMDL
MODEL 5
REMARK VINA RESULT: -5.303955029      1.931      3.485
REMARK  1 active torsions:
REMARK  status: ('A' for Active; 'I' for Inactive)
REMARK    1  A    between atoms: C1_2  and  C2_4 
ROOT
HETATM    1  C2  UNL     1      23.390  22.447  30.099  1.00  0.00     0.178 A 
HETATM    2  N2  UNL     1      24.019  22.060  28.991  1.00  0.00    -0.312 N 
ATOM      3  H2  UNL     1      25.020  21.869  29.050  1.00  0.00     0.170 HD
HETATM    4  C3  UNL     1      23.413  21.905  27.793  1.00  0.00     0.198 A 
HETATM    5  N3  UNL     1      24.100  21.494  26.630  1.00  0.00    -0.063 NA
HETATM    6  N4  UNL     1      22.098  22.156  27.720  1.00  0.00    -0.282 N 
ATOM      7  H4  UNL     1      21.609  22.048  26.832  1.00  0.00     0.173 HD
HETATM    8  C4  UNL     1      21.417  22.550  28.818  1.00  0.00     0.328 A 
HETATM    9  O2  UNL     1      20.195  22.779  28.732  1.00  0.00    -0.247 OA
HETATM   10  N5  UNL     1      22.069  22.695  30.006  1.00  0.00    -0.290 N 
ATOM     11  H5  UNL     1      21.552  22.994  30.832  1.00  0.00     0.172 HD
ENDROOT
BRANCH   1  12
HETATM   12  C1  UNL     1      24.095  22.598  31.365  1.00  0.00     0.299 C 
HETATM   13  N1  UNL     1      24.767  21.494  31.942  1.00  0.00    -0.054 NA
HETATM   14  O1  UNL     1      24.125  23.694  31.970  1.00  0.00    -0.268 OA
ENDBRANCH   1  12
TORSDOF 1
ENDMDL
