MODEL 1
REMARK VINA RESULT: -7.489133581      0.000      0.000
REMARK  6 active torsions:
REMARK  status: ('A' for Active; 'I' for Inactive)
REMARK    1  A    between atoms: N1_7  and  C5_8 
REMARK    2  A    between atoms: C5_8  and  C6_9 
REMARK    3  A    between atoms: C6_9  and  C7_10 
REMARK    4  A    between atoms: C7_10  and  N2_11 
REMARK    5  A    between atoms: N2_11  and  C8_13 
REMARK    6  A    between atoms: C8_13  and  N3_15 
ROOT
HETATM    1  N2  UNL     1      -9.358 202.926 115.958  1.00  0.00    -0.367 N 
ATOM      2  H2  UNL     1      -9.262 201.917 116.074  1.00  0.00     0.161 HD
ENDROOT
BRANCH   1   3
HETATM    3  C7  UNL     1      -9.255 203.776 117.121  1.00  0.00     0.123 C 
BRANCH   3   4
HETATM    4  C6  UNL     1     -10.203 204.914 116.982  1.00  0.00     0.039 C 
BRANCH   4   5
HETATM    5  C5  UNL     1     -11.433 204.852 117.812  1.00  0.00     0.129 C 
BRANCH   5   6
HETATM    6  N1  UNL     1     -12.636 204.491 117.161  1.00  0.00    -0.328 N 
HETATM    7  C1  UNL     1     -13.352 203.316 117.502  1.00  0.00     0.362 C 
HETATM    8  O1  UNL     1     -12.849 202.406 118.230  1.00  0.00    -0.238 OA
HETATM    9  O2  UNL     1     -14.639 203.139 117.037  1.00  0.00    -0.304 OA
HETATM   10  C2  UNL     1     -15.227 203.920 116.017  1.00  0.00     0.182 C 
HETATM   11  C3  UNL     1     -14.677 205.320 116.093  1.00  0.00     0.047 C 
HETATM   12  C4  UNL     1     -13.162 205.330 116.111  1.00  0.00     0.130 C 
ENDBRANCH   5   6
ENDBRANCH   4   5
ENDBRANCH   3   4
ENDBRANCH   1   3
BRANCH   1  13
HETATM   13  C8  UNL     1      -9.588 203.451 114.658  1.00  0.00     0.169 C 
HETATM   14  S1  UNL     1      -8.345 204.133 113.863  1.00  0.00    -0.041 SA
BRANCH  13  15
HETATM   15  N3  UNL     1     -10.859 203.394 114.049  1.00  0.00    -0.358 N 
HETATM   16  C9  UNL     1     -11.177 204.506 113.198  1.00  0.00     0.125 C 
HETATM   17  C10 UNL     1     -11.453 204.086 111.776  1.00  0.00     0.021 C 
HETATM   18  C11 UNL     1     -11.958 202.663 111.696  1.00  0.00     0.011 C 
HETATM   19  C12 UNL     1     -13.241 202.482 112.472  1.00  0.00    -0.039 C 
HETATM   20  C13 UNL     1     -14.099 201.434 111.794  1.00  0.00     0.010 C 
HETATM   21  C15 UNL     1     -14.319 203.491 112.134  1.00  0.00     0.010 C 
HETATM   22  C16 UNL     1     -13.032 202.213 113.915  1.00  0.00     0.029 C 
HETATM   23  C14 UNL     1     -15.260 202.393 111.681  1.00  0.00     0.002 C 
HETATM   24  C17 UNL     1     -11.623 202.205 114.399  1.00  0.00     0.126 C 
ENDBRANCH  13  15
ENDBRANCH   1  13
TORSDOF 6
ENDMDL
MODEL 2
REMARK VINA RESULT: -7.467516016      2.381      4.857
REMARK  6 active torsions:
REMARK  status: ('A' for Active; 'I' for Inactive)
REMARK    1  A    between atoms: N1_7  and  C5_8 
REMARK    2  A    between atoms: C5_8  and  C6_9 
REMARK    3  A    between atoms: C6_9  and  C7_10 
REMARK    4  A    between atoms: C7_10  and  N2_11 
REMARK    5  A    between atoms: N2_11  and  C8_13 
REMARK    6  A    between atoms: C8_13  and  N3_15 
ROOT
HETATM    1  N2  UNL     1     -13.232 205.551 116.981  1.00  0.00    -0.367 N 
ATOM      2  H2  UNL     1     -12.850 206.393 117.412  1.00  0.00     0.161 HD
ENDROOT
BRANCH   1   3
HETATM    3  C7  UNL     1     -14.596 205.566 116.506  1.00  0.00     0.123 C 
BRANCH   3   4
HETATM    4  C6  UNL     1     -14.607 205.308 115.041  1.00  0.00     0.039 C 
BRANCH   4   5
HETATM    5  C5  UNL     1     -15.424 204.156 114.580  1.00  0.00     0.129 C 
BRANCH   5   6
HETATM    6  N1  UNL     1     -14.850 203.306 113.606  1.00  0.00    -0.328 N 
HETATM    7  C1  UNL     1     -14.608 201.931 113.857  1.00  0.00     0.362 C 
HETATM    8  O1  UNL     1     -14.664 201.438 115.025  1.00  0.00    -0.238 OA
HETATM    9  O2  UNL     1     -14.299 201.088 112.809  1.00  0.00    -0.304 OA
HETATM   10  C2  UNL     1     -13.941 201.530 111.515  1.00  0.00     0.182 C 
HETATM   11  C3  UNL     1     -14.674 202.811 111.215  1.00  0.00     0.047 C 
HETATM   12  C4  UNL     1     -14.489 203.838 112.314  1.00  0.00     0.130 C 
ENDBRANCH   5   6
ENDBRANCH   4   5
ENDBRANCH   3   4
ENDBRANCH   1   3
BRANCH   1  13
HETATM   13  C8  UNL     1     -12.405 204.402 116.866  1.00  0.00     0.169 C 
HETATM   14  S1  UNL     1     -12.781 203.082 117.738  1.00  0.00    -0.041 SA
BRANCH  13  15
HETATM   15  N3  UNL     1     -11.275 204.382 116.021  1.00  0.00    -0.358 N 
HETATM   16  C9  UNL     1     -10.784 203.074 115.692  1.00  0.00     0.125 C 
HETATM   17  C10 UNL     1     -10.801 202.806 114.207  1.00  0.00     0.021 C 
HETATM   18  C11 UNL     1     -10.697 204.083 113.403  1.00  0.00     0.011 C 
HETATM   19  C12 UNL     1      -9.422 204.832 113.708  1.00  0.00    -0.039 C 
HETATM   20  C13 UNL     1      -8.954 205.562 112.466  1.00  0.00     0.010 C 
HETATM   21  C15 UNL     1      -8.167 203.989 113.607  1.00  0.00     0.010 C 
HETATM   22  C16 UNL     1      -9.517 205.715 114.895  1.00  0.00     0.029 C 
HETATM   23  C14 UNL     1      -7.606 204.884 112.520  1.00  0.00     0.002 C 
HETATM   24  C17 UNL     1     -10.811 205.706 115.636  1.00  0.00     0.126 C 
ENDBRANCH  13  15
ENDBRANCH   1  13
TORSDOF 6
ENDMDL
MODEL 3
REMARK VINA RESULT: -7.366403062      2.760      5.312
REMARK  6 active torsions:
REMARK  status: ('A' for Active; 'I' for Inactive)
REMARK    1  A    between atoms: N1_7  and  C5_8 
REMARK    2  A    between atoms: C5_8  and  C6_9 
REMARK    3  A    between atoms: C6_9  and  C7_10 
REMARK    4  A    between atoms: C7_10  and  N2_11 
REMARK    5  A    between atoms: N2_11  and  C8_13 
REMARK    6  A    between atoms: C8_13  and  N3_15 
ROOT
HETATM    1  N2  UNL     1     -13.308 202.894 116.854  1.00  0.00    -0.367 N 
ATOM      2  H2  UNL     1     -13.685 202.227 117.527  1.00  0.00     0.161 HD
ENDROOT
BRANCH   1   3
HETATM    3  C7  UNL     1     -13.937 203.012 115.560  1.00  0.00     0.123 C 
BRANCH   3   4
HETATM    4  C6  UNL     1     -13.583 201.828 114.732  1.00  0.00     0.039 C 
BRANCH   4   5
HETATM    5  C5  UNL     1     -14.543 201.459 113.661  1.00  0.00     0.129 C 
BRANCH   5   6
HETATM    6  N1  UNL     1     -14.440 202.155 112.433  1.00  0.00    -0.328 N 
HETATM    7  C1  UNL     1     -15.535 202.864 111.877  1.00  0.00     0.362 C 
HETATM    8  O1  UNL     1     -16.720 202.726 112.311  1.00  0.00    -0.238 OA
HETATM    9  O2  UNL     1     -15.324 203.737 110.830  1.00  0.00    -0.304 OA
HETATM   10  C2  UNL     1     -14.130 203.796 110.076  1.00  0.00     0.182 C 
HETATM   11  C3  UNL     1     -12.968 203.452 110.970  1.00  0.00     0.047 C 
HETATM   12  C4  UNL     1     -13.192 202.149 111.709  1.00  0.00     0.130 C 
ENDBRANCH   5   6
ENDBRANCH   4   5
ENDBRANCH   3   4
ENDBRANCH   1   3
BRANCH   1  13
HETATM   13  C8  UNL     1     -12.179 203.677 117.219  1.00  0.00     0.169 C 
HETATM   14  S1  UNL     1     -12.148 204.357 118.695  1.00  0.00    -0.041 SA
BRANCH  13  15
HETATM   15  N3  UNL     1     -11.097 203.876 116.335  1.00  0.00    -0.358 N 
HETATM   16  C9  UNL     1     -10.178 202.777 116.242  1.00  0.00     0.125 C 
HETATM   17  C10 UNL     1     -10.074 202.225 114.841  1.00  0.00     0.021 C 
HETATM   18  C11 UNL     1     -10.404 203.270 113.799  1.00  0.00     0.011 C 
HETATM   19  C12 UNL     1      -9.473 204.456 113.883  1.00  0.00    -0.039 C 
HETATM   20  C13 UNL     1      -9.264 205.034 112.499  1.00  0.00     0.010 C 
HETATM   21  C15 UNL     1      -8.002 204.092 113.882  1.00  0.00     0.010 C 
HETATM   22  C16 UNL     1      -9.890 205.473 114.878  1.00  0.00     0.029 C 
HETATM   23  C14 UNL     1      -7.766 204.885 112.613  1.00  0.00     0.002 C 
HETATM   24  C17 UNL     1     -11.113 205.171 115.673  1.00  0.00     0.126 C 
ENDBRANCH  13  15
ENDBRANCH   1  13
TORSDOF 6
ENDMDL
MODEL 4
REMARK VINA RESULT: -7.305993136      2.324      4.664
REMARK  6 active torsions:
REMARK  status: ('A' for Active; 'I' for Inactive)
REMARK    1  A    between atoms: N1_7  and  C5_8 
REMARK    2  A    between atoms: C5_8  and  C6_9 
REMARK    3  A    between atoms: C6_9  and  C7_10 
REMARK    4  A    between atoms: C7_10  and  N2_11 
REMARK    5  A    between atoms: N2_11  and  C8_13 
REMARK    6  A    between atoms: C8_13  and  N3_15 
ROOT
HETATM    1  N2  UNL     1     -14.458 203.053 110.889  1.00  0.00    -0.367 N 
ATOM      2  H2  UNL     1     -14.061 203.252 109.971  1.00  0.00     0.161 HD
ENDROOT
BRANCH   1   3
HETATM    3  C7  UNL     1     -15.681 203.714 111.280  1.00  0.00     0.123 C 
BRANCH   3   4
HETATM    4  C6  UNL     1     -15.465 204.417 112.573  1.00  0.00     0.039 C 
BRANCH   4   5
HETATM    5  C5  UNL     1     -16.081 203.795 113.773  1.00  0.00     0.129 C 
BRANCH   5   6
HETATM    6  N1  UNL     1     -15.505 204.103 115.029  1.00  0.00    -0.328 N 
HETATM    7  C1  UNL     1     -15.458 203.159 116.086  1.00  0.00     0.362 C 
HETATM    8  O1  UNL     1     -16.129 202.082 116.060  1.00  0.00    -0.238 OA
HETATM    9  O2  UNL     1     -14.663 203.403 117.187  1.00  0.00    -0.304 OA
HETATM   10  C2  UNL     1     -14.077 204.655 117.479  1.00  0.00     0.182 C 
HETATM   11  C3  UNL     1     -13.751 205.358 116.188  1.00  0.00     0.047 C 
HETATM   12  C4  UNL     1     -14.947 205.414 115.259  1.00  0.00     0.130 C 
ENDBRANCH   5   6
ENDBRANCH   4   5
ENDBRANCH   3   4
ENDBRANCH   1   3
BRANCH   1  13
HETATM   13  C8  UNL     1     -13.791 202.132 111.742  1.00  0.00     0.169 C 
HETATM   14  S1  UNL     1     -14.428 200.650 111.938  1.00  0.00    -0.041 SA
BRANCH  13  15
HETATM   15  N3  UNL     1     -12.601 202.476 112.417  1.00  0.00    -0.358 N 
HETATM   16  C9  UNL     1     -11.565 203.021 111.585  1.00  0.00     0.125 C 
HETATM   17  C10 UNL     1     -11.160 204.413 112.001  1.00  0.00     0.021 C 
HETATM   18  C11 UNL     1     -11.416 204.659 113.470  1.00  0.00     0.011 C 
HETATM   19  C12 UNL     1     -10.649 203.693 114.340  1.00  0.00    -0.039 C 
HETATM   20  C13 UNL     1     -10.268 204.373 115.638  1.00  0.00     0.010 C 
HETATM   21  C15 UNL     1      -9.169 203.612 114.023  1.00  0.00     0.010 C 
HETATM   22  C16 UNL     1     -11.340 202.398 114.547  1.00  0.00     0.029 C 
HETATM   23  C14 UNL     1      -8.804 204.069 115.421  1.00  0.00     0.002 C 
HETATM   24  C17 UNL     1     -12.642 202.213 113.848  1.00  0.00     0.126 C 
ENDBRANCH  13  15
ENDBRANCH   1  13
TORSDOF 6
ENDMDL
MODEL 5
REMARK VINA RESULT: -7.286598465      4.038      5.646
REMARK  6 active torsions:
REMARK  status: ('A' for Active; 'I' for Inactive)
REMARK    1  A    between atoms: N1_7  and  C5_8 
REMARK    2  A    between atoms: C5_8  and  C6_9 
REMARK    3  A    between atoms: C6_9  and  C7_10 
REMARK    4  A    between atoms: C7_10  and  N2_11 
REMARK    5  A    between atoms: N2_11  and  C8_13 
REMARK    6  A    between atoms: C8_13  and  N3_15 
ROOT
HETATM    1  N2  UNL     1      -9.713 204.350 114.029  1.00  0.00    -0.367 N 
ATOM      2  H2  UNL     1      -8.994 204.281 113.309  1.00  0.00     0.161 HD
ENDROOT
BRANCH   1   3
HETATM    3  C7  UNL     1      -9.639 205.426 114.990  1.00  0.00     0.123 C 
BRANCH   3   4
HETATM    4  C6  UNL     1      -8.884 206.562 114.397  1.00  0.00     0.039 C 
BRANCH   4   5
HETATM    5  C5  UNL     1      -7.445 206.655 114.753  1.00  0.00     0.129 C 
BRANCH   5   6
HETATM    6  N1  UNL     1      -6.518 206.074 113.856  1.00  0.00    -0.328 N 
HETATM    7  C1  UNL     1      -5.169 205.833 114.221  1.00  0.00     0.362 C 
HETATM    8  O1  UNL     1      -4.653 206.331 115.268  1.00  0.00    -0.238 OA
HETATM    9  O2  UNL     1      -4.376 205.034 113.423  1.00  0.00    -0.304 OA
HETATM   10  C2  UNL     1      -4.720 204.635 112.111  1.00  0.00     0.182 C 
HETATM   11  C3  UNL     1      -6.215 204.482 112.021  1.00  0.00     0.047 C 
HETATM   12  C4  UNL     1      -6.939 205.714 112.523  1.00  0.00     0.130 C 
ENDBRANCH   5   6
ENDBRANCH   4   5
ENDBRANCH   3   4
ENDBRANCH   1   3
BRANCH   1  13
HETATM   13  C8  UNL     1     -10.757 203.386 114.054  1.00  0.00     0.169 C 
HETATM   14  S1  UNL     1     -10.512 201.994 114.857  1.00  0.00    -0.041 SA
BRANCH  13  15
HETATM   15  N3  UNL     1     -11.988 203.609 113.401  1.00  0.00    -0.358 N 
HETATM   16  C9  UNL     1     -12.024 203.214 112.021  1.00  0.00     0.125 C 
HETATM   17  C10 UNL     1     -13.075 202.167 111.746  1.00  0.00     0.021 C 
HETATM   18  C11 UNL     1     -14.215 202.239 112.737  1.00  0.00     0.011 C 
HETATM   19  C12 UNL     1     -14.903 203.583 112.700  1.00  0.00    -0.039 C 
HETATM   20  C13 UNL     1     -16.373 203.408 113.017  1.00  0.00     0.010 C 
HETATM   21  C15 UNL     1     -15.321 204.029 111.313  1.00  0.00     0.010 C 
HETATM   22  C16 UNL     1     -14.247 204.612 113.543  1.00  0.00     0.029 C 
HETATM   23  C14 UNL     1     -16.778 204.079 111.726  1.00  0.00     0.002 C 
HETATM   24  C17 UNL     1     -13.004 204.203 114.255  1.00  0.00     0.126 C 
ENDBRANCH  13  15
ENDBRANCH   1  13
TORSDOF 6
ENDMDL
