MODEL 1
REMARK VINA RESULT: -4.442021482      0.000      0.000
REMARK  0 active torsions:
REMARK  status: ('A' for Active; 'I' for Inactive)
ROOT
HETATM    1  C1  UNL     1       8.456  21.069   9.610  1.00  0.00     0.165 C 
HETATM    2  N1  UNL     1       9.061  21.968  10.547  1.00  0.00    -0.230 N 
ATOM      3  H1  UNL     1       9.671  22.697  10.177  1.00  0.00     0.177 HD
HETATM    4  C2  UNL     1       8.892  21.924  11.813  1.00  0.00     0.679 A 
HETATM    5  N2  UNL     1       9.505  22.815  12.621  1.00  0.00    -0.188 N 
ATOM      6  H2  UNL     1      10.106  23.523  12.197  1.00  0.00     0.185 HD
HETATM    7  C3  UNL     1       9.362  22.815  13.958  1.00  0.00     0.199 A 
HETATM    8  N3  UNL     1       8.566  21.871  14.492  1.00  0.00    -0.348 N 
ATOM      9  H3  UNL     1       8.429  21.831  15.502  1.00  0.00     0.167 HD
HETATM   10  C4  UNL     1       7.949  20.975  13.689  1.00  0.00     0.199 A 
HETATM   11  N4  UNL     1       8.096  20.980  12.347  1.00  0.00    -0.188 N 
ATOM     12  H4  UNL     1       7.622  20.294  11.760  1.00  0.00     0.185 HD
ENDROOT
TORSDOF 0
ENDMDL
MODEL 2
REMARK VINA RESULT: -4.388014346      0.929      1.719
REMARK  0 active torsions:
REMARK  status: ('A' for Active; 'I' for Inactive)
ROOT
HETATM    1  C1  UNL     1       8.650  21.302   9.628  1.00  0.00     0.165 C 
HETATM    2  N1  UNL     1       8.374  20.792  10.939  1.00  0.00    -0.230 N 
ATOM      3  H1  UNL     1       7.909  19.887  11.006  1.00  0.00     0.177 HD
HETATM    4  C2  UNL     1       8.669  21.389  12.029  1.00  0.00     0.679 A 
HETATM    5  N2  UNL     1       8.369  20.831  13.222  1.00  0.00    -0.188 N 
ATOM      6  H2  UNL     1       7.902  19.924  13.231  1.00  0.00     0.185 HD
HETATM    7  C3  UNL     1       8.657  21.414  14.399  1.00  0.00     0.199 A 
HETATM    8  N3  UNL     1       9.271  22.610  14.361  1.00  0.00    -0.348 N 
ATOM      9  H3  UNL     1       9.508  23.091  15.228  1.00  0.00     0.167 HD
HETATM   10  C4  UNL     1       9.574  23.175  13.170  1.00  0.00     0.199 A 
HETATM   11  N4  UNL     1       9.283  22.585  11.991  1.00  0.00    -0.188 N 
ATOM     12  H4  UNL     1       9.519  23.030  11.103  1.00  0.00     0.185 HD
ENDROOT
TORSDOF 0
ENDMDL
MODEL 3
REMARK VINA RESULT: -4.342560055      1.366      3.227
REMARK  0 active torsions:
REMARK  status: ('A' for Active; 'I' for Inactive)
ROOT
HETATM    1  C1  UNL     1       8.731  22.845  15.254  1.00  0.00     0.165 C 
HETATM    2  N1  UNL     1       8.761  23.239  13.877  1.00  0.00    -0.230 N 
ATOM      3  H1  UNL     1       8.791  24.238  13.672  1.00  0.00     0.177 HD
HETATM    4  C2  UNL     1       8.752  22.432  12.887  1.00  0.00     0.679 A 
HETATM    5  N2  UNL     1       8.781  22.895  11.619  1.00  0.00    -0.188 N 
ATOM      6  H2  UNL     1       8.810  23.905  11.471  1.00  0.00     0.185 HD
HETATM    7  C3  UNL     1       8.774  22.091  10.542  1.00  0.00     0.199 A 
HETATM    8  N3  UNL     1       8.734  20.765  10.763  1.00  0.00    -0.348 N 
ATOM      9  H3  UNL     1       8.726  20.116   9.977  1.00  0.00     0.167 HD
HETATM   10  C4  UNL     1       8.704  20.293  12.031  1.00  0.00     0.199 A 
HETATM   11  N4  UNL     1       8.712  21.106  13.109  1.00  0.00    -0.188 N 
ATOM     12  H4  UNL     1       8.687  20.728  14.056  1.00  0.00     0.185 HD
ENDROOT
TORSDOF 0
ENDMDL
MODEL 4
REMARK VINA RESULT: -4.193073101      1.516      2.276
REMARK  0 active torsions:
REMARK  status: ('A' for Active; 'I' for Inactive)
ROOT
HETATM    1  C1  UNL     1       8.752  22.476  11.244  1.00  0.00     0.165 C 
HETATM    2  N1  UNL     1       9.275  21.799  12.393  1.00  0.00    -0.230 N 
ATOM      3  H1  UNL     1       9.898  21.007  12.233  1.00  0.00     0.177 HD
HETATM    4  C2  UNL     1       9.019  22.113  13.604  1.00  0.00     0.679 A 
HETATM    5  N2  UNL     1       9.558  21.415  14.627  1.00  0.00    -0.188 N 
ATOM      6  H2  UNL     1      10.173  20.631  14.408  1.00  0.00     0.185 HD
HETATM    7  C3  UNL     1       9.322  21.703  15.919  1.00  0.00     0.199 A 
HETATM    8  N3  UNL     1       8.506  22.740  16.180  1.00  0.00    -0.348 N 
ATOM      9  H3  UNL     1       8.297  22.995  17.145  1.00  0.00     0.167 HD
HETATM   10  C4  UNL     1       7.962  23.444  15.161  1.00  0.00     0.199 A 
HETATM   11  N4  UNL     1       8.202  23.150  13.865  1.00  0.00    -0.188 N 
ATOM     12  H4  UNL     1       7.780  23.694  13.112  1.00  0.00     0.185 HD
ENDROOT
TORSDOF 0
ENDMDL
MODEL 5
REMARK VINA RESULT: -3.973330658      1.165      3.544
REMARK  0 active torsions:
REMARK  status: ('A' for Active; 'I' for Inactive)
ROOT
HETATM    1  C1  UNL     1       8.373  23.542  14.931  1.00  0.00     0.165 C 
HETATM    2  N1  UNL     1       8.446  22.201  14.431  1.00  0.00    -0.230 N 
ATOM      3  H1  UNL     1       8.401  21.440  15.109  1.00  0.00     0.177 HD
HETATM    4  C2  UNL     1       8.562  21.888  13.198  1.00  0.00     0.679 A 
HETATM    5  N2  UNL     1       8.625  20.594  12.818  1.00  0.00    -0.188 N 
ATOM      6  H2  UNL     1       8.577  19.873  13.539  1.00  0.00     0.185 HD
HETATM    7  C3  UNL     1       8.746  20.209  11.536  1.00  0.00     0.199 A 
HETATM    8  N3  UNL     1       8.809  21.178  10.605  1.00  0.00    -0.348 N 
ATOM      9  H3  UNL     1       8.903  20.934   9.619  1.00  0.00     0.167 HD
HETATM   10  C4  UNL     1       8.748  22.477  10.978  1.00  0.00     0.199 A 
HETATM   11  N4  UNL     1       8.625  22.857  12.267  1.00  0.00    -0.188 N 
ATOM     12  H4  UNL     1       8.583  23.843  12.526  1.00  0.00     0.185 HD
ENDROOT
TORSDOF 0
ENDMDL
