MODEL 1
REMARK VINA RESULT: -7.878242899      0.000      0.000
REMARK  8 active torsions:
REMARK  status: ('A' for Active; 'I' for Inactive)
REMARK    1  A    between atoms: C2_2  and  C4_4 
REMARK    2  A    between atoms: C4_4  and  C6_6 
REMARK    3  A    between atoms: C6_6  and  C7_7 
REMARK    4  A    between atoms: C9_9  and  O1_10 
REMARK    5  A    between atoms: C12_14  and  O2_15 
REMARK    6  A    between atoms: C13_17  and  O3_18 
REMARK    7  A    between atoms: C15_21  and  C16_22 
REMARK    8  A    between atoms: C17_23  and  C18_24 
ROOT
HETATM    1  C7  UNL     1       5.292  -4.843  18.846  1.00  0.00    -0.021 A 
HETATM    2  C8  UNL     1       4.772  -3.792  19.613  1.00  0.00     0.049 A 
HETATM    3  C9  UNL     1       3.430  -3.681  19.913  1.00  0.00     0.100 A 
HETATM    4  C10 UNL     1       2.546  -4.657  19.432  1.00  0.00     0.114 A 
HETATM    5  C11 UNL     1       3.040  -5.687  18.683  1.00  0.00     0.040 A 
HETATM    6  C12 UNL     1       4.401  -5.783  18.391  1.00  0.00     0.083 A 
HETATM    7  C13 UNL     1       2.118  -6.711  18.165  1.00  0.00     0.159 C 
HETATM    8  C14 UNL     1       0.698  -6.274  18.067  1.00  0.00     0.073 C 
HETATM    9  C15 UNL     1       0.222  -5.406  19.214  1.00  0.00     0.154 C 
HETATM   10  O4  UNL     1       1.206  -4.554  19.725  1.00  0.00    -0.338 OA
ENDROOT
BRANCH   1  11
HETATM   11  C6  UNL     1       6.726  -4.860  18.552  1.00  0.00     0.046 C 
BRANCH  11  12
HETATM   12  C4  UNL     1       7.155  -4.570  17.168  1.00  0.00    -0.011 C 
HETATM   13  C5  UNL     1       8.245  -5.434  16.599  1.00  0.00     0.010 C 
BRANCH  12  14
HETATM   14  C2  UNL     1       7.721  -3.135  17.129  1.00  0.00    -0.019 C 
HETATM   15  C1  UNL     1       7.927  -2.614  18.520  1.00  0.00     0.010 C 
HETATM   16  C3  UNL     1       8.951  -3.076  16.268  1.00  0.00     0.010 C 
ENDBRANCH  12  14
ENDBRANCH  11  12
ENDBRANCH   1  11
BRANCH   6  17
HETATM   17  O2  UNL     1       4.846  -6.824  17.648  1.00  0.00    -0.359 OA
ATOM     18  H2  UNL     1       4.428  -7.673  17.731  1.00  0.00     0.217 HD
ENDBRANCH   6  17
BRANCH   3  19
HETATM   19  O1  UNL     1       2.942  -2.630  20.675  1.00  0.00    -0.358 OA
ATOM     20  H1  UNL     1       2.417  -2.782  21.452  1.00  0.00     0.217 HD
ENDBRANCH   3  19
BRANCH   7  21
HETATM   21  O3  UNL     1       2.161  -7.798  19.070  1.00  0.00    -0.391 OA
ATOM     22  H3  UNL     1       1.290  -8.177  19.087  1.00  0.00     0.210 HD
ENDBRANCH   7  21
BRANCH   9  23
HETATM   23  C16 UNL     1      -0.368  -6.260  20.268  1.00  0.00     0.002 C 
HETATM   24  C17 UNL     1      -1.132  -5.825  21.236  1.00  0.00    -0.024 C 
BRANCH  24  25
HETATM   25  C18 UNL     1      -1.564  -4.438  21.488  1.00  0.00     0.008 A 
HETATM   26  C19 UNL     1      -0.720  -3.475  22.253  1.00  0.00     0.009 A 
HETATM   27  C20 UNL     1      -1.907  -4.120  22.902  1.00  0.00     0.009 A 
ENDBRANCH  24  25
ENDBRANCH   9  23
TORSDOF 8
ENDMDL
MODEL 2
REMARK VINA RESULT: -7.607105425      1.039      1.633
REMARK  8 active torsions:
REMARK  status: ('A' for Active; 'I' for Inactive)
REMARK    1  A    between atoms: C2_2  and  C4_4 
REMARK    2  A    between atoms: C4_4  and  C6_6 
REMARK    3  A    between atoms: C6_6  and  C7_7 
REMARK    4  A    between atoms: C9_9  and  O1_10 
REMARK    5  A    between atoms: C12_14  and  O2_15 
REMARK    6  A    between atoms: C13_17  and  O3_18 
REMARK    7  A    between atoms: C15_21  and  C16_22 
REMARK    8  A    between atoms: C17_23  and  C18_24 
ROOT
HETATM    1  C7  UNL     1       5.413  -4.613  18.154  1.00  0.00    -0.021 A 
HETATM    2  C8  UNL     1       5.144  -3.780  19.249  1.00  0.00     0.049 A 
HETATM    3  C9  UNL     1       3.881  -3.639  19.785  1.00  0.00     0.100 A 
HETATM    4  C10 UNL     1       2.819  -4.355  19.216  1.00  0.00     0.114 A 
HETATM    5  C11 UNL     1       3.068  -5.172  18.149  1.00  0.00     0.040 A 
HETATM    6  C12 UNL     1       4.352  -5.302  17.621  1.00  0.00     0.083 A 
HETATM    7  C13 UNL     1       1.958  -5.921  17.539  1.00  0.00     0.159 C 
HETATM    8  C14 UNL     1       0.608  -5.349  17.797  1.00  0.00     0.073 C 
HETATM    9  C15 UNL     1       0.409  -4.801  19.196  1.00  0.00     0.154 C 
HETATM   10  O4  UNL     1       1.557  -4.220  19.745  1.00  0.00    -0.338 OA
ENDROOT
BRANCH   1  11
HETATM   11  C6  UNL     1       6.779  -4.675  17.632  1.00  0.00     0.046 C 
BRANCH  11  12
HETATM   12  C4  UNL     1       7.602  -5.852  17.978  1.00  0.00    -0.011 C 
HETATM   13  C5  UNL     1       8.662  -5.656  19.026  1.00  0.00     0.010 C 
BRANCH  12  14
HETATM   14  C2  UNL     1       8.367  -6.296  16.714  1.00  0.00    -0.019 C 
HETATM   15  C1  UNL     1       7.739  -7.523  16.124  1.00  0.00     0.010 C 
HETATM   16  C3  UNL     1       8.495  -5.152  15.747  1.00  0.00     0.010 C 
ENDBRANCH  12  14
ENDBRANCH  11  12
ENDBRANCH   1  11
BRANCH   6  17
HETATM   17  O2  UNL     1       4.552  -6.126  16.565  1.00  0.00    -0.359 OA
ATOM     18  H2  UNL     1       3.943  -6.836  16.401  1.00  0.00     0.217 HD
ENDBRANCH   6  17
BRANCH   3  19
HETATM   19  O1  UNL     1       3.643  -2.807  20.870  1.00  0.00    -0.358 OA
ATOM     20  H1  UNL     1       2.855  -2.280  20.928  1.00  0.00     0.217 HD
ENDBRANCH   3  19
BRANCH   7  21
HETATM   21  O3  UNL     1       1.978  -7.218  18.102  1.00  0.00    -0.391 OA
ATOM     22  H3  UNL     1       1.168  -7.322  18.587  1.00  0.00     0.210 HD
ENDBRANCH   7  21
BRANCH   9  23
HETATM   23  C16 UNL     1      -0.141  -5.862  20.068  1.00  0.00     0.002 C 
HETATM   24  C17 UNL     1      -0.981  -5.657  21.049  1.00  0.00    -0.024 C 
BRANCH  24  25
HETATM   25  C18 UNL     1      -1.549  -4.371  21.493  1.00  0.00     0.008 A 
HETATM   26  C19 UNL     1      -0.764  -3.400  22.309  1.00  0.00     0.009 A 
HETATM   27  C20 UNL     1      -1.811  -4.256  22.955  1.00  0.00     0.009 A 
ENDBRANCH  24  25
ENDBRANCH   9  23
TORSDOF 8
ENDMDL
MODEL 3
REMARK VINA RESULT: -7.523463773      1.743      7.866
REMARK  8 active torsions:
REMARK  status: ('A' for Active; 'I' for Inactive)
REMARK    1  A    between atoms: C2_2  and  C4_4 
REMARK    2  A    between atoms: C4_4  and  C6_6 
REMARK    3  A    between atoms: C6_6  and  C7_7 
REMARK    4  A    between atoms: C9_9  and  O1_10 
REMARK    5  A    between atoms: C12_14  and  O2_15 
REMARK    6  A    between atoms: C13_17  and  O3_18 
REMARK    7  A    between atoms: C15_21  and  C16_22 
REMARK    8  A    between atoms: C17_23  and  C18_24 
ROOT
HETATM    1  C7  UNL     1       3.484  -4.761  19.632  1.00  0.00    -0.021 A 
HETATM    2  C8  UNL     1       3.851  -3.487  20.088  1.00  0.00     0.049 A 
HETATM    3  C9  UNL     1       5.033  -2.877  19.722  1.00  0.00     0.100 A 
HETATM    4  C10 UNL     1       5.908  -3.555  18.861  1.00  0.00     0.114 A 
HETATM    5  C11 UNL     1       5.562  -4.798  18.410  1.00  0.00     0.040 A 
HETATM    6  C12 UNL     1       4.361  -5.398  18.790  1.00  0.00     0.083 A 
HETATM    7  C13 UNL     1       6.477  -5.521  17.513  1.00  0.00     0.159 C 
HETATM    8  C14 UNL     1       7.895  -5.073  17.582  1.00  0.00     0.073 C 
HETATM    9  C15 UNL     1       8.081  -3.576  17.727  1.00  0.00     0.154 C 
HETATM   10  O4  UNL     1       7.088  -2.954  18.492  1.00  0.00    -0.338 OA
ENDROOT
BRANCH   1  11
HETATM   11  C6  UNL     1       2.224  -5.342  20.099  1.00  0.00     0.046 C 
BRANCH  11  12
HETATM   12  C4  UNL     1       0.969  -4.642  19.759  1.00  0.00    -0.011 C 
HETATM   13  C5  UNL     1      -0.032  -4.465  20.866  1.00  0.00     0.010 C 
BRANCH  12  14
HETATM   14  C2  UNL     1       0.232  -5.468  18.683  1.00  0.00    -0.019 C 
HETATM   15  C1  UNL     1       0.672  -5.053  17.311  1.00  0.00     0.010 C 
HETATM   16  C3  UNL     1       0.383  -6.939  18.952  1.00  0.00     0.010 C 
ENDBRANCH  12  14
ENDBRANCH  11  12
ENDBRANCH   1  11
BRANCH   6  17
HETATM   17  O2  UNL     1       4.058  -6.629  18.315  1.00  0.00    -0.359 OA
ATOM     18  H2  UNL     1       4.751  -7.267  18.186  1.00  0.00     0.217 HD
ENDBRANCH   6  17
BRANCH   3  19
HETATM   19  O1  UNL     1       5.371  -1.615  20.187  1.00  0.00    -0.358 OA
ATOM     20  H1  UNL     1       5.172  -1.344  21.075  1.00  0.00     0.217 HD
ENDBRANCH   3  19
BRANCH   7  21
HETATM   21  O3  UNL     1       6.028  -5.289  16.192  1.00  0.00    -0.391 OA
ATOM     22  H3  UNL     1       6.747  -5.512  15.613  1.00  0.00     0.210 HD
ENDBRANCH   7  21
BRANCH   9  23
HETATM   23  C16 UNL     1       8.206  -2.962  16.387  1.00  0.00     0.002 C 
HETATM   24  C17 UNL     1       9.322  -2.874  15.711  1.00  0.00    -0.024 C 
BRANCH  24  25
HETATM   25  C18 UNL     1      10.659  -3.347  16.116  1.00  0.00     0.008 A 
HETATM   26  C19 UNL     1      11.853  -3.189  15.235  1.00  0.00     0.009 A 
HETATM   27  C20 UNL     1      11.179  -4.522  15.362  1.00  0.00     0.009 A 
ENDBRANCH  24  25
ENDBRANCH   9  23
TORSDOF 8
ENDMDL
MODEL 4
REMARK VINA RESULT: -7.497131913      0.891      1.171
REMARK  8 active torsions:
REMARK  status: ('A' for Active; 'I' for Inactive)
REMARK    1  A    between atoms: C2_2  and  C4_4 
REMARK    2  A    between atoms: C4_4  and  C6_6 
REMARK    3  A    between atoms: C6_6  and  C7_7 
REMARK    4  A    between atoms: C9_9  and  O1_10 
REMARK    5  A    between atoms: C12_14  and  O2_15 
REMARK    6  A    between atoms: C13_17  and  O3_18 
REMARK    7  A    between atoms: C15_21  and  C16_22 
REMARK    8  A    between atoms: C17_23  and  C18_24 
ROOT
HETATM    1  C7  UNL     1       5.011  -5.232  18.596  1.00  0.00    -0.021 A 
HETATM    2  C8  UNL     1       4.642  -4.125  19.372  1.00  0.00     0.049 A 
HETATM    3  C9  UNL     1       3.341  -3.894  19.770  1.00  0.00     0.100 A 
HETATM    4  C10 UNL     1       2.344  -4.800  19.383  1.00  0.00     0.114 A 
HETATM    5  C11 UNL     1       2.691  -5.884  18.627  1.00  0.00     0.040 A 
HETATM    6  C12 UNL     1       4.012  -6.102  18.236  1.00  0.00     0.083 A 
HETATM    7  C13 UNL     1       1.649  -6.836  18.209  1.00  0.00     0.159 C 
HETATM    8  C14 UNL     1       0.267  -6.282  18.207  1.00  0.00     0.073 C 
HETATM    9  C15 UNL     1      -0.044  -5.352  19.363  1.00  0.00     0.154 C 
HETATM   10  O4  UNL     1       1.044  -4.577  19.775  1.00  0.00    -0.338 OA
ENDROOT
BRANCH   1  11
HETATM   11  C6  UNL     1       6.411  -5.378  18.195  1.00  0.00     0.046 C 
BRANCH  11  12
HETATM   12  C4  UNL     1       6.862  -4.671  16.978  1.00  0.00    -0.011 C 
HETATM   13  C5  UNL     1       6.164  -5.019  15.693  1.00  0.00     0.010 C 
BRANCH  12  14
HETATM   14  C2  UNL     1       8.345  -5.024  16.736  1.00  0.00    -0.019 C 
HETATM   15  C1  UNL     1       8.790  -6.098  17.682  1.00  0.00     0.010 C 
HETATM   16  C3  UNL     1       8.579  -5.353  15.288  1.00  0.00     0.010 C 
ENDBRANCH  12  14
ENDBRANCH  11  12
ENDBRANCH   1  11
BRANCH   6  17
HETATM   17  O2  UNL     1       4.309  -7.192  17.490  1.00  0.00    -0.359 OA
ATOM     18  H2  UNL     1       3.917  -8.030  17.705  1.00  0.00     0.217 HD
ENDBRANCH   6  17
BRANCH   3  19
HETATM   19  O1  UNL     1       3.004  -2.790  20.538  1.00  0.00    -0.358 OA
ATOM     20  H1  UNL     1       2.443  -2.102  20.200  1.00  0.00     0.217 HD
ENDBRANCH   3  19
BRANCH   7  21
HETATM   21  O3  UNL     1       1.671  -7.903  19.137  1.00  0.00    -0.391 OA
ATOM     22  H3  UNL     1       0.802  -8.286  19.139  1.00  0.00     0.210 HD
ENDBRANCH   7  21
BRANCH   9  23
HETATM   23  C16 UNL     1      -0.619  -6.132  20.481  1.00  0.00     0.002 C 
HETATM   24  C17 UNL     1      -1.355  -5.627  21.438  1.00  0.00    -0.024 C 
BRANCH  24  25
HETATM   25  C18 UNL     1      -1.764  -4.221  21.612  1.00  0.00     0.008 A 
HETATM   26  C19 UNL     1      -0.899  -3.229  22.315  1.00  0.00     0.009 A 
HETATM   27  C20 UNL     1      -2.091  -3.817  23.008  1.00  0.00     0.009 A 
ENDBRANCH  24  25
ENDBRANCH   9  23
TORSDOF 8
ENDMDL
MODEL 5
REMARK VINA RESULT: -7.445737521      1.082      1.658
REMARK  8 active torsions:
REMARK  status: ('A' for Active; 'I' for Inactive)
REMARK    1  A    between atoms: C2_2  and  C4_4 
REMARK    2  A    between atoms: C4_4  and  C6_6 
REMARK    3  A    between atoms: C6_6  and  C7_7 
REMARK    4  A    between atoms: C9_9  and  O1_10 
REMARK    5  A    between atoms: C12_14  and  O2_15 
REMARK    6  A    between atoms: C13_17  and  O3_18 
REMARK    7  A    between atoms: C15_21  and  C16_22 
REMARK    8  A    between atoms: C17_23  and  C18_24 
ROOT
HETATM    1  C7  UNL     1       5.000  -5.059  17.625  1.00  0.00    -0.021 A 
HETATM    2  C8  UNL     1       5.044  -4.528  18.921  1.00  0.00     0.049 A 
HETATM    3  C9  UNL     1       3.922  -4.404  19.714  1.00  0.00     0.100 A 
HETATM    4  C10 UNL     1       2.684  -4.824  19.207  1.00  0.00     0.114 A 
HETATM    5  C11 UNL     1       2.628  -5.343  17.944  1.00  0.00     0.040 A 
HETATM    6  C12 UNL     1       3.774  -5.462  17.158  1.00  0.00     0.083 A 
HETATM    7  C13 UNL     1       1.332  -5.779  17.400  1.00  0.00     0.159 C 
HETATM    8  C14 UNL     1       0.146  -5.158  18.052  1.00  0.00     0.073 C 
HETATM    9  C15 UNL     1       0.263  -4.990  19.553  1.00  0.00     0.154 C 
HETATM   10  O4  UNL     1       1.561  -4.703  19.990  1.00  0.00    -0.338 OA
ENDROOT
BRANCH   1  11
HETATM   11  C6  UNL     1       6.237  -5.122  16.845  1.00  0.00     0.046 C 
BRANCH  11  12
HETATM   12  C4  UNL     1       7.486  -4.658  17.485  1.00  0.00    -0.011 C 
HETATM   13  C5  UNL     1       7.957  -3.275  17.131  1.00  0.00     0.010 C 
BRANCH  12  14
HETATM   14  C2  UNL     1       8.631  -5.595  17.046  1.00  0.00    -0.019 C 
HETATM   15  C1  UNL     1       8.109  -6.977  16.792  1.00  0.00     0.010 C 
HETATM   16  C3  UNL     1       9.380  -5.004  15.885  1.00  0.00     0.010 C 
ENDBRANCH  12  14
ENDBRANCH  11  12
ENDBRANCH   1  11
BRANCH   6  17
HETATM   17  O2  UNL     1       3.670  -5.987  15.914  1.00  0.00    -0.359 OA
ATOM     18  H2  UNL     1       2.971  -5.699  15.339  1.00  0.00     0.217 HD
ENDBRANCH   6  17
BRANCH   3  19
HETATM   19  O1  UNL     1       3.994  -3.875  20.994  1.00  0.00    -0.358 OA
ATOM     20  H1  UNL     1       3.721  -4.376  21.754  1.00  0.00     0.217 HD
ENDBRANCH   3  19
BRANCH   7  21
HETATM   21  O3  UNL     1       1.244  -7.174  17.612  1.00  0.00    -0.391 OA
ATOM     22  H3  UNL     1       2.078  -7.546  17.352  1.00  0.00     0.210 HD
ENDBRANCH   7  21
BRANCH   9  23
HETATM   23  C16 UNL     1      -0.294  -6.182  20.228  1.00  0.00     0.002 C 
HETATM   24  C17 UNL     1      -1.230  -6.150  21.142  1.00  0.00    -0.024 C 
BRANCH  24  25
HETATM   25  C18 UNL     1      -1.916  -4.964  21.686  1.00  0.00     0.008 A 
HETATM   26  C19 UNL     1      -1.291  -4.098  22.728  1.00  0.00     0.009 A 
HETATM   27  C20 UNL     1      -2.364  -5.076  23.101  1.00  0.00     0.009 A 
ENDBRANCH  24  25
ENDBRANCH   9  23
TORSDOF 8
ENDMDL
