MODEL 1
REMARK VINA RESULT: -6.830521607      0.000      0.000
REMARK  6 active torsions:
REMARK  status: ('A' for Active; 'I' for Inactive)
REMARK    1  A    between atoms: C2_2  and  C3_3 
REMARK    2  A    between atoms: C3_3  and  S1_4 
REMARK    3  A    between atoms: S1_4  and  N1_7 
REMARK    4  A    between atoms: N1_7  and  C4_9 
REMARK    5  A    between atoms: C4_9  and  C5_10 
REMARK    6  A    between atoms: C4_9  and  C11_19 
ROOT
HETATM    1  C4  UNL     1      -5.833  21.842   4.418  1.00  0.00     0.047 C 
ENDROOT
BRANCH   1   2
HETATM    2  N1  UNL     1      -6.887  20.935   3.983  1.00  0.00    -0.288 N 
ATOM      3  H1  UNL     1      -7.595  21.313   3.354  1.00  0.00     0.178 HD
BRANCH   2   4
HETATM    4  S1  UNL     1      -7.035  19.383   4.408  1.00  0.00     0.230 S 
HETATM    5  O1  UNL     1      -7.659  19.406   5.827  1.00  0.00    -0.206 OA
HETATM    6  O2  UNL     1      -5.724  18.649   4.719  1.00  0.00    -0.206 OA
BRANCH   4   7
HETATM    7  C3  UNL     1      -8.042  18.255   3.554  1.00  0.00     0.163 C 
BRANCH   7   8
HETATM    8  C2  UNL     1      -9.504  18.299   3.942  1.00  0.00     0.012 C 
HETATM    9  C1  UNL     1     -10.139  16.927   3.917  1.00  0.00     0.006 C 
ENDBRANCH   7   8
ENDBRANCH   4   7
ENDBRANCH   2   4
ENDBRANCH   1   2
BRANCH   1  10
HETATM   10  C5  UNL     1      -6.205  22.382   5.755  1.00  0.00     0.237 C 
HETATM   11  N2  UNL     1      -5.055  23.123   6.354  1.00  0.00    -0.061 N 
HETATM   12  C6  UNL     1      -5.678  23.769   7.493  1.00  0.00     0.187 C 
ATOM     13  H22 UNL     1      -4.239  22.552   6.573  1.00  0.00     0.278 HD
ATOM     14  H21 UNL     1      -4.563  23.749   5.715  1.00  0.00     0.278 HD
HETATM   15  C7  UNL     1      -6.582  22.834   8.265  1.00  0.00     0.033 C 
HETATM   16  C10 UNL     1      -6.742  24.538   6.688  1.00  0.00     0.040 C 
HETATM   17  C8  UNL     1      -7.881  22.751   7.452  1.00  0.00     0.009 C 
HETATM   18  C9  UNL     1      -7.316  23.223   6.071  1.00  0.00     0.024 C 
ENDBRANCH   1  10
BRANCH   1  19
HETATM   19  C11 UNL     1      -5.311  22.665   3.343  1.00  0.00     0.052 C 
HETATM   20  C12 UNL     1      -3.999  23.361   3.526  1.00  0.00     0.034 C 
HETATM   21  C13 UNL     1      -5.021  21.708   2.159  1.00  0.00     0.034 C 
HETATM   22 BR1  UNL     1      -6.477  23.982   2.578  1.00  0.00    -0.080 Br
ENDBRANCH   1  19
TORSDOF 6
ENDMDL
MODEL 2
REMARK VINA RESULT: -6.741926578      1.119      1.725
REMARK  6 active torsions:
REMARK  status: ('A' for Active; 'I' for Inactive)
REMARK    1  A    between atoms: C2_2  and  C3_3 
REMARK    2  A    between atoms: C3_3  and  S1_4 
REMARK    3  A    between atoms: S1_4  and  N1_7 
REMARK    4  A    between atoms: N1_7  and  C4_9 
REMARK    5  A    between atoms: C4_9  and  C5_10 
REMARK    6  A    between atoms: C4_9  and  C11_19 
ROOT
HETATM    1  C4  UNL     1      -5.850  21.865   4.209  1.00  0.00     0.047 C 
ENDROOT
BRANCH   1   2
HETATM    2  N1  UNL     1      -6.987  20.980   3.991  1.00  0.00    -0.288 N 
ATOM      3  H1  UNL     1      -7.808  21.380   3.537  1.00  0.00     0.178 HD
BRANCH   2   4
HETATM    4  S1  UNL     1      -7.064  19.420   4.404  1.00  0.00     0.230 S 
HETATM    5  O1  UNL     1      -7.645  19.405   5.840  1.00  0.00    -0.206 OA
HETATM    6  O2  UNL     1      -5.718  18.732   4.667  1.00  0.00    -0.206 OA
BRANCH   4   7
HETATM    7  C3  UNL     1      -8.054  18.262   3.567  1.00  0.00     0.163 C 
BRANCH   7   8
HETATM    8  C2  UNL     1      -9.519  18.303   3.941  1.00  0.00     0.012 C 
HETATM    9  C1  UNL     1     -10.154  16.932   3.897  1.00  0.00     0.006 C 
ENDBRANCH   7   8
ENDBRANCH   4   7
ENDBRANCH   2   4
ENDBRANCH   1   2
BRANCH   1  10
HETATM   10  C5  UNL     1      -6.089  22.630   5.465  1.00  0.00     0.237 C 
HETATM   11  N2  UNL     1      -7.521  22.523   5.873  1.00  0.00    -0.061 N 
HETATM   12  C6  UNL     1      -7.494  23.095   7.205  1.00  0.00     0.187 C 
ATOM     13  H22 UNL     1      -8.187  22.951   5.231  1.00  0.00     0.278 HD
ATOM     14  H21 UNL     1      -7.920  21.586   5.812  1.00  0.00     0.278 HD
HETATM   15  C7  UNL     1      -6.684  24.372   7.269  1.00  0.00     0.033 C 
HETATM   16  C10 UNL     1      -6.461  22.113   7.789  1.00  0.00     0.040 C 
HETATM   17  C8  UNL     1      -5.215  23.927   7.303  1.00  0.00     0.009 C 
HETATM   18  C9  UNL     1      -5.398  22.491   6.708  1.00  0.00     0.024 C 
ENDBRANCH   1  10
BRANCH   1  19
HETATM   19  C11 UNL     1      -5.361  22.473   2.986  1.00  0.00     0.052 C 
HETATM   20  C12 UNL     1      -6.185  23.528   2.315  1.00  0.00     0.034 C 
HETATM   21  C13 UNL     1      -4.072  23.245   3.365  1.00  0.00     0.034 C 
HETATM   22 BR1  UNL     1      -4.786  21.309   1.575  1.00  0.00    -0.080 Br
ENDBRANCH   1  19
TORSDOF 6
ENDMDL
MODEL 3
REMARK VINA RESULT: -6.511649741      1.799      3.837
REMARK  6 active torsions:
REMARK  status: ('A' for Active; 'I' for Inactive)
REMARK    1  A    between atoms: C2_2  and  C3_3 
REMARK    2  A    between atoms: C3_3  and  S1_4 
REMARK    3  A    between atoms: S1_4  and  N1_7 
REMARK    4  A    between atoms: N1_7  and  C4_9 
REMARK    5  A    between atoms: C4_9  and  C5_10 
REMARK    6  A    between atoms: C4_9  and  C11_19 
ROOT
HETATM    1  C4  UNL     1      -6.430  22.263   4.853  1.00  0.00     0.047 C 
ENDROOT
BRANCH   1   2
HETATM    2  N1  UNL     1      -6.010  20.874   4.995  1.00  0.00    -0.288 N 
ATOM      3  H1  UNL     1      -5.171  20.697   5.548  1.00  0.00     0.178 HD
BRANCH   2   4
HETATM    4  S1  UNL     1      -6.753  19.591   4.354  1.00  0.00     0.230 S 
HETATM    5  O1  UNL     1      -5.874  18.375   4.739  1.00  0.00    -0.206 OA
HETATM    6  O2  UNL     1      -6.689  19.477   2.826  1.00  0.00    -0.206 OA
BRANCH   4   7
HETATM    7  C3  UNL     1      -8.349  19.086   4.821  1.00  0.00     0.163 C 
BRANCH   7   8
HETATM    8  C2  UNL     1      -9.228  18.644   3.671  1.00  0.00     0.012 C 
HETATM    9  C1  UNL     1      -9.954  17.353   3.978  1.00  0.00     0.006 C 
ENDBRANCH   7   8
ENDBRANCH   4   7
ENDBRANCH   2   4
ENDBRANCH   1   2
BRANCH   1  10
HETATM   10  C5  UNL     1      -5.954  22.762   3.533  1.00  0.00     0.237 C 
HETATM   11  N2  UNL     1      -6.964  23.681   2.931  1.00  0.00    -0.061 N 
HETATM   12  C6  UNL     1      -6.227  24.243   1.815  1.00  0.00     0.187 C 
ATOM     13  H22 UNL     1      -7.854  23.248   2.687  1.00  0.00     0.278 HD
ATOM     14  H21 UNL     1      -7.365  24.365   3.574  1.00  0.00     0.278 HD
HETATM   15  C7  UNL     1      -5.464  23.192   1.039  1.00  0.00     0.033 C 
HETATM   16  C10 UNL     1      -5.072  24.824   2.652  1.00  0.00     0.040 C 
HETATM   17  C8  UNL     1      -4.209  22.896   1.872  1.00  0.00     0.009 C 
HETATM   18  C9  UNL     1      -4.720  23.426   3.252  1.00  0.00     0.024 C 
ENDBRANCH   1  10
BRANCH   1  19
HETATM   19  C11 UNL     1      -6.308  23.022   6.084  1.00  0.00     0.052 C 
HETATM   20  C12 UNL     1      -6.743  24.454   6.104  1.00  0.00     0.034 C 
HETATM   21  C13 UNL     1      -7.272  22.363   7.102  1.00  0.00     0.034 C 
HETATM   22 BR1  UNL     1      -4.617  22.997   6.987  1.00  0.00    -0.080 Br
ENDBRANCH   1  19
TORSDOF 6
ENDMDL
MODEL 4
REMARK VINA RESULT: -6.491549536      2.174      3.644
REMARK  6 active torsions:
REMARK  status: ('A' for Active; 'I' for Inactive)
REMARK    1  A    between atoms: C2_2  and  C3_3 
REMARK    2  A    between atoms: C3_3  and  S1_4 
REMARK    3  A    between atoms: S1_4  and  N1_7 
REMARK    4  A    between atoms: N1_7  and  C4_9 
REMARK    5  A    between atoms: C4_9  and  C5_10 
REMARK    6  A    between atoms: C4_9  and  C11_19 
ROOT
HETATM    1  C4  UNL     1      -6.598  22.340   5.060  1.00  0.00     0.047 C 
ENDROOT
BRANCH   1   2
HETATM    2  N1  UNL     1      -5.958  21.117   4.593  1.00  0.00    -0.288 N 
ATOM      3  H1  UNL     1      -4.940  21.120   4.527  1.00  0.00     0.178 HD
BRANCH   2   4
HETATM    4  S1  UNL     1      -6.717  19.755   4.171  1.00  0.00     0.230 S 
HETATM    5  O1  UNL     1      -5.823  18.606   4.703  1.00  0.00    -0.206 OA
HETATM    6  O2  UNL     1      -6.699  19.417   2.675  1.00  0.00    -0.206 OA
BRANCH   4   7
HETATM    7  C3  UNL     1      -8.296  19.326   4.755  1.00  0.00     0.163 C 
BRANCH   7   8
HETATM    8  C2  UNL     1      -9.242  18.815   3.691  1.00  0.00     0.012 C 
HETATM    9  C1  UNL     1      -9.825  17.467   4.051  1.00  0.00     0.006 C 
ENDBRANCH   7   8
ENDBRANCH   4   7
ENDBRANCH   2   4
ENDBRANCH   1   2
BRANCH   1  10
HETATM   10  C5  UNL     1      -6.626  23.311   3.932  1.00  0.00     0.237 C 
HETATM   11  N2  UNL     1      -8.031  23.713   3.628  1.00  0.00    -0.061 N 
HETATM   12  C6  UNL     1      -7.834  24.818   2.710  1.00  0.00     0.187 C 
ATOM     13  H22 UNL     1      -8.631  22.964   3.281  1.00  0.00     0.278 HD
ATOM     14  H21 UNL     1      -8.607  23.925   4.443  1.00  0.00     0.278 HD
HETATM   15  C7  UNL     1      -6.789  24.515   1.658  1.00  0.00     0.033 C 
HETATM   16  C10 UNL     1      -6.986  25.679   3.664  1.00  0.00     0.040 C 
HETATM   17  C8  UNL     1      -5.435  24.699   2.357  1.00  0.00     0.009 C 
HETATM   18  C9  UNL     1      -5.920  24.550   3.837  1.00  0.00     0.024 C 
ENDBRANCH   1  10
BRANCH   1  19
HETATM   19  C11 UNL     1      -6.215  22.701   6.413  1.00  0.00     0.052 C 
HETATM   20  C12 UNL     1      -6.911  23.842   7.089  1.00  0.00     0.034 C 
HETATM   21  C13 UNL     1      -6.595  21.496   7.311  1.00  0.00     0.034 C 
HETATM   22 BR1  UNL     1      -4.351  22.960   6.777  1.00  0.00    -0.080 Br
ENDBRANCH   1  19
TORSDOF 6
ENDMDL
MODEL 5
REMARK VINA RESULT: -6.451953594      1.621      3.764
REMARK  6 active torsions:
REMARK  status: ('A' for Active; 'I' for Inactive)
REMARK    1  A    between atoms: C2_2  and  C3_3 
REMARK    2  A    between atoms: C3_3  and  S1_4 
REMARK    3  A    between atoms: S1_4  and  N1_7 
REMARK    4  A    between atoms: N1_7  and  C4_9 
REMARK    5  A    between atoms: C4_9  and  C5_10 
REMARK    6  A    between atoms: C4_9  and  C11_19 
ROOT
HETATM    1  C4  UNL     1      -6.354  22.316   4.820  1.00  0.00     0.047 C 
ENDROOT
BRANCH   1   2
HETATM    2  N1  UNL     1      -5.911  20.930   4.907  1.00  0.00    -0.288 N 
ATOM      3  H1  UNL     1      -5.016  20.755   5.364  1.00  0.00     0.178 HD
BRANCH   2   4
HETATM    4  S1  UNL     1      -6.712  19.645   4.343  1.00  0.00     0.230 S 
HETATM    5  O1  UNL     1      -5.854  18.419   4.747  1.00  0.00    -0.206 OA
HETATM    6  O2  UNL     1      -6.703  19.469   2.819  1.00  0.00    -0.206 OA
BRANCH   4   7
HETATM    7  C3  UNL     1      -8.304  19.205   4.882  1.00  0.00     0.163 C 
BRANCH   7   8
HETATM    8  C2  UNL     1      -9.251  18.797   3.775  1.00  0.00     0.012 C 
HETATM    9  C1  UNL     1      -9.864  17.438   4.026  1.00  0.00     0.006 C 
ENDBRANCH   7   8
ENDBRANCH   4   7
ENDBRANCH   2   4
ENDBRANCH   1   2
BRANCH   1  10
HETATM   10  C5  UNL     1      -5.527  23.006   3.793  1.00  0.00     0.237 C 
HETATM   11  N2  UNL     1      -4.869  22.007   2.899  1.00  0.00    -0.061 N 
HETATM   12  C6  UNL     1      -4.340  22.852   1.846  1.00  0.00     0.187 C 
ATOM     13  H22 UNL     1      -4.185  21.403   3.354  1.00  0.00     0.278 HD
ATOM     14  H21 UNL     1      -5.471  21.246   2.583  1.00  0.00     0.278 HD
HETATM   15  C7  UNL     1      -3.657  24.089   2.386  1.00  0.00     0.033 C 
HETATM   16  C10 UNL     1      -5.689  23.470   1.434  1.00  0.00     0.040 C 
HETATM   17  C8  UNL     1      -4.790  25.057   2.756  1.00  0.00     0.009 C 
HETATM   18  C9  UNL     1      -5.951  24.015   2.874  1.00  0.00     0.024 C 
ENDBRANCH   1  10
BRANCH   1  19
HETATM   19  C11 UNL     1      -6.664  22.895   6.114  1.00  0.00     0.052 C 
HETATM   20  C12 UNL     1      -7.907  22.462   6.829  1.00  0.00     0.034 C 
HETATM   21  C13 UNL     1      -5.544  22.435   7.081  1.00  0.00     0.034 C 
HETATM   22 BR1  UNL     1      -6.633  24.805   6.271  1.00  0.00    -0.080 Br
ENDBRANCH   1  19
TORSDOF 6
ENDMDL
