MODEL 1
REMARK VINA RESULT: -5.644425861      0.000      0.000
REMARK  2 active torsions:
REMARK  status: ('A' for Active; 'I' for Inactive)
REMARK    1  A    between atoms: C2_2  and  O1_3 
REMARK    2  A    between atoms: C7_9  and  N1_10 
ROOT
HETATM    1  N1  UNL     1       8.202 -13.284  38.222  1.00  0.00    -0.321 N 
ATOM      2  H1  UNL     1       7.462 -13.272  38.924  1.00  0.00     0.172 HD
HETATM    3  C8  UNL     1       7.985 -12.593  37.034  1.00  0.00     0.177 C 
HETATM    4  N2  UNL     1       7.798 -12.035  36.040  1.00  0.00    -0.172 NA
ENDROOT
BRANCH   1   5
HETATM    5  C7  UNL     1       9.411 -14.017  38.525  1.00  0.00     0.126 C 
HETATM    6  C2  UNL     1      10.053 -13.441  39.714  1.00  0.00     0.075 C 
HETATM    7  C1  UNL     1      10.872 -12.220  39.265  1.00  0.00     0.048 C 
HETATM    8  C3  UNL     1      10.963 -14.306  40.499  1.00  0.00     0.040 C 
HETATM    9  C4  UNL     1      11.076 -15.717  39.974  1.00  0.00     0.003 C 
HETATM   10  C5  UNL     1       9.626 -16.179  39.789  1.00  0.00     0.002 C 
HETATM   11  C6  UNL     1       9.133 -15.485  38.550  1.00  0.00     0.029 C 
BRANCH   6  12
HETATM   12  O1  UNL     1       9.089 -12.913  40.604  1.00  0.00    -0.388 OA
ATOM     13  H1  UNL     1       9.099 -11.978  40.438  1.00  0.00     0.210 HD
ENDBRANCH   6  12
ENDBRANCH   1   5
TORSDOF 2
ENDMDL
MODEL 2
REMARK VINA RESULT: -5.622733799      1.743      2.533
REMARK  2 active torsions:
REMARK  status: ('A' for Active; 'I' for Inactive)
REMARK    1  A    between atoms: C2_2  and  O1_3 
REMARK    2  A    between atoms: C7_9  and  N1_10 
ROOT
HETATM    1  N1  UNL     1       8.863 -13.545  39.464  1.00  0.00    -0.321 N 
ATOM      2  H1  UNL     1       8.136 -14.103  39.911  1.00  0.00     0.172 HD
HETATM    3  C8  UNL     1       8.645 -13.111  38.160  1.00  0.00     0.177 C 
HETATM    4  N2  UNL     1       8.472 -12.766  37.071  1.00  0.00    -0.172 NA
ENDROOT
BRANCH   1   5
HETATM    5  C7  UNL     1      10.058 -13.255  40.227  1.00  0.00     0.126 C 
HETATM    6  C2  UNL     1      10.236 -14.273  41.271  1.00  0.00     0.075 C 
HETATM    7  C1  UNL     1       9.345 -13.888  42.464  1.00  0.00     0.048 C 
HETATM    8  C3  UNL     1      11.600 -14.489  41.803  1.00  0.00     0.040 C 
HETATM    9  C4  UNL     1      12.659 -13.635  41.148  1.00  0.00     0.003 C 
HETATM   10  C5  UNL     1      12.435 -13.825  39.644  1.00  0.00     0.002 C 
HETATM   11  C6  UNL     1      11.212 -13.017  39.309  1.00  0.00     0.029 C 
BRANCH   6  12
HETATM   12  O1  UNL     1       9.737 -15.526  40.847  1.00  0.00    -0.388 OA
ATOM     13  H1  UNL     1      10.052 -16.140  41.499  1.00  0.00     0.210 HD
ENDBRANCH   6  12
ENDBRANCH   1   5
TORSDOF 2
ENDMDL
MODEL 3
REMARK VINA RESULT: -5.442221815      3.217      4.324
REMARK  2 active torsions:
REMARK  status: ('A' for Active; 'I' for Inactive)
REMARK    1  A    between atoms: C2_2  and  O1_3 
REMARK    2  A    between atoms: C7_9  and  N1_10 
ROOT
HETATM    1  N1  UNL     1      10.026 -15.284  42.027  1.00  0.00    -0.321 N 
ATOM      2  H1  UNL     1      10.641 -16.085  41.883  1.00  0.00     0.172 HD
HETATM    3  C8  UNL     1       8.903 -15.459  42.829  1.00  0.00     0.177 C 
HETATM    4  N2  UNL     1       7.960 -15.609  43.479  1.00  0.00    -0.172 NA
ENDROOT
BRANCH   1   5
HETATM    5  C7  UNL     1      10.377 -14.037  41.384  1.00  0.00     0.126 C 
HETATM    6  C2  UNL     1      11.627 -14.205  40.630  1.00  0.00     0.075 C 
HETATM    7  C1  UNL     1      12.798 -14.060  41.616  1.00  0.00     0.048 C 
HETATM    8  C3  UNL     1      11.890 -13.276  39.507  1.00  0.00     0.040 C 
HETATM    9  C4  UNL     1      10.783 -12.279  39.260  1.00  0.00     0.003 C 
HETATM   10  C5  UNL     1       9.506 -13.124  39.210  1.00  0.00     0.002 C 
HETATM   11  C6  UNL     1       9.204 -13.492  40.637  1.00  0.00     0.029 C 
BRANCH   6  12
HETATM   12  O1  UNL     1      11.744 -15.523  40.132  1.00  0.00    -0.388 OA
ATOM     13  H1  UNL     1      11.437 -16.074  40.843  1.00  0.00     0.210 HD
ENDBRANCH   6  12
ENDBRANCH   1   5
TORSDOF 2
ENDMDL
MODEL 4
REMARK VINA RESULT: -5.238099500      2.862      4.298
REMARK  2 active torsions:
REMARK  status: ('A' for Active; 'I' for Inactive)
REMARK    1  A    between atoms: C2_2  and  O1_3 
REMARK    2  A    between atoms: C7_9  and  N1_10 
ROOT
HETATM    1  N1  UNL     1       9.243 -14.479  42.350  1.00  0.00    -0.321 N 
ATOM      2  H1  UNL     1       8.930 -13.557  42.653  1.00  0.00     0.172 HD
HETATM    3  C8  UNL     1       8.686 -15.594  42.969  1.00  0.00     0.177 C 
HETATM    4  N2  UNL     1       8.238 -16.519  43.496  1.00  0.00    -0.172 NA
ENDROOT
BRANCH   1   5
HETATM    5  C7  UNL     1      10.238 -14.545  41.302  1.00  0.00     0.126 C 
HETATM    6  C2  UNL     1       9.862 -13.642  40.206  1.00  0.00     0.075 C 
HETATM    7  C1  UNL     1       8.839 -14.372  39.321  1.00  0.00     0.048 C 
HETATM    8  C3  UNL     1      10.936 -13.152  39.312  1.00  0.00     0.040 C 
HETATM    9  C4  UNL     1      12.317 -13.632  39.688  1.00  0.00     0.003 C 
HETATM   10  C5  UNL     1      12.437 -13.333  41.186  1.00  0.00     0.002 C 
HETATM   11  C6  UNL     1      11.607 -14.378  41.878  1.00  0.00     0.029 C 
BRANCH   6  12
HETATM   12  O1  UNL     1       9.165 -12.514  40.697  1.00  0.00    -0.388 OA
ATOM     13  H1  UNL     1       9.735 -12.154  41.366  1.00  0.00     0.210 HD
ENDBRANCH   6  12
ENDBRANCH   1   5
TORSDOF 2
ENDMDL
MODEL 5
REMARK VINA RESULT: -5.183538340      2.802      4.526
REMARK  2 active torsions:
REMARK  status: ('A' for Active; 'I' for Inactive)
REMARK    1  A    between atoms: C2_2  and  O1_3 
REMARK    2  A    between atoms: C7_9  and  N1_10 
ROOT
HETATM    1  N1  UNL     1      11.761 -14.546  41.192  1.00  0.00    -0.321 N 
ATOM      2  H1  UNL     1      11.344 -15.275  41.770  1.00  0.00     0.172 HD
HETATM    3  C8  UNL     1      12.937 -13.950  41.640  1.00  0.00     0.177 C 
HETATM    4  N2  UNL     1      13.902 -13.443  42.021  1.00  0.00    -0.172 NA
ENDROOT
BRANCH   1   5
HETATM    5  C7  UNL     1      11.094 -14.195  39.958  1.00  0.00     0.126 C 
HETATM    6  C2  UNL     1       9.718 -14.710  39.978  1.00  0.00     0.075 C 
HETATM    7  C1  UNL     1       9.761 -16.191  39.568  1.00  0.00     0.048 C 
HETATM    8  C3  UNL     1       8.718 -14.050  39.108  1.00  0.00     0.040 C 
HETATM    9  C4  UNL     1       9.260 -12.877  38.327  1.00  0.00     0.003 C 
HETATM   10  C5  UNL     1       9.984 -12.019  39.370  1.00  0.00     0.002 C 
HETATM   11  C6  UNL     1      11.268 -12.740  39.670  1.00  0.00     0.029 C 
BRANCH   6  12
HETATM   12  O1  UNL     1       9.201 -14.721  41.293  1.00  0.00    -0.388 OA
ATOM     13  H1  UNL     1       8.514 -14.066  41.285  1.00  0.00     0.210 HD
ENDBRANCH   6  12
ENDBRANCH   1   5
TORSDOF 2
ENDMDL
