MODEL 1
REMARK VINA RESULT: -5.817647669      0.000      0.000
REMARK  4 active torsions:
REMARK  status: ('A' for Active; 'I' for Inactive)
REMARK    1  A    between atoms: C2_2  and  O1_3 
REMARK    2  A    between atoms: C5_7  and  C6_8 
REMARK    3  A    between atoms: C6_8  and  O2_9 
REMARK    4  A    between atoms: O2_9  and  N1_10 
ROOT
HETATM    1  C1  UNL     1       8.836 -13.375  38.431  1.00  0.00     0.045 C 
HETATM    2  C2  UNL     1       9.657 -13.293  39.715  1.00  0.00     0.054 C 
HETATM    3  C3  UNL     1       9.645 -14.660  40.310  1.00  0.00     0.038 C 
HETATM    4  C4  UNL     1      10.832 -15.486  39.931  1.00  0.00     0.010 C 
HETATM    5  C5  UNL     1      12.058 -14.779  40.414  1.00  0.00     0.012 C 
HETATM    6  C7  UNL     1      12.170 -13.355  40.029  1.00  0.00     0.010 C 
HETATM    7  C8  UNL     1      10.988 -12.726  39.397  1.00  0.00     0.038 C 
ENDROOT
BRANCH   5   8
HETATM    8  C6  UNL     1      13.246 -15.583  39.895  1.00  0.00     0.205 C 
BRANCH   8   9
HETATM    9  O2  UNL     1      14.301 -15.592  40.788  1.00  0.00    -0.287 OA
BRANCH   9  10
HETATM   10  N1  UNL     1      15.441 -15.781  40.065  1.00  0.00    -0.311 N 
ATOM     11  H12 UNL     1      16.014 -16.625  40.070  1.00  0.00     0.184 HD
ATOM     12  H11 UNL     1      15.604 -14.928  39.530  1.00  0.00     0.184 HD
ENDBRANCH   9  10
ENDBRANCH   8   9
ENDBRANCH   5   8
BRANCH   2  13
HETATM   13  O1  UNL     1       8.939 -12.456  40.585  1.00  0.00    -0.390 OA
ATOM     14  H1  UNL     1       9.575 -12.101  41.194  1.00  0.00     0.210 HD
ENDBRANCH   2  13
TORSDOF 4
ENDMDL
MODEL 2
REMARK VINA RESULT: -5.669179092      3.101      4.806
REMARK  4 active torsions:
REMARK  status: ('A' for Active; 'I' for Inactive)
REMARK    1  A    between atoms: C2_2  and  O1_3 
REMARK    2  A    between atoms: C5_7  and  C6_8 
REMARK    3  A    between atoms: C6_8  and  O2_9 
REMARK    4  A    between atoms: O2_9  and  N1_10 
ROOT
HETATM    1  C1  UNL     1      13.079 -14.991  39.834  1.00  0.00     0.045 C 
HETATM    2  C2  UNL     1      11.927 -14.293  40.552  1.00  0.00     0.054 C 
HETATM    3  C3  UNL     1      11.799 -12.945  39.930  1.00  0.00     0.038 C 
HETATM    4  C4  UNL     1      10.786 -12.887  38.832  1.00  0.00     0.010 C 
HETATM    5  C5  UNL     1       9.458 -13.260  39.411  1.00  0.00     0.012 C 
HETATM    6  C7  UNL     1       9.429 -14.518  40.190  1.00  0.00     0.010 C 
HETATM    7  C8  UNL     1      10.728 -15.162  40.490  1.00  0.00     0.038 C 
ENDROOT
BRANCH   5   8
HETATM    8  C6  UNL     1       8.483 -13.317  38.239  1.00  0.00     0.205 C 
BRANCH   8   9
HETATM    9  O2  UNL     1       8.902 -12.545  37.172  1.00  0.00    -0.287 OA
BRANCH   9  10
HETATM   10  N1  UNL     1       7.786 -12.051  36.567  1.00  0.00    -0.311 N 
ATOM     11  H12 UNL     1       7.311 -12.468  35.766  1.00  0.00     0.184 HD
ATOM     12  H11 UNL     1       7.524 -11.199  37.064  1.00  0.00     0.184 HD
ENDBRANCH   9  10
ENDBRANCH   8   9
ENDBRANCH   5   8
BRANCH   2  13
HETATM   13  O1  UNL     1      12.351 -14.101  41.877  1.00  0.00    -0.390 OA
ATOM     14  H1  UNL     1      12.231 -13.177  42.060  1.00  0.00     0.210 HD
ENDBRANCH   2  13
TORSDOF 4
ENDMDL
MODEL 3
REMARK VINA RESULT: -5.374437856      1.290      2.130
REMARK  4 active torsions:
REMARK  status: ('A' for Active; 'I' for Inactive)
REMARK    1  A    between atoms: C2_2  and  O1_3 
REMARK    2  A    between atoms: C5_7  and  C6_8 
REMARK    3  A    between atoms: C6_8  and  O2_9 
REMARK    4  A    between atoms: O2_9  and  N1_10 
ROOT
HETATM    1  C1  UNL     1       9.632 -13.876  42.049  1.00  0.00     0.045 C 
HETATM    2  C2  UNL     1      10.148 -14.105  40.631  1.00  0.00     0.054 C 
HETATM    3  C3  UNL     1      11.325 -13.205  40.462  1.00  0.00     0.038 C 
HETATM    4  C4  UNL     1      12.631 -13.871  40.748  1.00  0.00     0.010 C 
HETATM    5  C5  UNL     1      12.782 -15.017  39.799  1.00  0.00     0.012 C 
HETATM    6  C7  UNL     1      11.635 -15.949  39.734  1.00  0.00     0.010 C 
HETATM    7  C8  UNL     1      10.395 -15.553  40.439  1.00  0.00     0.038 C 
ENDROOT
BRANCH   5   8
HETATM    8  C6  UNL     1      14.058 -15.745  40.209  1.00  0.00     0.205 C 
BRANCH   8   9
HETATM    9  O2  UNL     1      14.652 -15.174  41.319  1.00  0.00    -0.287 OA
BRANCH   9  10
HETATM   10  N1  UNL     1      15.996 -15.158  41.095  1.00  0.00    -0.311 N 
ATOM     11  H12 UNL     1      16.458 -14.739  40.288  1.00  0.00     0.184 HD
ATOM     12  H11 UNL     1      16.440 -15.638  41.879  1.00  0.00     0.184 HD
ENDBRANCH   9  10
ENDBRANCH   8   9
ENDBRANCH   5   8
BRANCH   2  13
HETATM   13  O1  UNL     1       9.141 -13.639  39.770  1.00  0.00    -0.390 OA
ATOM     14  H1  UNL     1       8.756 -12.884  40.199  1.00  0.00     0.210 HD
ENDBRANCH   2  13
TORSDOF 4
ENDMDL
MODEL 4
REMARK VINA RESULT: -5.260032072      2.006      2.784
REMARK  4 active torsions:
REMARK  status: ('A' for Active; 'I' for Inactive)
REMARK    1  A    between atoms: C2_2  and  O1_3 
REMARK    2  A    between atoms: C5_7  and  C6_8 
REMARK    3  A    between atoms: C6_8  and  O2_9 
REMARK    4  A    between atoms: O2_9  and  N1_10 
ROOT
HETATM    1  C1  UNL     1      11.498 -13.041  39.735  1.00  0.00     0.045 C 
HETATM    2  C2  UNL     1      11.945 -14.067  40.773  1.00  0.00     0.054 C 
HETATM    3  C3  UNL     1      12.201 -15.334  40.030  1.00  0.00     0.038 C 
HETATM    4  C4  UNL     1      13.631 -15.517  39.637  1.00  0.00     0.010 C 
HETATM    5  C5  UNL     1      14.453 -15.537  40.887  1.00  0.00     0.012 C 
HETATM    6  C7  UNL     1      14.226 -14.412  41.820  1.00  0.00     0.010 C 
HETATM    7  C8  UNL     1      13.087 -13.510  41.535  1.00  0.00     0.038 C 
ENDROOT
BRANCH   5   8
HETATM    8  C6  UNL     1      15.909 -15.593  40.437  1.00  0.00     0.205 C 
BRANCH   8   9
HETATM    9  O2  UNL     1      16.753 -14.938  41.314  1.00  0.00    -0.287 OA
BRANCH   9  10
HETATM   10  N1  UNL     1      17.870 -14.589  40.617  1.00  0.00    -0.311 N 
ATOM     11  H12 UNL     1      18.002 -13.716  40.105  1.00  0.00     0.184 HD
ATOM     12  H11 UNL     1      18.536 -15.357  40.706  1.00  0.00     0.184 HD
ENDBRANCH   9  10
ENDBRANCH   8   9
ENDBRANCH   5   8
BRANCH   2  13
HETATM   13  O1  UNL     1      10.836 -14.290  41.605  1.00  0.00    -0.390 OA
ATOM     14  H1  UNL     1      11.103 -14.955  42.228  1.00  0.00     0.210 HD
ENDBRANCH   2  13
TORSDOF 4
ENDMDL
MODEL 5
REMARK VINA RESULT: -5.108969001      1.128      1.128
REMARK  4 active torsions:
REMARK  status: ('A' for Active; 'I' for Inactive)
REMARK    1  A    between atoms: C2_2  and  O1_3 
REMARK    2  A    between atoms: C5_7  and  C6_8 
REMARK    3  A    between atoms: C6_8  and  O2_9 
REMARK    4  A    between atoms: O2_9  and  N1_10 
ROOT
HETATM    1  C1  UNL     1       8.701 -14.010  38.519  1.00  0.00     0.045 C 
HETATM    2  C2  UNL     1       9.512 -13.361  39.637  1.00  0.00     0.054 C 
HETATM    3  C3  UNL     1       9.712 -14.412  40.676  1.00  0.00     0.038 C 
HETATM    4  C4  UNL     1      11.006 -15.147  40.540  1.00  0.00     0.010 C 
HETATM    5  C5  UNL     1      12.116 -14.153  40.665  1.00  0.00     0.012 C 
HETATM    6  C7  UNL     1      12.009 -12.961  39.795  1.00  0.00     0.010 C 
HETATM    7  C8  UNL     1      10.740 -12.769  39.056  1.00  0.00     0.038 C 
ENDROOT
BRANCH   5   8
HETATM    8  C6  UNL     1      13.406 -14.918  40.391  1.00  0.00     0.205 C 
BRANCH   8   9
HETATM    9  O2  UNL     1      14.188 -15.048  41.524  1.00  0.00    -0.287 OA
BRANCH   9  10
HETATM   10  N1  UNL     1      14.069 -13.890  42.232  1.00  0.00    -0.311 N 
ATOM     11  H12 UNL     1      13.532 -13.772  43.091  1.00  0.00     0.184 HD
ATOM     12  H11 UNL     1      14.614 -13.179  41.743  1.00  0.00     0.184 HD
ENDBRANCH   9  10
ENDBRANCH   8   9
ENDBRANCH   5   8
BRANCH   2  13
HETATM   13  O1  UNL     1       8.684 -12.375  40.197  1.00  0.00    -0.390 OA
ATOM     14  H1  UNL     1       8.629 -12.573  41.125  1.00  0.00     0.210 HD
ENDBRANCH   2  13
TORSDOF 4
ENDMDL
