MODEL 1
REMARK VINA RESULT: -7.895042842      0.000      0.000
REMARK  6 active torsions:
REMARK  status: ('A' for Active; 'I' for Inactive)
REMARK    1  A    between atoms: N3_4  and  N4_6 
REMARK    2  A    between atoms: C2_8  and  C3_9 
REMARK    3  A    between atoms: C4_10  and  O1_11 
REMARK    4  A    between atoms: C6_17  and  N6_18 
REMARK    5  A    between atoms: N6_18  and  N7_20 
REMARK    6  A    between atoms: N7_20  and  S1_22 
ROOT
HETATM    1  C3  UNL     1      15.173  35.227  15.208  1.00  0.00     0.100 C 
HETATM    2  C4  UNL     1      15.878  34.799  14.107  1.00  0.00     0.160 C 
HETATM    3  N5  UNL     1      17.163  34.353  14.077  1.00  0.00    -0.300 N 
ATOM      4  H5  UNL     1      17.429  33.862  13.224  1.00  0.00     0.171 HD
HETATM    5  C5  UNL     1      18.141  34.459  15.005  1.00  0.00     0.293 C 
HETATM    6  O2  UNL     1      19.295  34.028  14.686  1.00  0.00    -0.264 OA
HETATM    7  C6  UNL     1      18.078  34.970  16.268  1.00  0.00     0.193 C 
HETATM    8  N8  UNL     1      16.941  35.432  16.863  1.00  0.00    -0.303 N 
ATOM      9  H8  UNL     1      17.102  35.857  17.776  1.00  0.00     0.171 HD
HETATM   10  C7  UNL     1      15.670  35.438  16.491  1.00  0.00     0.263 C 
HETATM   11  O6  UNL     1      14.782  35.655  17.350  1.00  0.00    -0.267 OA
ENDROOT
BRANCH   1  12
HETATM   12  C2  UNL     1      13.775  35.471  14.972  1.00  0.00     0.128 C 
HETATM   13  N4  UNL     1      13.378  36.463  14.260  1.00  0.00    -0.309 N 
ATOM     14  H4  UNL     1      14.083  37.081  13.859  1.00  0.00     0.186 HD
BRANCH  13  15
HETATM   15  N3  UNL     1      12.039  36.740  14.005  1.00  0.00    -0.276 N 
HETATM   16  C1  UNL     1      11.400  36.056  13.132  1.00  0.00     0.215 C 
HETATM   17  N1  UNL     1      10.031  36.385  12.911  1.00  0.00    -0.065 NA
HETATM   18  N2  UNL     1      12.071  35.019  12.433  1.00  0.00    -0.065 NA
ATOM     19  H3  UNL     1      11.567  37.488  14.514  1.00  0.00     0.189 HD
ENDBRANCH  13  15
ENDBRANCH   1  12
BRANCH   2  20
HETATM   20  O1  UNL     1      15.199  34.828  12.887  1.00  0.00    -0.345 OA
ATOM     21  H1  UNL     1      15.527  34.250  12.208  1.00  0.00     0.219 HD
ENDBRANCH   2  20
BRANCH   7  22
HETATM   22  N6  UNL     1      19.107  35.055  17.004  1.00  0.00    -0.269 N 
ATOM     23  H6  UNL     1      19.124  34.454  17.828  1.00  0.00     0.189 HD
BRANCH  22  24
HETATM   24  N7  UNL     1      20.197  35.861  16.816  1.00  0.00    -0.206 N 
ATOM     25  H7  UNL     1      20.099  36.729  16.289  1.00  0.00     0.202 HD
BRANCH  24  26
HETATM   26  S1  UNL     1      21.728  35.425  17.462  1.00  0.00     0.223 S 
HETATM   27  O3  UNL     1      21.809  35.637  18.944  1.00  0.00    -0.577 OA
HETATM   28  O4  UNL     1      22.854  36.153  16.772  1.00  0.00    -0.577 OA
HETATM   29  O5  UNL     1      21.914  33.757  17.190  1.00  0.00    -0.577 OA
ENDBRANCH  24  26
ENDBRANCH  22  24
ENDBRANCH   7  22
TORSDOF 6
ENDMDL
MODEL 2
REMARK VINA RESULT: -7.772601459      1.747      2.689
REMARK  6 active torsions:
REMARK  status: ('A' for Active; 'I' for Inactive)
REMARK    1  A    between atoms: N3_4  and  N4_6 
REMARK    2  A    between atoms: C2_8  and  C3_9 
REMARK    3  A    between atoms: C4_10  and  O1_11 
REMARK    4  A    between atoms: C6_17  and  N6_18 
REMARK    5  A    between atoms: N6_18  and  N7_20 
REMARK    6  A    between atoms: N7_20  and  S1_22 
ROOT
HETATM    1  C3  UNL     1      14.664  36.151  14.904  1.00  0.00     0.100 C 
HETATM    2  C4  UNL     1      15.227  36.889  15.918  1.00  0.00     0.160 C 
HETATM    3  N5  UNL     1      16.552  37.112  16.133  1.00  0.00    -0.300 N 
ATOM      4  H5  UNL     1      16.763  37.869  16.785  1.00  0.00     0.171 HD
HETATM    5  C5  UNL     1      17.633  36.486  15.616  1.00  0.00     0.293 C 
HETATM    6  O2  UNL     1      18.775  36.834  16.058  1.00  0.00    -0.264 OA
HETATM    7  C6  UNL     1      17.690  35.510  14.665  1.00  0.00     0.193 C 
HETATM    8  N8  UNL     1      16.610  35.016  13.994  1.00  0.00    -0.303 N 
ATOM      9  H8  UNL     1      16.833  34.230  13.383  1.00  0.00     0.171 HD
HETATM   10  C7  UNL     1      15.330  35.353  13.978  1.00  0.00     0.263 C 
HETATM   11  O6  UNL     1      14.598  34.932  13.050  1.00  0.00    -0.267 OA
ENDROOT
BRANCH   1  12
HETATM   12  C2  UNL     1      13.230  36.237  14.819  1.00  0.00     0.128 C 
HETATM   13  N4  UNL     1      12.653  36.955  13.924  1.00  0.00    -0.309 N 
ATOM     14  H4  UNL     1      13.239  37.468  13.266  1.00  0.00     0.186 HD
BRANCH  13  15
HETATM   15  N3  UNL     1      11.272  37.071  13.803  1.00  0.00    -0.276 N 
HETATM   16  C1  UNL     1      10.633  36.292  13.014  1.00  0.00     0.215 C 
HETATM   17  N1  UNL     1       9.219  36.457  12.929  1.00  0.00    -0.065 NA
HETATM   18  N2  UNL     1      11.346  35.316  12.270  1.00  0.00    -0.065 NA
ATOM     19  H3  UNL     1      10.770  37.776  14.343  1.00  0.00     0.189 HD
ENDBRANCH  13  15
ENDBRANCH   1  12
BRANCH   2  20
HETATM   20  O1  UNL     1      14.342  37.472  16.827  1.00  0.00    -0.345 OA
ATOM     21  H1  UNL     1      14.408  37.180  17.728  1.00  0.00     0.219 HD
ENDBRANCH   2  20
BRANCH   7  22
HETATM   22  N6  UNL     1      18.788  34.975  14.324  1.00  0.00    -0.269 N 
ATOM     23  H6  UNL     1      19.380  35.518  13.697  1.00  0.00     0.189 HD
BRANCH  22  24
HETATM   24  N7  UNL     1      19.267  33.751  14.705  1.00  0.00    -0.206 N 
ATOM     25  H7  UNL     1      19.098  32.936  14.115  1.00  0.00     0.202 HD
BRANCH  24  26
HETATM   26  S1  UNL     1      20.154  33.575  16.166  1.00  0.00     0.223 S 
HETATM   27  O3  UNL     1      20.894  34.823  16.544  1.00  0.00    -0.577 OA
HETATM   28  O4  UNL     1      21.106  32.406  16.106  1.00  0.00    -0.577 OA
HETATM   29  O5  UNL     1      19.015  33.284  17.394  1.00  0.00    -0.577 OA
ENDBRANCH  24  26
ENDBRANCH  22  24
ENDBRANCH   7  22
TORSDOF 6
ENDMDL
MODEL 3
REMARK VINA RESULT: -7.717101772      3.592      7.986
REMARK  6 active torsions:
REMARK  status: ('A' for Active; 'I' for Inactive)
REMARK    1  A    between atoms: N3_4  and  N4_6 
REMARK    2  A    between atoms: C2_8  and  C3_9 
REMARK    3  A    between atoms: C4_10  and  O1_11 
REMARK    4  A    between atoms: C6_17  and  N6_18 
REMARK    5  A    between atoms: N6_18  and  N7_20 
REMARK    6  A    between atoms: N7_20  and  S1_22 
ROOT
HETATM    1  C3  UNL     1      17.040  35.661  15.773  1.00  0.00     0.100 C 
HETATM    2  C4  UNL     1      16.977  34.631  14.864  1.00  0.00     0.160 C 
HETATM    3  N5  UNL     1      16.133  34.522  13.803  1.00  0.00    -0.300 N 
ATOM      4  H5  UNL     1      16.392  33.814  13.116  1.00  0.00     0.171 HD
HETATM    5  C5  UNL     1      15.003  35.207  13.519  1.00  0.00     0.293 C 
HETATM    6  O2  UNL     1      14.342  34.842  12.494  1.00  0.00    -0.264 OA
HETATM    7  C6  UNL     1      14.446  36.262  14.181  1.00  0.00     0.193 C 
HETATM    8  N8  UNL     1      14.997  36.876  15.267  1.00  0.00    -0.303 N 
ATOM      9  H8  UNL     1      14.397  37.589  15.681  1.00  0.00     0.171 HD
HETATM   10  C7  UNL     1      16.157  36.730  15.890  1.00  0.00     0.263 C 
HETATM   11  O6  UNL     1      16.542  37.624  16.682  1.00  0.00    -0.267 OA
ENDROOT
BRANCH   1  12
HETATM   12  C2  UNL     1      18.152  35.597  16.683  1.00  0.00     0.128 C 
HETATM   13  N4  UNL     1      19.343  35.901  16.310  1.00  0.00    -0.309 N 
ATOM     14  H4  UNL     1      19.485  36.194  15.343  1.00  0.00     0.186 HD
BRANCH  13  15
HETATM   15  N3  UNL     1      20.450  35.853  17.152  1.00  0.00    -0.276 N 
HETATM   16  C1  UNL     1      21.310  34.913  17.023  1.00  0.00     0.215 C 
HETATM   17  N1  UNL     1      22.423  34.913  17.913  1.00  0.00    -0.065 NA
HETATM   18  N2  UNL     1      21.121  33.930  16.017  1.00  0.00    -0.065 NA
ATOM     19  H3  UNL     1      20.575  36.565  17.871  1.00  0.00     0.189 HD
ENDBRANCH  13  15
ENDBRANCH   1  12
BRANCH   2  20
HETATM   20  O1  UNL     1      17.880  33.582  15.053  1.00  0.00    -0.345 OA
ATOM     21  H1  UNL     1      17.979  32.974  14.329  1.00  0.00     0.219 HD
ENDBRANCH   2  20
BRANCH   7  22
HETATM   22  N6  UNL     1      13.339  36.764  13.821  1.00  0.00    -0.269 N 
ATOM     23  H6  UNL     1      13.363  37.734  13.508  1.00  0.00     0.189 HD
BRANCH  22  24
HETATM   24  N7  UNL     1      12.115  36.150  13.806  1.00  0.00    -0.206 N 
ATOM     25  H7  UNL     1      12.059  35.134  13.859  1.00  0.00     0.202 HD
BRANCH  24  26
HETATM   26  S1  UNL     1      10.673  37.079  13.699  1.00  0.00     0.223 S 
HETATM   27  O3  UNL     1      10.829  38.284  12.820  1.00  0.00    -0.577 OA
HETATM   28  O4  UNL     1      10.171  37.491  15.060  1.00  0.00    -0.577 OA
HETATM   29  O5  UNL     1       9.505  36.082  12.969  1.00  0.00    -0.577 OA
ENDBRANCH  24  26
ENDBRANCH  22  24
ENDBRANCH   7  22
TORSDOF 6
ENDMDL
MODEL 4
REMARK VINA RESULT: -7.709912919      1.445      1.708
REMARK  6 active torsions:
REMARK  status: ('A' for Active; 'I' for Inactive)
REMARK    1  A    between atoms: N3_4  and  N4_6 
REMARK    2  A    between atoms: C2_8  and  C3_9 
REMARK    3  A    between atoms: C4_10  and  O1_11 
REMARK    4  A    between atoms: C6_17  and  N6_18 
REMARK    5  A    between atoms: N6_18  and  N7_20 
REMARK    6  A    between atoms: N7_20  and  S1_22 
ROOT
HETATM    1  C3  UNL     1      14.992  35.864  14.923  1.00  0.00     0.100 C 
HETATM    2  C4  UNL     1      15.635  35.034  14.035  1.00  0.00     0.160 C 
HETATM    3  N5  UNL     1      16.620  34.137  14.314  1.00  0.00    -0.300 N 
ATOM      4  H5  UNL     1      16.803  33.454  13.579  1.00  0.00     0.171 HD
HETATM    5  C5  UNL     1      17.393  34.013  15.416  1.00  0.00     0.293 C 
HETATM    6  O2  UNL     1      18.314  33.134  15.385  1.00  0.00    -0.264 OA
HETATM    7  C6  UNL     1      17.336  34.703  16.591  1.00  0.00     0.193 C 
HETATM    8  N8  UNL     1      16.399  35.647  16.892  1.00  0.00    -0.303 N 
ATOM      9  H8  UNL     1      16.566  36.119  17.781  1.00  0.00     0.171 HD
HETATM   10  C7  UNL     1      15.316  36.073  16.260  1.00  0.00     0.263 C 
HETATM   11  O6  UNL     1      14.462  36.741  16.892  1.00  0.00    -0.267 OA
ENDROOT
BRANCH   1  12
HETATM   12  C2  UNL     1      13.867  36.576  14.378  1.00  0.00     0.128 C 
HETATM   13  N4  UNL     1      12.774  35.973  14.077  1.00  0.00    -0.309 N 
ATOM     14  H4  UNL     1      12.718  34.967  14.235  1.00  0.00     0.186 HD
BRANCH  13  15
HETATM   15  N3  UNL     1      11.660  36.617  13.546  1.00  0.00    -0.276 N 
HETATM   16  C1  UNL     1      10.749  35.937  12.959  1.00  0.00     0.215 C 
HETATM   17  N1  UNL     1       9.631  36.649  12.434  1.00  0.00    -0.065 NA
HETATM   18  N2  UNL     1      10.888  34.528  12.858  1.00  0.00    -0.065 NA
ATOM     19  H3  UNL     1      11.571  37.630  13.625  1.00  0.00     0.189 HD
ENDBRANCH  13  15
ENDBRANCH   1  12
BRANCH   2  20
HETATM   20  O1  UNL     1      15.233  35.122  12.700  1.00  0.00    -0.345 OA
ATOM     21  H1  UNL     1      15.924  35.096  12.049  1.00  0.00     0.219 HD
ENDBRANCH   2  20
BRANCH   7  22
HETATM   22  N6  UNL     1      18.179  34.510  17.519  1.00  0.00    -0.269 N 
ATOM     23  H6  UNL     1      18.423  33.539  17.712  1.00  0.00     0.189 HD
BRANCH  22  24
HETATM   24  N7  UNL     1      18.797  35.457  18.289  1.00  0.00    -0.206 N 
ATOM     25  H7  UNL     1      18.642  35.469  19.297  1.00  0.00     0.202 HD
BRANCH  24  26
HETATM   26  S1  UNL     1      19.833  36.626  17.574  1.00  0.00     0.223 S 
HETATM   27  O3  UNL     1      19.157  37.401  16.482  1.00  0.00    -0.577 OA
HETATM   28  O4  UNL     1      21.106  36.004  17.057  1.00  0.00    -0.577 OA
HETATM   29  O5  UNL     1      20.230  37.738  18.796  1.00  0.00    -0.577 OA
ENDBRANCH  24  26
ENDBRANCH  22  24
ENDBRANCH   7  22
TORSDOF 6
ENDMDL
MODEL 5
REMARK VINA RESULT: -7.649613720      3.163      7.533
REMARK  6 active torsions:
REMARK  status: ('A' for Active; 'I' for Inactive)
REMARK    1  A    between atoms: N3_4  and  N4_6 
REMARK    2  A    between atoms: C2_8  and  C3_9 
REMARK    3  A    between atoms: C4_10  and  O1_11 
REMARK    4  A    between atoms: C6_17  and  N6_18 
REMARK    5  A    between atoms: N6_18  and  N7_20 
REMARK    6  A    between atoms: N7_20  and  S1_22 
ROOT
HETATM    1  C3  UNL     1      18.708  33.611  15.810  1.00  0.00     0.100 C 
HETATM    2  C4  UNL     1      17.852  33.114  16.764  1.00  0.00     0.160 C 
HETATM    3  N5  UNL     1      16.492  33.110  16.726  1.00  0.00    -0.300 N 
ATOM      4  H5  UNL     1      16.043  32.493  17.402  1.00  0.00     0.171 HD
HETATM    5  C5  UNL     1      15.644  33.798  15.928  1.00  0.00     0.293 C 
HETATM    6  O2  UNL     1      14.399  33.679  16.162  1.00  0.00    -0.264 OA
HETATM    7  C6  UNL     1      15.927  34.623  14.880  1.00  0.00     0.193 C 
HETATM    8  N8  UNL     1      17.179  34.860  14.393  1.00  0.00    -0.303 N 
ATOM      9  H8  UNL     1      17.206  35.572  13.663  1.00  0.00     0.171 HD
HETATM   10  C7  UNL     1      18.367  34.350  14.681  1.00  0.00     0.263 C 
HETATM   11  O6  UNL     1      19.318  34.526  13.882  1.00  0.00    -0.267 OA
ENDROOT
BRANCH   1  12
HETATM   12  C2  UNL     1      20.098  33.316  16.033  1.00  0.00     0.128 C 
HETATM   13  N4  UNL     1      20.976  34.249  16.126  1.00  0.00    -0.309 N 
ATOM     14  H4  UNL     1      20.663  35.215  16.039  1.00  0.00     0.186 HD
BRANCH  13  15
HETATM   15  N3  UNL     1      22.330  34.013  16.341  1.00  0.00    -0.276 N 
HETATM   16  C1  UNL     1      22.892  34.444  17.407  1.00  0.00     0.215 C 
HETATM   17  N1  UNL     1      24.282  34.175  17.574  1.00  0.00    -0.065 NA
HETATM   18  N2  UNL     1      22.121  35.159  18.360  1.00  0.00    -0.065 NA
ATOM     19  H3  UNL     1      22.874  33.498  15.649  1.00  0.00     0.189 HD
ENDBRANCH  13  15
ENDBRANCH   1  12
BRANCH   2  20
HETATM   20  O1  UNL     1      18.445  32.552  17.897  1.00  0.00    -0.345 OA
ATOM     21  H1  UNL     1      17.861  32.327  18.612  1.00  0.00     0.219 HD
ENDBRANCH   2  20
BRANCH   7  22
HETATM   22  N6  UNL     1      15.015  35.250  14.261  1.00  0.00    -0.269 N 
ATOM     23  H6  UNL     1      14.884  35.005  13.280  1.00  0.00     0.189 HD
BRANCH  22  24
HETATM   24  N7  UNL     1      14.186  36.217  14.762  1.00  0.00    -0.206 N 
ATOM     25  H7  UNL     1      13.234  36.300  14.407  1.00  0.00     0.202 HD
BRANCH  24  26
HETATM   26  S1  UNL     1      14.736  37.292  15.984  1.00  0.00     0.223 S 
HETATM   27  O3  UNL     1      16.178  37.668  15.813  1.00  0.00    -0.577 OA
HETATM   28  O4  UNL     1      14.507  36.732  17.366  1.00  0.00    -0.577 OA
HETATM   29  O5  UNL     1      13.830  38.721  15.821  1.00  0.00    -0.577 OA
ENDBRANCH  24  26
ENDBRANCH  22  24
ENDBRANCH   7  22
TORSDOF 6
ENDMDL
