MODEL 1
REMARK VINA RESULT: -6.955545705      0.000      0.000
REMARK  15 active torsions:
REMARK  status: ('A' for Active; 'I' for Inactive)
REMARK    1  A    between atoms: C2_2  and  C3_3 
REMARK    2  A    between atoms: C3_3  and  N1_4 
REMARK    3  A    between atoms: N1_4  and  C4_5 
REMARK    4  A    between atoms: N1_4  and  C14_30 
REMARK    5  A    between atoms: C4_5  and  C5_6 
REMARK    6  A    between atoms: C6_7  and  C7_8 
REMARK    7  A    between atoms: C7_8  and  N2_9 
REMARK    8  A    between atoms: N2_9  and  C8_10 
REMARK    9  A    between atoms: C8_10  and  N3_12 
REMARK   10  A    between atoms: N3_12  and  C10_14 
REMARK   11  A    between atoms: C11_19  and  N6_20 
REMARK   12  A    between atoms: N6_20  and  C12_22 
REMARK   13  A    between atoms: C12_22  and  C13_23 
REMARK   14  A    between atoms: C13_23  and  N7_24 
REMARK   15  A    between atoms: C14_30  and  C15_31 
ROOT
HETATM    1  C10 UNL     1      15.663 -11.552  15.654  1.00  0.00     0.714 A 
HETATM    2  N4  UNL     1      15.937 -10.325  16.103  1.00  0.00    -0.117 N 
ATOM      3  H4  UNL     1      15.956 -10.046  17.084  1.00  0.00     0.206 HD
HETATM    4  N5  UNL     1      16.178  -9.533  15.086  1.00  0.00    -0.117 N 
ATOM      5  H5  UNL     1      16.414  -8.543  15.148  1.00  0.00     0.206 HD
HETATM    6  C11 UNL     1      16.055 -10.276  13.891  1.00  0.00     0.711 A 
HETATM    7  N8  UNL     1      15.739 -11.507  14.353  1.00  0.00    -0.019 N 
ATOM      8  H8  UNL     1      15.577 -12.314  13.749  1.00  0.00     0.203 HD
ENDROOT
BRANCH   1   9
HETATM    9  N3  UNL     1      15.377 -12.595  16.405  1.00  0.00    -0.167 N 
ATOM     10  H3  UNL     1      16.023 -13.367  16.569  1.00  0.00     0.186 HD
BRANCH   9  11
HETATM   11  C8  UNL     1      14.025 -12.528  16.979  1.00  0.00     0.166 C 
HETATM   12  C9  UNL     1      13.912 -13.049  18.352  1.00  0.00     0.107 C 
BRANCH  11  13
HETATM   13  N2  UNL     1      13.171 -12.097  16.292  1.00  0.00    -0.396 NA
BRANCH  13  14
HETATM   14  C7  UNL     1      12.207 -11.616  15.507  1.00  0.00     0.248 C 
BRANCH  14  15
HETATM   15  C6  UNL     1      11.433 -12.436  14.597  1.00  0.00    -0.045 C 
HETATM   16  C5  UNL     1      10.740 -13.077  13.860  1.00  0.00    -0.069 C 
BRANCH  16  17
HETATM   17  C4  UNL     1       9.819 -13.814  12.993  1.00  0.00     0.366 C 
BRANCH  17  18
HETATM   18  N1  UNL     1       8.502 -13.349  13.155  1.00  0.00     0.103 N 
BRANCH  18  19
HETATM   19  C3  UNL     1       7.587 -13.632  12.054  1.00  0.00     0.300 C 
BRANCH  19  20
HETATM   20  C2  UNL     1       8.208 -12.977  10.868  1.00  0.00    -0.007 C 
HETATM   21  C1  UNL     1       7.608 -12.977   9.727  1.00  0.00     0.008 C 
ENDBRANCH  19  20
ENDBRANCH  18  19
BRANCH  18  22
HETATM   22  C14 UNL     1       7.905 -13.742  14.425  1.00  0.00     0.284 C 
BRANCH  22  23
HETATM   23  C15 UNL     1       7.785 -12.534  15.305  1.00  0.00     0.115 C 
HETATM   24 BR1  UNL     1       8.532 -12.940  17.050  1.00  0.00    -0.095 Br
ENDBRANCH  22  23
ENDBRANCH  18  22
ENDBRANCH  17  18
ENDBRANCH  16  17
ENDBRANCH  14  15
ENDBRANCH  13  14
ENDBRANCH  11  13
ENDBRANCH   9  11
ENDBRANCH   1   9
BRANCH   6  25
HETATM   25  N6  UNL     1      16.210  -9.828  12.731  1.00  0.00    -0.202 N 
ATOM     26  H6  UNL     1      15.389  -9.388  12.316  1.00  0.00     0.183 HD
BRANCH  25  27
HETATM   27  C12 UNL     1      17.363  -9.848  11.923  1.00  0.00     0.106 C 
BRANCH  27  28
HETATM   28  C13 UNL     1      17.504 -11.157  11.204  1.00  0.00     0.274 C 
BRANCH  28  29
HETATM   29  N7  UNL     1      18.321 -12.066  11.970  1.00  0.00    -0.075 N 
ATOM     30  H73 UNL     1      18.109 -12.020  12.966  1.00  0.00     0.274 HD
ATOM     31  H72 UNL     1      18.063 -13.040  11.806  1.00  0.00     0.274 HD
ATOM     32  H71 UNL     1      19.310 -11.899  11.784  1.00  0.00     0.274 HD
ENDBRANCH  28  29
ENDBRANCH  27  28
ENDBRANCH  25  27
ENDBRANCH   6  25
TORSDOF 15
ENDMDL
MODEL 2
REMARK VINA RESULT: -6.872493363      1.417      1.765
REMARK  15 active torsions:
REMARK  status: ('A' for Active; 'I' for Inactive)
REMARK    1  A    between atoms: C2_2  and  C3_3 
REMARK    2  A    between atoms: C3_3  and  N1_4 
REMARK    3  A    between atoms: N1_4  and  C4_5 
REMARK    4  A    between atoms: N1_4  and  C14_30 
REMARK    5  A    between atoms: C4_5  and  C5_6 
REMARK    6  A    between atoms: C6_7  and  C7_8 
REMARK    7  A    between atoms: C7_8  and  N2_9 
REMARK    8  A    between atoms: N2_9  and  C8_10 
REMARK    9  A    between atoms: C8_10  and  N3_12 
REMARK   10  A    between atoms: N3_12  and  C10_14 
REMARK   11  A    between atoms: C11_19  and  N6_20 
REMARK   12  A    between atoms: N6_20  and  C12_22 
REMARK   13  A    between atoms: C12_22  and  C13_23 
REMARK   14  A    between atoms: C13_23  and  N7_24 
REMARK   15  A    between atoms: C14_30  and  C15_31 
ROOT
HETATM    1  C10 UNL     1      15.974 -12.139  15.485  1.00  0.00     0.714 A 
HETATM    2  N4  UNL     1      15.695 -11.055  16.214  1.00  0.00    -0.117 N 
ATOM      3  H4  UNL     1      15.333 -11.064  17.168  1.00  0.00     0.206 HD
HETATM    4  N5  UNL     1      15.958  -9.979  15.513  1.00  0.00    -0.117 N 
ATOM      5  H5  UNL     1      15.835  -9.018  15.832  1.00  0.00     0.206 HD
HETATM    6  C11 UNL     1      16.438 -10.368  14.242  1.00  0.00     0.711 A 
HETATM    7  N8  UNL     1      16.411 -11.718  14.330  1.00  0.00    -0.019 N 
ATOM      8  H8  UNL     1      16.701 -12.340  13.575  1.00  0.00     0.203 HD
ENDROOT
BRANCH   1   9
HETATM    9  N3  UNL     1      15.828 -13.386  15.881  1.00  0.00    -0.167 N 
ATOM     10  H3  UNL     1      16.353 -13.798  16.652  1.00  0.00     0.186 HD
BRANCH   9  11
HETATM   11  C8  UNL     1      14.829 -14.120  15.091  1.00  0.00     0.166 C 
HETATM   12  C9  UNL     1      15.180 -15.522  14.803  1.00  0.00     0.107 C 
BRANCH  11  13
HETATM   13  N2  UNL     1      13.873 -13.525  14.748  1.00  0.00    -0.396 NA
BRANCH  13  14
HETATM   14  C7  UNL     1      12.788 -12.847  14.371  1.00  0.00     0.248 C 
BRANCH  14  15
HETATM   15  C6  UNL     1      11.707 -13.431  13.604  1.00  0.00    -0.045 C 
HETATM   16  C5  UNL     1      10.774 -13.864  12.990  1.00  0.00    -0.069 C 
BRANCH  16  17
HETATM   17  C4  UNL     1       9.582 -14.327  12.278  1.00  0.00     0.366 C 
BRANCH  17  18
HETATM   18  N1  UNL     1       8.442 -13.620  12.703  1.00  0.00     0.103 N 
BRANCH  18  19
HETATM   19  C3  UNL     1       7.329 -13.582  11.761  1.00  0.00     0.300 C 
BRANCH  19  20
HETATM   20  C2  UNL     1       7.812 -12.726  10.639  1.00  0.00    -0.007 C 
HETATM   21  C1  UNL     1       7.570 -13.049   9.415  1.00  0.00     0.008 C 
ENDBRANCH  19  20
ENDBRANCH  18  19
BRANCH  18  22
HETATM   22  C14 UNL     1       7.975 -14.023  14.024  1.00  0.00     0.284 C 
BRANCH  22  23
HETATM   23  C15 UNL     1       7.915 -12.815  14.911  1.00  0.00     0.115 C 
HETATM   24 BR1  UNL     1       8.720 -13.244  16.625  1.00  0.00    -0.095 Br
ENDBRANCH  22  23
ENDBRANCH  18  22
ENDBRANCH  17  18
ENDBRANCH  16  17
ENDBRANCH  14  15
ENDBRANCH  13  14
ENDBRANCH  11  13
ENDBRANCH   9  11
ENDBRANCH   1   9
BRANCH   6  25
HETATM   25  N6  UNL     1      16.775  -9.593  13.318  1.00  0.00    -0.202 N 
ATOM     26  H6  UNL     1      16.818  -8.605  13.567  1.00  0.00     0.183 HD
BRANCH  25  27
HETATM   27  C12 UNL     1      17.102  -9.899  11.983  1.00  0.00     0.106 C 
BRANCH  27  28
HETATM   28  C13 UNL     1      17.101  -8.670  11.123  1.00  0.00     0.274 C 
BRANCH  28  29
HETATM   29  N7  UNL     1      15.801  -8.046  11.141  1.00  0.00    -0.075 N 
ATOM     30  H73 UNL     1      15.065  -8.693  10.859  1.00  0.00     0.274 HD
ATOM     31  H72 UNL     1      15.482  -7.858  12.092  1.00  0.00     0.274 HD
ATOM     32  H71 UNL     1      15.804  -7.202  10.568  1.00  0.00     0.274 HD
ENDBRANCH  28  29
ENDBRANCH  27  28
ENDBRANCH  25  27
ENDBRANCH   6  25
TORSDOF 15
ENDMDL
MODEL 3
REMARK VINA RESULT: -6.867844696      1.075      1.391
REMARK  15 active torsions:
REMARK  status: ('A' for Active; 'I' for Inactive)
REMARK    1  A    between atoms: C2_2  and  C3_3 
REMARK    2  A    between atoms: C3_3  and  N1_4 
REMARK    3  A    between atoms: N1_4  and  C4_5 
REMARK    4  A    between atoms: N1_4  and  C14_30 
REMARK    5  A    between atoms: C4_5  and  C5_6 
REMARK    6  A    between atoms: C6_7  and  C7_8 
REMARK    7  A    between atoms: C7_8  and  N2_9 
REMARK    8  A    between atoms: N2_9  and  C8_10 
REMARK    9  A    between atoms: C8_10  and  N3_12 
REMARK   10  A    between atoms: N3_12  and  C10_14 
REMARK   11  A    between atoms: C11_19  and  N6_20 
REMARK   12  A    between atoms: N6_20  and  C12_22 
REMARK   13  A    between atoms: C12_22  and  C13_23 
REMARK   14  A    between atoms: C13_23  and  N7_24 
REMARK   15  A    between atoms: C14_30  and  C15_31 
ROOT
HETATM    1  C10 UNL     1      15.328 -11.857  16.464  1.00  0.00     0.714 A 
HETATM    2  N4  UNL     1      15.766 -12.921  15.787  1.00  0.00    -0.117 N 
ATOM      3  H4  UNL     1      15.616 -13.894  16.056  1.00  0.00     0.206 HD
HETATM    4  N5  UNL     1      16.421 -12.521  14.724  1.00  0.00    -0.117 N 
ATOM      5  H5  UNL     1      16.860 -13.130  14.033  1.00  0.00     0.206 HD
HETATM    6  C11 UNL     1      16.420 -11.108  14.693  1.00  0.00     0.711 A 
HETATM    7  N8  UNL     1      15.718 -10.800  15.807  1.00  0.00    -0.019 N 
ATOM      8  H8  UNL     1      15.516  -9.845  16.102  1.00  0.00     0.203 HD
ENDROOT
BRANCH   1   9
HETATM    9  N3  UNL     1      14.632 -11.894  17.581  1.00  0.00    -0.167 N 
ATOM     10  H3  UNL     1      15.024 -11.681  18.498  1.00  0.00     0.186 HD
BRANCH   9  11
HETATM   11  C8  UNL     1      13.229 -12.276  17.365  1.00  0.00     0.166 C 
HETATM   12  C9  UNL     1      12.607 -13.001  18.487  1.00  0.00     0.107 C 
BRANCH  11  13
HETATM   13  N2  UNL     1      12.750 -11.995  16.326  1.00  0.00    -0.396 NA
BRANCH  13  14
HETATM   14  C7  UNL     1      12.201 -11.670  15.155  1.00  0.00     0.248 C 
BRANCH  14  15
HETATM   15  C6  UNL     1      11.715 -12.646  14.201  1.00  0.00    -0.045 C 
HETATM   16  C5  UNL     1      11.253 -13.449  13.442  1.00  0.00    -0.069 C 
BRANCH  16  17
HETATM   17  C4  UNL     1      10.610 -14.428  12.565  1.00  0.00     0.366 C 
BRANCH  17  18
HETATM   18  N1  UNL     1       9.231 -14.175  12.460  1.00  0.00     0.103 N 
BRANCH  18  19
HETATM   19  C3  UNL     1       8.566 -14.743  11.292  1.00  0.00     0.300 C 
BRANCH  19  20
HETATM   20  C2  UNL     1       8.516 -13.626  10.306  1.00  0.00    -0.007 C 
HETATM   21  C1  UNL     1       7.574 -12.747  10.354  1.00  0.00     0.008 C 
ENDBRANCH  19  20
ENDBRANCH  18  19
BRANCH  18  22
HETATM   22  C14 UNL     1       8.493 -14.503  13.673  1.00  0.00     0.284 C 
BRANCH  22  23
HETATM   23  C15 UNL     1       7.632 -13.335  14.054  1.00  0.00     0.115 C 
HETATM   24 BR1  UNL     1       8.211 -12.652  15.776  1.00  0.00    -0.095 Br
ENDBRANCH  22  23
ENDBRANCH  18  22
ENDBRANCH  17  18
ENDBRANCH  16  17
ENDBRANCH  14  15
ENDBRANCH  13  14
ENDBRANCH  11  13
ENDBRANCH   9  11
ENDBRANCH   1   9
BRANCH   6  25
HETATM   25  N6  UNL     1      16.964 -10.395  13.818  1.00  0.00    -0.202 N 
ATOM     26  H6  UNL     1      17.964 -10.239  13.938  1.00  0.00     0.183 HD
BRANCH  25  27
HETATM   27  C12 UNL     1      16.382  -9.781  12.692  1.00  0.00     0.106 C 
BRANCH  27  28
HETATM   28  C13 UNL     1      17.300  -9.829  11.507  1.00  0.00     0.274 C 
BRANCH  28  29
HETATM   29  N7  UNL     1      18.079 -11.044  11.523  1.00  0.00    -0.075 N 
ATOM     30  H73 UNL     1      19.076 -10.854  11.618  1.00  0.00     0.274 HD
ATOM     31  H72 UNL     1      17.942 -11.572  12.385  1.00  0.00     0.274 HD
ATOM     32  H71 UNL     1      17.876 -11.607  10.697  1.00  0.00     0.274 HD
ENDBRANCH  28  29
ENDBRANCH  27  28
ENDBRANCH  25  27
ENDBRANCH   6  25
TORSDOF 15
ENDMDL
MODEL 4
REMARK VINA RESULT: -6.782111842      1.858      2.446
REMARK  15 active torsions:
REMARK  status: ('A' for Active; 'I' for Inactive)
REMARK    1  A    between atoms: C2_2  and  C3_3 
REMARK    2  A    between atoms: C3_3  and  N1_4 
REMARK    3  A    between atoms: N1_4  and  C4_5 
REMARK    4  A    between atoms: N1_4  and  C14_30 
REMARK    5  A    between atoms: C4_5  and  C5_6 
REMARK    6  A    between atoms: C6_7  and  C7_8 
REMARK    7  A    between atoms: C7_8  and  N2_9 
REMARK    8  A    between atoms: N2_9  and  C8_10 
REMARK    9  A    between atoms: C8_10  and  N3_12 
REMARK   10  A    between atoms: N3_12  and  C10_14 
REMARK   11  A    between atoms: C11_19  and  N6_20 
REMARK   12  A    between atoms: N6_20  and  C12_22 
REMARK   13  A    between atoms: C12_22  and  C13_23 
REMARK   14  A    between atoms: C13_23  and  N7_24 
REMARK   15  A    between atoms: C14_30  and  C15_31 
ROOT
HETATM    1  C10 UNL     1      15.678 -11.877  15.552  1.00  0.00     0.714 A 
HETATM    2  N4  UNL     1      15.736 -10.592  15.910  1.00  0.00    -0.117 N 
ATOM      3  H4  UNL     1      15.321 -10.196  16.754  1.00  0.00     0.206 HD
HETATM    4  N5  UNL     1      16.408  -9.918  15.008  1.00  0.00    -0.117 N 
ATOM      5  H5  UNL     1      16.602  -8.917  15.037  1.00  0.00     0.206 HD
HETATM    6  C11 UNL     1      16.821 -10.806  13.990  1.00  0.00     0.711 A 
HETATM    7  N8  UNL     1      16.322 -11.987  14.422  1.00  0.00    -0.019 N 
ATOM      8  H8  UNL     1      16.437 -12.867  13.921  1.00  0.00     0.203 HD
ENDROOT
BRANCH   1   9
HETATM    9  N3  UNL     1      15.080 -12.834  16.229  1.00  0.00    -0.167 N 
ATOM     10  H3  UNL     1      15.469 -13.769  16.349  1.00  0.00     0.186 HD
BRANCH   9  11
HETATM   11  C8  UNL     1      13.790 -12.411  16.793  1.00  0.00     0.166 C 
HETATM   12  C9  UNL     1      13.655 -12.618  18.246  1.00  0.00     0.107 C 
BRANCH  11  13
HETATM   13  N2  UNL     1      12.992 -11.978  16.043  1.00  0.00    -0.396 NA
BRANCH  13  14
HETATM   14  C7  UNL     1      12.092 -11.496  15.185  1.00  0.00     0.248 C 
BRANCH  14  15
HETATM   15  C6  UNL     1      10.909 -12.225  14.773  1.00  0.00    -0.045 C 
HETATM   16  C5  UNL     1       9.905 -12.769  14.412  1.00  0.00    -0.069 C 
BRANCH  16  17
HETATM   17  C4  UNL     1       8.643 -13.350  13.953  1.00  0.00     0.366 C 
BRANCH  17  18
HETATM   18  N1  UNL     1       8.817 -14.014  12.726  1.00  0.00     0.103 N 
BRANCH  18  19
HETATM   19  C3  UNL     1       9.944 -14.937  12.655  1.00  0.00     0.300 C 
BRANCH  19  20
HETATM   20  C2  UNL     1      10.588 -14.648  11.341  1.00  0.00    -0.007 C 
HETATM   21  C1  UNL     1      10.812 -15.595  10.496  1.00  0.00     0.008 C 
ENDBRANCH  19  20
ENDBRANCH  18  19
BRANCH  18  22
HETATM   22  C14 UNL     1       7.602 -14.660  12.245  1.00  0.00     0.284 C 
BRANCH  22  23
HETATM   23  C15 UNL     1       6.712 -13.627  11.621  1.00  0.00     0.115 C 
HETATM   24 BR1  UNL     1       7.609 -12.862  10.078  1.00  0.00    -0.095 Br
ENDBRANCH  22  23
ENDBRANCH  18  22
ENDBRANCH  17  18
ENDBRANCH  16  17
ENDBRANCH  14  15
ENDBRANCH  13  14
ENDBRANCH  11  13
ENDBRANCH   9  11
ENDBRANCH   1   9
BRANCH   6  25
HETATM   25  N6  UNL     1      17.477 -10.495  12.969  1.00  0.00    -0.202 N 
ATOM     26  H6  UNL     1      18.490 -10.482  13.083  1.00  0.00     0.183 HD
BRANCH  25  27
HETATM   27  C12 UNL     1      17.005 -10.160  11.685  1.00  0.00     0.106 C 
BRANCH  27  28
HETATM   28  C13 UNL     1      17.142  -8.690  11.417  1.00  0.00     0.274 C 
BRANCH  28  29
HETATM   29  N7  UNL     1      15.859  -8.116  11.093  1.00  0.00    -0.075 N 
ATOM     30  H73 UNL     1      15.098  -8.779  11.240  1.00  0.00     0.274 HD
ATOM     31  H72 UNL     1      15.577  -7.408  11.771  1.00  0.00     0.274 HD
ATOM     32  H71 UNL     1      15.865  -7.750  10.141  1.00  0.00     0.274 HD
ENDBRANCH  28  29
ENDBRANCH  27  28
ENDBRANCH  25  27
ENDBRANCH   6  25
TORSDOF 15
ENDMDL
MODEL 5
REMARK VINA RESULT: -6.776507657      1.802      2.216
REMARK  15 active torsions:
REMARK  status: ('A' for Active; 'I' for Inactive)
REMARK    1  A    between atoms: C2_2  and  C3_3 
REMARK    2  A    between atoms: C3_3  and  N1_4 
REMARK    3  A    between atoms: N1_4  and  C4_5 
REMARK    4  A    between atoms: N1_4  and  C14_30 
REMARK    5  A    between atoms: C4_5  and  C5_6 
REMARK    6  A    between atoms: C6_7  and  C7_8 
REMARK    7  A    between atoms: C7_8  and  N2_9 
REMARK    8  A    between atoms: N2_9  and  C8_10 
REMARK    9  A    between atoms: C8_10  and  N3_12 
REMARK   10  A    between atoms: N3_12  and  C10_14 
REMARK   11  A    between atoms: C11_19  and  N6_20 
REMARK   12  A    between atoms: N6_20  and  C12_22 
REMARK   13  A    between atoms: C12_22  and  C13_23 
REMARK   14  A    between atoms: C13_23  and  N7_24 
REMARK   15  A    between atoms: C14_30  and  C15_31 
ROOT
HETATM    1  C10 UNL     1      15.288 -11.787  15.719  1.00  0.00     0.714 A 
HETATM    2  N4  UNL     1      15.732 -10.643  16.245  1.00  0.00    -0.117 N 
ATOM      3  H4  UNL     1      15.786 -10.434  17.242  1.00  0.00     0.206 HD
HETATM    4  N5  UNL     1      16.089  -9.830  15.281  1.00  0.00    -0.117 N 
ATOM      5  H5  UNL     1      16.465  -8.890  15.405  1.00  0.00     0.206 HD
HETATM    6  C11 UNL     1      15.867 -10.470  14.040  1.00  0.00     0.711 A 
HETATM    7  N8  UNL     1      15.376 -11.670  14.423  1.00  0.00    -0.019 N 
ATOM      8  H8  UNL     1      15.103 -12.404  13.770  1.00  0.00     0.203 HD
ENDROOT
BRANCH   1   9
HETATM    9  N3  UNL     1      14.851 -12.825  16.402  1.00  0.00    -0.167 N 
ATOM     10  H3  UNL     1      15.407 -13.661  16.576  1.00  0.00     0.186 HD
BRANCH   9  11
HETATM   11  C8  UNL     1      13.474 -12.647  16.887  1.00  0.00     0.166 C 
HETATM   12  C9  UNL     1      13.216 -13.204  18.226  1.00  0.00     0.107 C 
BRANCH  11  13
HETATM   13  N2  UNL     1      12.716 -12.111  16.163  1.00  0.00    -0.396 NA
BRANCH  13  14
HETATM   14  C7  UNL     1      11.854 -11.512  15.340  1.00  0.00     0.248 C 
BRANCH  14  15
HETATM   15  C6  UNL     1      10.708 -12.181  14.758  1.00  0.00    -0.045 C 
HETATM   16  C5  UNL     1       9.730 -12.730  14.337  1.00  0.00    -0.069 C 
BRANCH  16  17
HETATM   17  C4  UNL     1       8.503 -13.403  13.909  1.00  0.00     0.366 C 
BRANCH  17  18
HETATM   18  N1  UNL     1       8.682 -14.015  12.655  1.00  0.00     0.103 N 
BRANCH  18  19
HETATM   19  C3  UNL     1       9.750 -15.007  12.578  1.00  0.00     0.300 C 
BRANCH  19  20
HETATM   20  C2  UNL     1      10.501 -14.657  11.338  1.00  0.00    -0.007 C 
HETATM   21  C1  UNL     1      10.779 -15.559  10.460  1.00  0.00     0.008 C 
ENDBRANCH  19  20
ENDBRANCH  18  19
BRANCH  18  22
HETATM   22  C14 UNL     1       7.448 -14.555  12.098  1.00  0.00     0.284 C 
BRANCH  22  23
HETATM   23  C15 UNL     1       6.700 -13.453  11.408  1.00  0.00     0.115 C 
HETATM   24 BR1  UNL     1       7.619 -12.993   9.761  1.00  0.00    -0.095 Br
ENDBRANCH  22  23
ENDBRANCH  18  22
ENDBRANCH  17  18
ENDBRANCH  16  17
ENDBRANCH  14  15
ENDBRANCH  13  14
ENDBRANCH  11  13
ENDBRANCH   9  11
ENDBRANCH   1   9
BRANCH   6  25
HETATM   25  N6  UNL     1      16.091  -9.974  12.911  1.00  0.00    -0.202 N 
ATOM     26  H6  UNL     1      15.287  -9.550  12.450  1.00  0.00     0.183 HD
BRANCH  25  27
HETATM   27  C12 UNL     1      17.301  -9.923  12.193  1.00  0.00     0.106 C 
BRANCH  27  28
HETATM   28  C13 UNL     1      17.520 -11.177  11.400  1.00  0.00     0.274 C 
BRANCH  28  29
HETATM   29  N7  UNL     1      18.361 -12.094  12.130  1.00  0.00    -0.075 N 
ATOM     30  H73 UNL     1      18.075 -12.177  13.105  1.00  0.00     0.274 HD
ATOM     31  H72 UNL     1      18.207 -13.061  11.844  1.00  0.00     0.274 HD
ATOM     32  H71 UNL     1      19.341 -11.824  12.043  1.00  0.00     0.274 HD
ENDBRANCH  28  29
ENDBRANCH  27  28
ENDBRANCH  25  27
ENDBRANCH   6  25
TORSDOF 15
ENDMDL
