MODEL 1
REMARK VINA RESULT: -8.890144922      0.000      0.000
REMARK  13 active torsions:
REMARK  status: ('A' for Active; 'I' for Inactive)
REMARK    1  A    between atoms: O1_2  and  C2_3 
REMARK    2  A    between atoms: C5_6  and  C6_7 
REMARK    3  A    between atoms: C7_12  and  C8_13 
REMARK    4  A    between atoms: C8_13  and  C9_14 
REMARK    5  A    between atoms: N3_16  and  C11_17 
REMARK    6  A    between atoms: C11_17  and  C12_18 
REMARK    7  A    between atoms: C12_18  and  C13_19 
REMARK       I    between atoms: C13_19  and  N4_21 
REMARK    8  A    between atoms: N4_21  and  C14_23 
REMARK    9  A    between atoms: C14_23  and  C15_24 
REMARK   10  A    between atoms: C16_27  and  N6_28 
REMARK   11  A    between atoms: N9_37  and  O4_38 
REMARK   12  A    between atoms: C18_42  and  O5_43 
REMARK   13  A    between atoms: C19_45  and  O6_46 
ROOT
HETATM    1  C9  UNL     1       2.825  -7.900  14.449  1.00  0.00     0.068 A 
HETATM    2  C10 UNL     1       2.095  -7.158  13.559  1.00  0.00     0.129 A 
HETATM    3  N3  UNL     1       2.075  -5.863  13.997  1.00  0.00    -0.281 N 
HETATM    4  C17 UNL     1       2.771  -5.817  15.118  1.00  0.00     0.356 A 
HETATM    5  O3  UNL     1       3.048  -4.865  15.902  1.00  0.00    -0.244 OA
HETATM    6  N9  UNL     1       3.238  -7.066  15.407  1.00  0.00    -0.175 N 
ENDROOT
BRANCH   1   7
HETATM    7  C8  UNL     1       3.117  -9.334  14.401  1.00  0.00     0.139 C 
BRANCH   7   8
HETATM    8  C7  UNL     1       4.016  -9.745  13.295  1.00  0.00     0.103 A 
HETATM    9  N2  UNL     1       5.320  -9.477  13.102  1.00  0.00    -0.287 N 
HETATM   10  N1  UNL     1       5.716 -10.062  11.964  1.00  0.00    -0.283 N 
ATOM     11  H2  UNL     1       5.910  -8.920  13.720  1.00  0.00     0.188 HD
HETATM   12  C6  UNL     1       4.673 -10.708  11.419  1.00  0.00     0.134 A 
ATOM     13  H1  UNL     1       6.658 -10.023  11.573  1.00  0.00     0.188 HD
HETATM   14  N10 UNL     1       3.647 -10.503  12.244  1.00  0.00    -0.329 N 
ATOM     15  H10 UNL     1       2.706 -10.871  12.098  1.00  0.00     0.168 HD
BRANCH  12  16
HETATM   16  C5  UNL     1       4.751 -11.462  10.168  1.00  0.00     0.045 A 
HETATM   17  C4  UNL     1       4.604 -12.829  10.164  1.00  0.00     0.021 A 
HETATM   18  C3  UNL     1       4.675 -13.545   8.975  1.00  0.00     0.041 A 
HETATM   19  C2  UNL     1       4.891 -12.929   7.767  1.00  0.00     0.104 A 
HETATM   20  C19 UNL     1       5.040 -11.542   7.778  1.00  0.00     0.135 A 
HETATM   21  C18 UNL     1       4.970 -10.833   8.956  1.00  0.00     0.116 A 
BRANCH  19  22
HETATM   22  O1  UNL     1       4.969 -13.579   6.573  1.00  0.00    -0.353 OA
HETATM   23  C1  UNL     1       3.914 -14.258   5.964  1.00  0.00     0.210 C 
ENDBRANCH  19  22
BRANCH  20  24
HETATM   24  O6  UNL     1       5.259 -10.922   6.560  1.00  0.00    -0.351 OA
HETATM   25  C20 UNL     1       4.130 -10.472   5.837  1.00  0.00     0.210 C 
ENDBRANCH  20  24
BRANCH  21  26
HETATM   26  O5  UNL     1       5.121  -9.433   8.963  1.00  0.00    -0.357 OA
ATOM     27  H5  UNL     1       5.070  -8.980   8.130  1.00  0.00     0.217 HD
ENDBRANCH  21  26
ENDBRANCH  12  16
ENDBRANCH   7   8
ENDBRANCH   1   7
BRANCH   6  28
HETATM   28  O4  UNL     1       4.007  -7.430  16.496  1.00  0.00    -0.279 OA
ATOM     29  H4  UNL     1       4.871  -7.086  16.692  1.00  0.00     0.245 HD
ENDBRANCH   6  28
BRANCH   3  30
HETATM   30  C11 UNL     1       1.426  -4.778  13.359  1.00  0.00     0.106 C 
BRANCH  30  31
HETATM   31  C12 UNL     1       0.166  -4.730  13.017  1.00  0.00     0.092 C 
BRANCH  31  32
HETATM   32  C13 UNL     1      -0.324  -5.390  11.791  1.00  0.00     0.246 C 
HETATM   33  O2  UNL     1      -0.789  -6.546  11.888  1.00  0.00    -0.268 OA
HETATM   34  N4  UNL     1      -0.292  -4.775  10.518  1.00  0.00    -0.330 N 
ATOM     35  H4  UNL     1      -1.155  -4.358  10.168  1.00  0.00     0.168 HD
BRANCH  34  36
HETATM   36  C14 UNL     1       0.756  -4.705   9.772  1.00  0.00     0.141 C 
BRANCH  36  37
HETATM   37  C15 UNL     1       1.809  -5.704   9.898  1.00  0.00     0.151 A 
HETATM   38  N5  UNL     1       3.124  -5.468  10.150  1.00  0.00    -0.173 N 
HETATM   39  C16 UNL     1       3.718  -6.675  10.181  1.00  0.00     0.692 A 
ATOM     40  H5  UNL     1       3.569  -4.561  10.287  1.00  0.00     0.186 HD
HETATM   41  N7  UNL     1       2.784  -7.642   9.950  1.00  0.00    -0.131 N 
HETATM   42  N8  UNL     1       1.633  -7.021   9.782  1.00  0.00    -0.270 N 
ATOM     43  H7  UNL     1       2.944  -8.649   9.915  1.00  0.00     0.205 HD
ATOM     44  H8  UNL     1       0.742  -7.479   9.593  1.00  0.00     0.189 HD
BRANCH  39  45
HETATM   45  N6  UNL     1       4.960  -6.910  10.390  1.00  0.00    -0.233 N 
ATOM     46  H62 UNL     1       5.633  -7.130   9.656  1.00  0.00     0.174 HD
ATOM     47  H61 UNL     1       5.435  -6.910  11.294  1.00  0.00     0.174 HD
ENDBRANCH  39  45
ENDBRANCH  36  37
ENDBRANCH  34  36
ENDBRANCH  31  32
ENDBRANCH  30  31
ENDBRANCH   3  30
TORSDOF 13
ENDMDL
MODEL 2
REMARK VINA RESULT: -8.786043845      1.081      1.241
REMARK  13 active torsions:
REMARK  status: ('A' for Active; 'I' for Inactive)
REMARK    1  A    between atoms: O1_2  and  C2_3 
REMARK    2  A    between atoms: C5_6  and  C6_7 
REMARK    3  A    between atoms: C7_12  and  C8_13 
REMARK    4  A    between atoms: C8_13  and  C9_14 
REMARK    5  A    between atoms: N3_16  and  C11_17 
REMARK    6  A    between atoms: C11_17  and  C12_18 
REMARK    7  A    between atoms: C12_18  and  C13_19 
REMARK       I    between atoms: C13_19  and  N4_21 
REMARK    8  A    between atoms: N4_21  and  C14_23 
REMARK    9  A    between atoms: C14_23  and  C15_24 
REMARK   10  A    between atoms: C16_27  and  N6_28 
REMARK   11  A    between atoms: N9_37  and  O4_38 
REMARK   12  A    between atoms: C18_42  and  O5_43 
REMARK   13  A    between atoms: C19_45  and  O6_46 
ROOT
HETATM    1  C9  UNL     1       2.852  -7.714  14.618  1.00  0.00     0.068 A 
HETATM    2  C10 UNL     1       2.249  -6.870  13.725  1.00  0.00     0.129 A 
HETATM    3  N3  UNL     1       2.301  -5.601  14.232  1.00  0.00    -0.281 N 
HETATM    4  C17 UNL     1       2.917  -5.670  15.397  1.00  0.00     0.356 A 
HETATM    5  O3  UNL     1       3.214  -4.784  16.250  1.00  0.00    -0.244 OA
HETATM    6  N9  UNL     1       3.262  -6.966  15.646  1.00  0.00    -0.175 N 
ENDROOT
BRANCH   1   7
HETATM    7  C8  UNL     1       3.031  -9.163  14.509  1.00  0.00     0.139 C 
BRANCH   7   8
HETATM    8  C7  UNL     1       3.959  -9.592  13.434  1.00  0.00     0.103 A 
HETATM    9  N2  UNL     1       5.290  -9.423  13.328  1.00  0.00    -0.287 N 
HETATM   10  N1  UNL     1       5.705  -9.983  12.184  1.00  0.00    -0.283 N 
ATOM     11  H2  UNL     1       5.884  -8.947  14.007  1.00  0.00     0.188 HD
HETATM   12  C6  UNL     1       4.649 -10.514  11.549  1.00  0.00     0.134 A 
ATOM     13  H1  UNL     1       6.669 -10.002  11.850  1.00  0.00     0.188 HD
HETATM   14  N10 UNL     1       3.595 -10.265  12.326  1.00  0.00    -0.329 N 
ATOM     15  H10 UNL     1       2.638 -10.547  12.109  1.00  0.00     0.168 HD
BRANCH  12  16
HETATM   16  C5  UNL     1       4.741 -11.210  10.266  1.00  0.00     0.045 A 
HETATM   17  C4  UNL     1       4.641 -12.580  10.204  1.00  0.00     0.021 A 
HETATM   18  C3  UNL     1       4.726 -13.241   8.985  1.00  0.00     0.041 A 
HETATM   19  C2  UNL     1       4.910 -12.566   7.803  1.00  0.00     0.104 A 
HETATM   20  C19 UNL     1       5.011 -11.176   7.872  1.00  0.00     0.135 A 
HETATM   21  C18 UNL     1       4.927 -10.522   9.081  1.00  0.00     0.116 A 
BRANCH  19  22
HETATM   22  O1  UNL     1       4.999 -13.160   6.581  1.00  0.00    -0.353 OA
HETATM   23  C1  UNL     1       3.998 -13.934   5.995  1.00  0.00     0.210 C 
ENDBRANCH  19  22
BRANCH  20  24
HETATM   24  O6  UNL     1       5.197 -10.497   6.682  1.00  0.00    -0.351 OA
HETATM   25  C20 UNL     1       4.053 -10.209   5.900  1.00  0.00     0.210 C 
ENDBRANCH  20  24
BRANCH  21  26
HETATM   26  O5  UNL     1       5.030  -9.119   9.148  1.00  0.00    -0.357 OA
ATOM     27  H5  UNL     1       4.229  -8.614   9.069  1.00  0.00     0.217 HD
ENDBRANCH  21  26
ENDBRANCH  12  16
ENDBRANCH   7   8
ENDBRANCH   1   7
BRANCH   6  28
HETATM   28  O4  UNL     1       3.921  -7.448  16.762  1.00  0.00    -0.279 OA
ATOM     29  H4  UNL     1       4.599  -6.981  17.238  1.00  0.00     0.245 HD
ENDBRANCH   6  28
BRANCH   3  30
HETATM   30  C11 UNL     1       1.788  -4.435  13.615  1.00  0.00     0.106 C 
BRANCH  30  31
HETATM   31  C12 UNL     1       0.536  -4.212  13.313  1.00  0.00     0.092 C 
BRANCH  31  32
HETATM   32  C13 UNL     1       0.079  -4.166  11.910  1.00  0.00     0.246 C 
HETATM   33  O2  UNL     1      -1.141  -4.014  11.691  1.00  0.00    -0.268 OA
HETATM   34  N4  UNL     1       0.959  -4.283  10.809  1.00  0.00    -0.330 N 
ATOM     35  H4  UNL     1       1.244  -3.427  10.333  1.00  0.00     0.168 HD
BRANCH  34  36
HETATM   36  C14 UNL     1       1.423  -5.401  10.367  1.00  0.00     0.141 C 
BRANCH  36  37
HETATM   37  C15 UNL     1       2.660  -5.425   9.599  1.00  0.00     0.151 A 
HETATM   38  N5  UNL     1       2.889  -4.805   8.411  1.00  0.00    -0.173 N 
HETATM   39  C16 UNL     1       4.159  -5.099   8.077  1.00  0.00     0.692 A 
ATOM     40  H5  UNL     1       2.231  -4.233   7.880  1.00  0.00     0.186 HD
HETATM   41  N7  UNL     1       4.707  -5.890   9.044  1.00  0.00    -0.131 N 
HETATM   42  N8  UNL     1       3.771  -6.070   9.956  1.00  0.00    -0.270 N 
ATOM     43  H7  UNL     1       5.654  -6.268   9.060  1.00  0.00     0.205 HD
ATOM     44  H8  UNL     1       3.882  -6.620  10.807  1.00  0.00     0.189 HD
BRANCH  39  45
HETATM   45  N6  UNL     1       4.782  -4.713   7.025  1.00  0.00    -0.233 N 
ATOM     46  H62 UNL     1       5.057  -5.333   6.263  1.00  0.00     0.174 HD
ATOM     47  H61 UNL     1       5.080  -3.761   6.810  1.00  0.00     0.174 HD
ENDBRANCH  39  45
ENDBRANCH  36  37
ENDBRANCH  34  36
ENDBRANCH  31  32
ENDBRANCH  30  31
ENDBRANCH   3  30
TORSDOF 13
ENDMDL
MODEL 3
REMARK VINA RESULT: -8.771181590      2.424      7.324
REMARK  13 active torsions:
REMARK  status: ('A' for Active; 'I' for Inactive)
REMARK    1  A    between atoms: O1_2  and  C2_3 
REMARK    2  A    between atoms: C5_6  and  C6_7 
REMARK    3  A    between atoms: C7_12  and  C8_13 
REMARK    4  A    between atoms: C8_13  and  C9_14 
REMARK    5  A    between atoms: N3_16  and  C11_17 
REMARK    6  A    between atoms: C11_17  and  C12_18 
REMARK    7  A    between atoms: C12_18  and  C13_19 
REMARK       I    between atoms: C13_19  and  N4_21 
REMARK    8  A    between atoms: N4_21  and  C14_23 
REMARK    9  A    between atoms: C14_23  and  C15_24 
REMARK   10  A    between atoms: C16_27  and  N6_28 
REMARK   11  A    between atoms: N9_37  and  O4_38 
REMARK   12  A    between atoms: C18_42  and  O5_43 
REMARK   13  A    between atoms: C19_45  and  O6_46 
ROOT
HETATM    1  C9  UNL     1       4.793 -10.450  11.119  1.00  0.00     0.068 A 
HETATM    2  C10 UNL     1       3.497 -10.030  10.979  1.00  0.00     0.129 A 
HETATM    3  N3  UNL     1       3.171 -10.080   9.652  1.00  0.00    -0.281 N 
HETATM    4  C17 UNL     1       4.234 -10.517   9.004  1.00  0.00     0.356 A 
HETATM    5  O3  UNL     1       4.444 -10.736   7.776  1.00  0.00    -0.244 OA
HETATM    6  N9  UNL     1       5.240 -10.748   9.896  1.00  0.00    -0.175 N 
ENDROOT
BRANCH   1   7
HETATM    7  C8  UNL     1       5.577 -10.561  12.350  1.00  0.00     0.139 C 
BRANCH   7   8
HETATM    8  C7  UNL     1       5.036  -9.792  13.498  1.00  0.00     0.103 A 
HETATM    9  N2  UNL     1       4.795 -10.189  14.762  1.00  0.00    -0.287 N 
HETATM   10  N1  UNL     1       4.310  -9.149  15.454  1.00  0.00    -0.283 N 
ATOM     11  H2  UNL     1       4.956 -11.125  15.131  1.00  0.00     0.188 HD
HETATM   12  C6  UNL     1       4.235  -8.082  14.643  1.00  0.00     0.134 A 
ATOM     13  H1  UNL     1       4.040  -9.166  16.437  1.00  0.00     0.188 HD
HETATM   14  N10 UNL     1       4.681  -8.493  13.457  1.00  0.00    -0.329 N 
ATOM     15  H10 UNL     1       4.745  -7.903  12.627  1.00  0.00     0.168 HD
BRANCH  12  16
HETATM   16  C5  UNL     1       3.750  -6.771  15.074  1.00  0.00     0.045 A 
HETATM   17  C4  UNL     1       3.926  -6.351  16.372  1.00  0.00     0.021 A 
HETATM   18  C3  UNL     1       3.468  -5.104  16.780  1.00  0.00     0.041 A 
HETATM   19  C2  UNL     1       2.829  -4.247  15.919  1.00  0.00     0.104 A 
HETATM   20  C19 UNL     1       2.653  -4.678  14.604  1.00  0.00     0.135 A 
HETATM   21  C18 UNL     1       3.106  -5.914  14.200  1.00  0.00     0.116 A 
BRANCH  19  22
HETATM   22  O1  UNL     1       2.361  -3.015  16.264  1.00  0.00    -0.353 OA
HETATM   23  C1  UNL     1       3.128  -2.001  16.836  1.00  0.00     0.210 C 
ENDBRANCH  19  22
BRANCH  20  24
HETATM   24  O6  UNL     1       2.008  -3.814  13.738  1.00  0.00    -0.351 OA
HETATM   25  C20 UNL     1       0.649  -4.070  13.439  1.00  0.00     0.210 C 
ENDBRANCH  20  24
BRANCH  21  26
HETATM   26  O5  UNL     1       2.927  -6.346  12.872  1.00  0.00    -0.357 OA
ATOM     27  H5  UNL     1       3.332  -7.167  12.617  1.00  0.00     0.217 HD
ENDBRANCH  21  26
ENDBRANCH  12  16
ENDBRANCH   7   8
ENDBRANCH   1   7
BRANCH   6  28
HETATM   28  O4  UNL     1       6.511 -11.211   9.609  1.00  0.00    -0.279 OA
ATOM     29  H4  UNL     1       6.735 -12.120   9.447  1.00  0.00     0.245 HD
ENDBRANCH   6  28
BRANCH   3  30
HETATM   30  C11 UNL     1       1.922  -9.728   9.088  1.00  0.00     0.106 C 
BRANCH  30  31
HETATM   31  C12 UNL     1       1.493  -8.513   8.865  1.00  0.00     0.092 C 
BRANCH  31  32
HETATM   32  C13 UNL     1       1.509  -7.486   9.926  1.00  0.00     0.246 C 
HETATM   33  O2  UNL     1       0.736  -7.628  10.896  1.00  0.00    -0.268 OA
HETATM   34  N4  UNL     1       2.358  -6.355   9.892  1.00  0.00    -0.330 N 
ATOM     35  H4  UNL     1       3.212  -6.383  10.450  1.00  0.00     0.168 HD
BRANCH  34  36
HETATM   36  C14 UNL     1       2.124  -5.293   9.201  1.00  0.00     0.141 C 
BRANCH  36  37
HETATM   37  C15 UNL     1       2.869  -5.040   7.976  1.00  0.00     0.151 A 
HETATM   38  N5  UNL     1       2.359  -4.608   6.792  1.00  0.00    -0.173 N 
HETATM   39  C16 UNL     1       3.405  -4.514   5.950  1.00  0.00     0.692 A 
ATOM     40  H5  UNL     1       1.383  -4.397   6.584  1.00  0.00     0.186 HD
HETATM   41  N7  UNL     1       4.543  -4.884   6.603  1.00  0.00    -0.131 N 
HETATM   42  N8  UNL     1       4.185  -5.198   7.833  1.00  0.00    -0.270 N 
ATOM     43  H7  UNL     1       5.487  -4.913   6.216  1.00  0.00     0.205 HD
ATOM     44  H8  UNL     1       4.821  -5.514   8.565  1.00  0.00     0.189 HD
BRANCH  39  45
HETATM   45  N6  UNL     1       3.367  -4.141   4.724  1.00  0.00    -0.233 N 
ATOM     46  H62 UNL     1       3.752  -3.261   4.382  1.00  0.00     0.174 HD
ATOM     47  H61 UNL     1       2.961  -4.658   3.943  1.00  0.00     0.174 HD
ENDBRANCH  39  45
ENDBRANCH  36  37
ENDBRANCH  34  36
ENDBRANCH  31  32
ENDBRANCH  30  31
ENDBRANCH   3  30
TORSDOF 13
ENDMDL
MODEL 4
REMARK VINA RESULT: -8.747215274      3.984      8.219
REMARK  13 active torsions:
REMARK  status: ('A' for Active; 'I' for Inactive)
REMARK    1  A    between atoms: O1_2  and  C2_3 
REMARK    2  A    between atoms: C5_6  and  C6_7 
REMARK    3  A    between atoms: C7_12  and  C8_13 
REMARK    4  A    between atoms: C8_13  and  C9_14 
REMARK    5  A    between atoms: N3_16  and  C11_17 
REMARK    6  A    between atoms: C11_17  and  C12_18 
REMARK    7  A    between atoms: C12_18  and  C13_19 
REMARK       I    between atoms: C13_19  and  N4_21 
REMARK    8  A    between atoms: N4_21  and  C14_23 
REMARK    9  A    between atoms: C14_23  and  C15_24 
REMARK   10  A    between atoms: C16_27  and  N6_28 
REMARK   11  A    between atoms: N9_37  and  O4_38 
REMARK   12  A    between atoms: C18_42  and  O5_43 
REMARK   13  A    between atoms: C19_45  and  O6_46 
ROOT
HETATM    1  C9  UNL     1       3.838  -6.187   9.994  1.00  0.00     0.068 A 
HETATM    2  C10 UNL     1       2.723  -5.848  10.712  1.00  0.00     0.129 A 
HETATM    3  N3  UNL     1       2.324  -6.944  11.426  1.00  0.00    -0.281 N 
HETATM    4  C17 UNL     1       3.169  -7.920  11.151  1.00  0.00     0.356 A 
HETATM    5  O3  UNL     1       3.236  -9.118  11.551  1.00  0.00    -0.244 OA
HETATM    6  N9  UNL     1       4.107  -7.466  10.271  1.00  0.00    -0.175 N 
ENDROOT
BRANCH   1   7
HETATM    7  C8  UNL     1       4.614  -5.344   9.083  1.00  0.00     0.139 C 
BRANCH   7   8
HETATM    8  C7  UNL     1       3.899  -4.951   7.844  1.00  0.00     0.103 A 
HETATM    9  N2  UNL     1       4.089  -5.355   6.575  1.00  0.00    -0.287 N 
HETATM   10  N1  UNL     1       3.202  -4.733   5.787  1.00  0.00    -0.283 N 
ATOM     11  H2  UNL     1       4.793  -6.025   6.264  1.00  0.00     0.188 HD
HETATM   12  C6  UNL     1       2.438  -3.928   6.541  1.00  0.00     0.134 A 
ATOM     13  H1  UNL     1       3.120  -4.852   4.777  1.00  0.00     0.188 HD
HETATM   14  N10 UNL     1       2.878  -4.073   7.790  1.00  0.00    -0.329 N 
ATOM     15  H10 UNL     1       2.492  -3.584   8.599  1.00  0.00     0.168 HD
BRANCH  12  16
HETATM   16  C5  UNL     1       1.360  -3.098   6.003  1.00  0.00     0.045 A 
HETATM   17  C4  UNL     1       1.504  -1.733   5.916  1.00  0.00     0.021 A 
HETATM   18  C3  UNL     1       0.482  -0.945   5.402  1.00  0.00     0.041 A 
HETATM   19  C2  UNL     1      -0.702  -1.485   4.963  1.00  0.00     0.104 A 
HETATM   20  C19 UNL     1      -0.842  -2.870   5.053  1.00  0.00     0.135 A 
HETATM   21  C18 UNL     1       0.171  -3.650   5.563  1.00  0.00     0.116 A 
BRANCH  19  22
HETATM   22  O1  UNL     1      -1.736  -0.763   4.450  1.00  0.00    -0.353 OA
HETATM   23  C1  UNL     1      -2.493   0.165   5.164  1.00  0.00     0.210 C 
ENDBRANCH  19  22
BRANCH  20  24
HETATM   24  O6  UNL     1      -2.035  -3.414   4.611  1.00  0.00    -0.351 OA
HETATM   25  C20 UNL     1      -3.040  -3.672   5.573  1.00  0.00     0.210 C 
ENDBRANCH  20  24
BRANCH  21  26
HETATM   26  O5  UNL     1       0.026  -5.048   5.653  1.00  0.00    -0.357 OA
ATOM     27  H5  UNL     1      -0.291  -5.509   4.886  1.00  0.00     0.217 HD
ENDBRANCH  21  26
ENDBRANCH  12  16
ENDBRANCH   7   8
ENDBRANCH   1   7
BRANCH   6  28
HETATM   28  O4  UNL     1       5.162  -8.186   9.740  1.00  0.00    -0.279 OA
ATOM     29  H4  UNL     1       5.102  -9.075   9.411  1.00  0.00     0.245 HD
ENDBRANCH   6  28
BRANCH   3  30
HETATM   30  C11 UNL     1       1.210  -7.010  12.297  1.00  0.00     0.106 C 
BRANCH  30  31
HETATM   31  C12 UNL     1       1.225  -6.785  13.584  1.00  0.00     0.092 C 
BRANCH  31  32
HETATM   32  C13 UNL     1       2.202  -5.859  14.191  1.00  0.00     0.246 C 
HETATM   33  O2  UNL     1       2.044  -4.633  14.011  1.00  0.00    -0.268 OA
HETATM   34  N4  UNL     1       3.301  -6.297  14.965  1.00  0.00    -0.330 N 
ATOM     35  H4  UNL     1       3.218  -6.252  15.981  1.00  0.00     0.168 HD
BRANCH  34  36
HETATM   36  C14 UNL     1       4.402  -6.750  14.471  1.00  0.00     0.141 C 
BRANCH  36  37
HETATM   37  C15 UNL     1       4.712  -8.170  14.560  1.00  0.00     0.151 A 
HETATM   38  N5  UNL     1       4.580  -8.962  15.657  1.00  0.00    -0.173 N 
HETATM   39  C16 UNL     1       4.979 -10.190  15.278  1.00  0.00     0.692 A 
ATOM     40  H5  UNL     1       4.245  -8.682  16.579  1.00  0.00     0.186 HD
HETATM   41  N7  UNL     1       5.354 -10.157  13.967  1.00  0.00    -0.131 N 
HETATM   42  N8  UNL     1       5.180  -8.915  13.558  1.00  0.00    -0.270 N 
ATOM     43  H7  UNL     1       5.701 -10.939  13.412  1.00  0.00     0.205 HD
ATOM     44  H8  UNL     1       5.375  -8.577  12.616  1.00  0.00     0.189 HD
BRANCH  39  45
HETATM   45  N6  UNL     1       5.014 -11.242  16.010  1.00  0.00    -0.233 N 
ATOM     46  H62 UNL     1       5.844 -11.818  16.146  1.00  0.00     0.174 HD
ATOM     47  H61 UNL     1       4.238 -11.637  16.543  1.00  0.00     0.174 HD
ENDBRANCH  39  45
ENDBRANCH  36  37
ENDBRANCH  34  36
ENDBRANCH  31  32
ENDBRANCH  30  31
ENDBRANCH   3  30
TORSDOF 13
ENDMDL
MODEL 5
REMARK VINA RESULT: -8.746811987      1.296      1.520
REMARK  13 active torsions:
REMARK  status: ('A' for Active; 'I' for Inactive)
REMARK    1  A    between atoms: O1_2  and  C2_3 
REMARK    2  A    between atoms: C5_6  and  C6_7 
REMARK    3  A    between atoms: C7_12  and  C8_13 
REMARK    4  A    between atoms: C8_13  and  C9_14 
REMARK    5  A    between atoms: N3_16  and  C11_17 
REMARK    6  A    between atoms: C11_17  and  C12_18 
REMARK    7  A    between atoms: C12_18  and  C13_19 
REMARK       I    between atoms: C13_19  and  N4_21 
REMARK    8  A    between atoms: N4_21  and  C14_23 
REMARK    9  A    between atoms: C14_23  and  C15_24 
REMARK   10  A    between atoms: C16_27  and  N6_28 
REMARK   11  A    between atoms: N9_37  and  O4_38 
REMARK   12  A    between atoms: C18_42  and  O5_43 
REMARK   13  A    between atoms: C19_45  and  O6_46 
ROOT
HETATM    1  C9  UNL     1       2.618  -7.397  13.622  1.00  0.00     0.068 A 
HETATM    2  C10 UNL     1       1.274  -7.184  13.482  1.00  0.00     0.129 A 
HETATM    3  N3  UNL     1       1.091  -5.938  12.949  1.00  0.00    -0.281 N 
HETATM    4  C17 UNL     1       2.287  -5.409  12.770  1.00  0.00     0.356 A 
HETATM    5  O3  UNL     1       2.656  -4.290  12.311  1.00  0.00    -0.244 OA
HETATM    6  N9  UNL     1       3.236  -6.298  13.180  1.00  0.00    -0.175 N 
ENDROOT
BRANCH   1   7
HETATM    7  C8  UNL     1       3.292  -8.584  14.153  1.00  0.00     0.139 C 
BRANCH   7   8
HETATM    8  C7  UNL     1       4.156  -9.292  13.177  1.00  0.00     0.103 A 
HETATM    9  N2  UNL     1       5.498  -9.355  13.103  1.00  0.00    -0.287 N 
HETATM   10  N1  UNL     1       5.836 -10.118  12.055  1.00  0.00    -0.283 N 
ATOM     11  H2  UNL     1       6.151  -8.898  13.740  1.00  0.00     0.188 HD
HETATM   12  C6  UNL     1       4.718 -10.549  11.450  1.00  0.00     0.134 A 
ATOM     13  H1  UNL     1       6.789 -10.336  11.763  1.00  0.00     0.188 HD
HETATM   14  N10 UNL     1       3.705 -10.035  12.147  1.00  0.00    -0.329 N 
ATOM     15  H10 UNL     1       2.720 -10.184  11.930  1.00  0.00     0.168 HD
BRANCH  12  16
HETATM   16  C5  UNL     1       4.718 -11.410  10.267  1.00  0.00     0.045 A 
HETATM   17  C4  UNL     1       4.461 -12.756  10.383  1.00  0.00     0.021 A 
HETATM   18  C3  UNL     1       4.458 -13.575   9.259  1.00  0.00     0.041 A 
HETATM   19  C2  UNL     1       4.705 -13.083   8.001  1.00  0.00     0.104 A 
HETATM   20  C19 UNL     1       4.965 -11.717   7.891  1.00  0.00     0.135 A 
HETATM   21  C18 UNL     1       4.968 -10.907   9.004  1.00  0.00     0.116 A 
BRANCH  19  22
HETATM   22  O1  UNL     1       4.714 -13.836   6.867  1.00  0.00    -0.353 OA
HETATM   23  C1  UNL     1       3.590 -14.434   6.297  1.00  0.00     0.210 C 
ENDBRANCH  19  22
BRANCH  20  24
HETATM   24  O6  UNL     1       5.214 -11.222   6.623  1.00  0.00    -0.351 OA
HETATM   25  C20 UNL     1       4.129 -10.665   5.906  1.00  0.00     0.210 C 
ENDBRANCH  20  24
BRANCH  21  26
HETATM   26  O5  UNL     1       5.230  -9.528   8.889  1.00  0.00    -0.357 OA
ATOM     27  H5  UNL     1       6.119  -9.263   8.684  1.00  0.00     0.217 HD
ENDBRANCH  21  26
ENDBRANCH  12  16
ENDBRANCH   7   8
ENDBRANCH   1   7
BRANCH   6  28
HETATM   28  O4  UNL     1       4.607  -6.117  13.155  1.00  0.00    -0.279 OA
ATOM     29  H4  UNL     1       5.127  -6.014  12.367  1.00  0.00     0.245 HD
ENDBRANCH   6  28
BRANCH   3  30
HETATM   30  C11 UNL     1      -0.154  -5.335  12.648  1.00  0.00     0.106 C 
BRANCH  30  31
HETATM   31  C12 UNL     1      -0.629  -5.108  11.451  1.00  0.00     0.092 C 
BRANCH  31  32
HETATM   32  C13 UNL     1      -1.079  -6.213  10.580  1.00  0.00     0.246 C 
HETATM   33  O2  UNL     1      -2.117  -6.830  10.899  1.00  0.00    -0.268 OA
HETATM   34  N4  UNL     1      -0.390  -6.599   9.407  1.00  0.00    -0.330 N 
ATOM     35  H4  UNL     1      -0.751  -6.268   8.512  1.00  0.00     0.168 HD
BRANCH  34  36
HETATM   36  C14 UNL     1       0.663  -7.340   9.395  1.00  0.00     0.141 C 
BRANCH  36  37
HETATM   37  C15 UNL     1       1.984  -6.734   9.495  1.00  0.00     0.151 A 
HETATM   38  N5  UNL     1       3.134  -7.353   9.872  1.00  0.00    -0.173 N 
HETATM   39  C16 UNL     1       4.096  -6.414   9.818  1.00  0.00     0.692 A 
ATOM     40  H5  UNL     1       3.245  -8.331  10.140  1.00  0.00     0.186 HD
HETATM   41  N7  UNL     1       3.548  -5.231   9.416  1.00  0.00    -0.131 N 
HETATM   42  N8  UNL     1       2.263  -5.458   9.227  1.00  0.00    -0.270 N 
ATOM     43  H7  UNL     1       4.037  -4.345   9.287  1.00  0.00     0.205 HD
ATOM     44  H8  UNL     1       1.584  -4.761   8.921  1.00  0.00     0.189 HD
BRANCH  39  45
HETATM   45  N6  UNL     1       5.337  -6.574  10.096  1.00  0.00    -0.233 N 
ATOM     46  H62 UNL     1       5.796  -6.179  10.916  1.00  0.00     0.174 HD
ATOM     47  H61 UNL     1       6.018  -7.105   9.552  1.00  0.00     0.174 HD
ENDBRANCH  39  45
ENDBRANCH  36  37
ENDBRANCH  34  36
ENDBRANCH  31  32
ENDBRANCH  30  31
ENDBRANCH   3  30
TORSDOF 13
ENDMDL
