MODEL 1
REMARK VINA RESULT: -10.834950845      0.000      0.000
REMARK  11 active torsions:
REMARK  status: ('A' for Active; 'I' for Inactive)
REMARK    1  A    between atoms: C1_2  and  C2_3 
REMARK       I    between atoms: C1_2  and  N10_49 
REMARK    2  A    between atoms: C5_6  and  S1_7 
REMARK    3  A    between atoms: S1_7  and  N1_10 
REMARK    4  A    between atoms: N1_10  and  C6_12 
REMARK    5  A    between atoms: C8_14  and  C9_15 
REMARK    6  A    between atoms: C9_15  and  N2_16 
REMARK    7  A    between atoms: C12_19  and  C13_20 
REMARK    8  A    between atoms: C13_20  and  N3_21 
REMARK    9  A    between atoms: C20_33  and  N5_34 
REMARK   10  A    between atoms: N5_34  and  C21_36 
REMARK   11  A    between atoms: C21_36  and  C22_37 
ROOT
HETATM    1  C6  UNL     1       5.222  -1.195 -10.374  1.00  0.00     0.132 A 
HETATM    2  C7  UNL     1       5.891  -0.095  -9.891  1.00  0.00     0.077 A 
HETATM    3  C8  UNL     1       7.251  -0.109  -9.630  1.00  0.00     0.058 A 
HETATM    4  N4  UNL     1       7.921  -1.243  -9.863  1.00  0.00    -0.194 N 
ATOM      5  H4  UNL     1       8.923  -1.273  -9.677  1.00  0.00     0.184 HD
HETATM    6  C20 UNL     1       7.307  -2.354 -10.339  1.00  0.00     0.680 A 
HETATM    7  N8  UNL     1       5.999  -2.304 -10.577  1.00  0.00    -0.176 N 
ATOM      8  H8  UNL     1       5.546  -3.146 -10.934  1.00  0.00     0.186 HD
ENDROOT
BRANCH   1   9
HETATM    9  N1  UNL     1       3.972  -1.249 -10.643  1.00  0.00    -0.265 N 
ATOM     10  H1  UNL     1       3.288  -1.092  -9.902  1.00  0.00     0.180 HD
BRANCH   9  11
HETATM   11  S1  UNL     1       3.440  -1.581 -12.224  1.00  0.00     0.265 S 
HETATM   12  O2  UNL     1       4.442  -2.471 -12.901  1.00  0.00    -0.200 OA
HETATM   13  O3  UNL     1       3.352  -0.288 -12.988  1.00  0.00    -0.200 OA
BRANCH  11  14
HETATM   14  C5  UNL     1       1.909  -2.427 -12.243  1.00  0.00     0.095 A 
HETATM   15  C4  UNL     1       1.689  -3.607 -12.881  1.00  0.00     0.029 A 
HETATM   16  C3  UNL     1       0.444  -4.163 -12.826  1.00  0.00     0.037 A 
HETATM   17  C2  UNL     1      -0.635  -3.590 -12.149  1.00  0.00     0.100 A 
HETATM   18  N9  UNL     1      -0.365  -2.425 -11.535  1.00  0.00    -0.360 N 
HETATM   19  C25 UNL     1       0.853  -1.863 -11.577  1.00  0.00     0.113 A 
ATOM     20  H9  UNL     1      -1.109  -1.954 -11.021  1.00  0.00     0.165 HD
BRANCH  17  21
HETATM   21  C1  UNL     1      -1.928  -4.249 -12.144  1.00  0.00     0.270 C 
HETATM   22  O1  UNL     1      -1.930  -5.463 -11.788  1.00  0.00    -0.266 OA
HETATM   23  N10 UNL     1      -3.150  -3.657 -12.497  1.00  0.00    -0.347 N 
HETATM   24  C26 UNL     1      -4.419  -4.398 -12.461  1.00  0.00     0.126 C 
HETATM   25  C29 UNL     1      -3.525  -2.349 -12.942  1.00  0.00     0.126 C 
HETATM   26  C27 UNL     1      -5.074  -3.950 -13.746  1.00  0.00     0.021 C 
HETATM   27  C28 UNL     1      -4.459  -2.638 -14.110  1.00  0.00     0.021 C 
ENDBRANCH  17  21
ENDBRANCH  11  14
ENDBRANCH   9  11
ENDBRANCH   1   9
BRANCH   3  28
HETATM   28  C9  UNL     1       7.942   1.086  -9.124  1.00  0.00     0.330 C 
BRANCH  28  29
HETATM   29  N2  UNL     1       9.364   0.951  -9.347  1.00  0.00     0.094 N 
HETATM   30  C10 UNL     1      10.115   1.795  -8.412  1.00  0.00     0.273 C 
HETATM   31  C11 UNL     1      11.548   1.334  -8.475  1.00  0.00     0.036 C 
HETATM   32  C12 UNL     1      12.143   1.486  -9.848  1.00  0.00     0.003 C 
HETATM   33  C18 UNL     1      11.193   1.222 -10.957  1.00  0.00     0.036 C 
HETATM   34  C19 UNL     1       9.747   1.352 -10.662  1.00  0.00     0.273 C 
BRANCH  32  35
HETATM   35  C13 UNL     1      12.798   2.867  -9.997  1.00  0.00     0.112 C 
BRANCH  35  36
HETATM   36  N3  UNL     1      14.014   2.792 -10.751  1.00  0.00    -0.210 NA
HETATM   37  C14 UNL     1      15.149   3.337 -10.038  1.00  0.00     0.107 C 
HETATM   38  C15 UNL     1      16.339   3.230 -11.001  1.00  0.00     0.016 C 
HETATM   39  C16 UNL     1      16.379   4.441 -11.902  1.00  0.00     0.017 C 
HETATM   40  C17 UNL     1      15.055   4.769 -12.516  1.00  0.00     0.158 C 
HETATM   41  S2  UNL     1      13.889   3.415 -12.344  1.00  0.00     0.211 S 
HETATM   42  O4  UNL     1      12.525   4.011 -12.613  1.00  0.00    -0.211 OA
HETATM   43  O5  UNL     1      14.136   2.388 -13.403  1.00  0.00    -0.211 OA
ENDBRANCH  35  36
ENDBRANCH  32  35
ENDBRANCH  28  29
ENDBRANCH   3  28
BRANCH   6  44
HETATM   44  N5  UNL     1       8.015  -3.421 -10.544  1.00  0.00    -0.220 N 
ATOM     45  H5  UNL     1       8.073  -4.109  -9.794  1.00  0.00     0.178 HD
BRANCH  44  46
HETATM   46  C21 UNL     1       8.720  -3.690 -11.756  1.00  0.00     0.196 C 
BRANCH  46  47
HETATM   47  C22 UNL     1       7.907  -4.648 -12.552  1.00  0.00     0.044 A 
HETATM   48  C23 UNL     1       8.210  -5.980 -12.743  1.00  0.00     0.115 A 
HETATM   49  N6  UNL     1       7.271  -6.562 -13.512  1.00  0.00    -0.360 N 
HETATM   50  C24 UNL     1       6.368  -5.605 -13.812  1.00  0.00     0.180 A 
ATOM     51  H6  UNL     1       7.246  -7.537 -13.810  1.00  0.00     0.166 HD
HETATM   52  N7  UNL     1       6.761  -4.445 -13.226  1.00  0.00    -0.353 N 
ATOM     53  H7  UNL     1       6.265  -3.556 -13.288  1.00  0.00     0.166 HD
ENDBRANCH  46  47
ENDBRANCH  44  46
ENDBRANCH   6  44
TORSDOF 11
ENDMDL
MODEL 2
REMARK VINA RESULT: -10.834152492      1.319      1.513
REMARK  11 active torsions:
REMARK  status: ('A' for Active; 'I' for Inactive)
REMARK    1  A    between atoms: C1_2  and  C2_3 
REMARK       I    between atoms: C1_2  and  N10_49 
REMARK    2  A    between atoms: C5_6  and  S1_7 
REMARK    3  A    between atoms: S1_7  and  N1_10 
REMARK    4  A    between atoms: N1_10  and  C6_12 
REMARK    5  A    between atoms: C8_14  and  C9_15 
REMARK    6  A    between atoms: C9_15  and  N2_16 
REMARK    7  A    between atoms: C12_19  and  C13_20 
REMARK    8  A    between atoms: C13_20  and  N3_21 
REMARK    9  A    between atoms: C20_33  and  N5_34 
REMARK   10  A    between atoms: N5_34  and  C21_36 
REMARK   11  A    between atoms: C21_36  and  C22_37 
ROOT
HETATM    1  C6  UNL     1       4.955  -1.334 -10.531  1.00  0.00     0.132 A 
HETATM    2  C7  UNL     1       5.631  -0.179 -10.215  1.00  0.00     0.077 A 
HETATM    3  C8  UNL     1       7.007  -0.137 -10.077  1.00  0.00     0.058 A 
HETATM    4  N4  UNL     1       7.689  -1.274 -10.262  1.00  0.00    -0.194 N 
ATOM      5  H4  UNL     1       8.704  -1.263 -10.165  1.00  0.00     0.184 HD
HETATM    6  C20 UNL     1       7.070  -2.439 -10.575  1.00  0.00     0.680 A 
HETATM    7  N8  UNL     1       5.746  -2.441 -10.699  1.00  0.00    -0.176 N 
ATOM      8  H8  UNL     1       5.290  -3.322 -10.933  1.00  0.00     0.186 HD
ENDROOT
BRANCH   1   9
HETATM    9  N1  UNL     1       3.689  -1.442 -10.680  1.00  0.00    -0.265 N 
ATOM     10  H1  UNL     1       3.081  -1.431  -9.862  1.00  0.00     0.180 HD
BRANCH   9  11
HETATM   11  S1  UNL     1       3.011  -1.605 -12.231  1.00  0.00     0.265 S 
HETATM   12  O2  UNL     1       4.003  -2.283 -13.132  1.00  0.00    -0.200 OA
HETATM   13  O3  UNL     1       2.722  -0.234 -12.781  1.00  0.00    -0.200 OA
BRANCH  11  14
HETATM   14  C5  UNL     1       1.568  -2.593 -12.223  1.00  0.00     0.095 A 
HETATM   15  C4  UNL     1       1.457  -3.798 -12.842  1.00  0.00     0.029 A 
HETATM   16  C3  UNL     1       0.272  -4.471 -12.766  1.00  0.00     0.037 A 
HETATM   17  C2  UNL     1      -0.852  -3.994 -12.085  1.00  0.00     0.100 A 
HETATM   18  N9  UNL     1      -0.688  -2.800 -11.491  1.00  0.00    -0.360 N 
HETATM   19  C25 UNL     1       0.470  -2.125 -11.553  1.00  0.00     0.113 A 
ATOM     20  H9  UNL     1      -1.470  -2.395 -10.975  1.00  0.00     0.165 HD
BRANCH  17  21
HETATM   21  C1  UNL     1      -2.075  -4.774 -12.058  1.00  0.00     0.270 C 
HETATM   22  O1  UNL     1      -1.948  -5.991 -11.736  1.00  0.00    -0.266 OA
HETATM   23  N10 UNL     1      -3.359  -4.293 -12.354  1.00  0.00    -0.347 N 
HETATM   24  C26 UNL     1      -4.549  -5.153 -12.298  1.00  0.00     0.126 C 
HETATM   25  C29 UNL     1      -3.872  -3.017 -12.749  1.00  0.00     0.126 C 
HETATM   26  C27 UNL     1      -5.288  -4.739 -13.548  1.00  0.00     0.021 C 
HETATM   27  C28 UNL     1      -4.814  -3.365 -13.894  1.00  0.00     0.021 C 
ENDBRANCH  17  21
ENDBRANCH  11  14
ENDBRANCH   9  11
ENDBRANCH   1   9
BRANCH   3  28
HETATM   28  C9  UNL     1       7.704   1.115  -9.750  1.00  0.00     0.330 C 
BRANCH  28  29
HETATM   29  N2  UNL     1       8.933   1.196 -10.506  1.00  0.00     0.094 N 
HETATM   30  C10 UNL     1      10.073   1.433  -9.613  1.00  0.00     0.273 C 
HETATM   31  C11 UNL     1      11.314   1.153 -10.420  1.00  0.00     0.036 C 
HETATM   32  C12 UNL     1      11.440   2.058 -11.615  1.00  0.00     0.003 C 
HETATM   33  C18 UNL     1      10.149   2.390 -12.267  1.00  0.00     0.036 C 
HETATM   34  C19 UNL     1       8.920   2.265 -11.450  1.00  0.00     0.273 C 
BRANCH  32  35
HETATM   35  C13 UNL     1      12.218   3.329 -11.246  1.00  0.00     0.112 C 
BRANCH  35  36
HETATM   36  N3  UNL     1      13.581   3.254 -11.677  1.00  0.00    -0.210 NA
HETATM   37  C14 UNL     1      13.784   2.276 -12.725  1.00  0.00     0.107 C 
HETATM   38  C15 UNL     1      15.289   2.286 -13.022  1.00  0.00     0.016 C 
HETATM   39  C16 UNL     1      16.005   1.355 -12.073  1.00  0.00     0.017 C 
HETATM   40  C17 UNL     1      15.609   1.542 -10.643  1.00  0.00     0.158 C 
HETATM   41  S2  UNL     1      14.711   3.078 -10.399  1.00  0.00     0.211 S 
HETATM   42  O4  UNL     1      14.028   2.945  -9.055  1.00  0.00    -0.211 OA
HETATM   43  O5  UNL     1      15.669   4.221 -10.294  1.00  0.00    -0.211 OA
ENDBRANCH  35  36
ENDBRANCH  32  35
ENDBRANCH  28  29
ENDBRANCH   3  28
BRANCH   6  44
HETATM   44  N5  UNL     1       7.791  -3.504 -10.742  1.00  0.00    -0.220 N 
ATOM     45  H5  UNL     1       7.888  -4.144  -9.955  1.00  0.00     0.178 HD
BRANCH  44  46
HETATM   46  C21 UNL     1       8.456  -3.834 -11.961  1.00  0.00     0.196 C 
BRANCH  46  47
HETATM   47  C22 UNL     1       7.568  -4.744 -12.733  1.00  0.00     0.044 A 
HETATM   48  C23 UNL     1       7.871  -6.043 -13.082  1.00  0.00     0.115 A 
HETATM   49  N6  UNL     1       6.853  -6.584 -13.777  1.00  0.00    -0.360 N 
HETATM   50  C24 UNL     1       5.900  -5.633 -13.872  1.00  0.00     0.180 A 
ATOM     51  H6  UNL     1       6.810  -7.529 -14.158  1.00  0.00     0.166 HD
HETATM   52  N7  UNL     1       6.341  -4.518 -13.237  1.00  0.00    -0.353 N 
ATOM     53  H7  UNL     1       5.823  -3.643 -13.155  1.00  0.00     0.166 HD
ENDBRANCH  46  47
ENDBRANCH  44  46
ENDBRANCH   6  44
TORSDOF 11
ENDMDL
MODEL 3
REMARK VINA RESULT: -10.803100365      1.599      2.209
REMARK  11 active torsions:
REMARK  status: ('A' for Active; 'I' for Inactive)
REMARK    1  A    between atoms: C1_2  and  C2_3 
REMARK       I    between atoms: C1_2  and  N10_49 
REMARK    2  A    between atoms: C5_6  and  S1_7 
REMARK    3  A    between atoms: S1_7  and  N1_10 
REMARK    4  A    between atoms: N1_10  and  C6_12 
REMARK    5  A    between atoms: C8_14  and  C9_15 
REMARK    6  A    between atoms: C9_15  and  N2_16 
REMARK    7  A    between atoms: C12_19  and  C13_20 
REMARK    8  A    between atoms: C13_20  and  N3_21 
REMARK    9  A    between atoms: C20_33  and  N5_34 
REMARK   10  A    between atoms: N5_34  and  C21_36 
REMARK   11  A    between atoms: C21_36  and  C22_37 
ROOT
HETATM    1  C6  UNL     1       4.406  -1.614 -11.117  1.00  0.00     0.132 A 
HETATM    2  C7  UNL     1       5.344  -0.673 -10.767  1.00  0.00     0.077 A 
HETATM    3  C8  UNL     1       6.702  -0.873 -10.949  1.00  0.00     0.058 A 
HETATM    4  N4  UNL     1       7.096  -2.032 -11.489  1.00  0.00    -0.194 N 
ATOM      5  H4  UNL     1       8.091  -2.198 -11.632  1.00  0.00     0.184 HD
HETATM    6  C20 UNL     1       6.210  -2.993 -11.851  1.00  0.00     0.680 A 
HETATM    7  N8  UNL     1       4.913  -2.765 -11.660  1.00  0.00    -0.176 N 
ATOM      8  H8  UNL     1       4.255  -3.494 -11.934  1.00  0.00     0.186 HD
ENDROOT
BRANCH   1   9
HETATM    9  N1  UNL     1       3.139  -1.492 -10.983  1.00  0.00    -0.265 N 
ATOM     10  H1  UNL     1       2.732  -1.447 -10.049  1.00  0.00     0.180 HD
BRANCH   9  11
HETATM   11  S1  UNL     1       2.128  -1.406 -12.347  1.00  0.00     0.265 S 
HETATM   12  O2  UNL     1       2.923  -1.762 -13.570  1.00  0.00    -0.200 OA
HETATM   13  O3  UNL     1       1.630   0.007 -12.493  1.00  0.00    -0.200 OA
BRANCH  11  14
HETATM   14  C5  UNL     1       0.795  -2.534 -12.256  1.00  0.00     0.095 A 
HETATM   15  C4  UNL     1       0.773  -3.750 -12.863  1.00  0.00     0.029 A 
HETATM   16  C3  UNL     1      -0.332  -4.538 -12.720  1.00  0.00     0.037 A 
HETATM   17  C2  UNL     1      -1.460  -4.170 -11.981  1.00  0.00     0.100 A 
HETATM   18  N9  UNL     1      -1.387  -2.960 -11.402  1.00  0.00    -0.360 N 
HETATM   19  C25 UNL     1      -0.308  -2.172 -11.531  1.00  0.00     0.113 A 
ATOM     20  H9  UNL     1      -2.177  -2.630 -10.847  1.00  0.00     0.165 HD
BRANCH  17  21
HETATM   21  C1  UNL     1      -2.595  -5.069 -11.884  1.00  0.00     0.270 C 
HETATM   22  O1  UNL     1      -2.365  -6.197 -11.358  1.00  0.00    -0.266 OA
HETATM   23  N10 UNL     1      -3.900  -4.790 -12.318  1.00  0.00    -0.347 N 
HETATM   24  C26 UNL     1      -4.996  -5.759 -12.179  1.00  0.00     0.126 C 
HETATM   25  C29 UNL     1      -4.514  -3.659 -12.945  1.00  0.00     0.126 C 
HETATM   26  C27 UNL     1      -5.689  -5.635 -13.514  1.00  0.00     0.021 C 
HETATM   27  C28 UNL     1      -5.338  -4.290 -14.061  1.00  0.00     0.021 C 
ENDBRANCH  17  21
ENDBRANCH  11  14
ENDBRANCH   9  11
ENDBRANCH   1   9
BRANCH   3  28
HETATM   28  C9  UNL     1       7.682   0.157 -10.576  1.00  0.00     0.330 C 
BRANCH  28  29
HETATM   29  N2  UNL     1       8.886  -0.017 -11.355  1.00  0.00     0.094 N 
HETATM   30  C10 UNL     1      10.063   0.406 -10.589  1.00  0.00     0.273 C 
HETATM   31  C11 UNL     1      11.266  -0.129 -11.320  1.00  0.00     0.036 C 
HETATM   32  C12 UNL     1      11.380   0.415 -12.719  1.00  0.00     0.003 C 
HETATM   33  C18 UNL     1      10.077   0.610 -13.404  1.00  0.00     0.036 C 
HETATM   34  C19 UNL     1       8.874   0.759 -12.553  1.00  0.00     0.273 C 
BRANCH  32  35
HETATM   35  C13 UNL     1      12.209   1.706 -12.726  1.00  0.00     0.112 C 
BRANCH  35  36
HETATM   36  N3  UNL     1      13.101   1.763 -11.607  1.00  0.00    -0.210 NA
HETATM   37  C14 UNL     1      12.985   2.998 -10.862  1.00  0.00     0.107 C 
HETATM   38  C15 UNL     1      14.038   2.916  -9.749  1.00  0.00     0.016 C 
HETATM   39  C16 UNL     1      15.370   3.404 -10.267  1.00  0.00     0.017 C 
HETATM   40  C17 UNL     1      15.750   2.810 -11.585  1.00  0.00     0.158 C 
HETATM   41  S2  UNL     1      14.730   1.389 -11.992  1.00  0.00     0.211 S 
HETATM   42  O4  UNL     1      14.922   1.156 -13.474  1.00  0.00    -0.211 OA
HETATM   43  O5  UNL     1      15.240   0.173 -11.286  1.00  0.00    -0.211 OA
ENDBRANCH  35  36
ENDBRANCH  32  35
ENDBRANCH  28  29
ENDBRANCH   3  28
BRANCH   6  44
HETATM   44  N5  UNL     1       6.659  -4.093 -12.370  1.00  0.00    -0.220 N 
ATOM     45  H5  UNL     1       6.079  -4.928 -12.295  1.00  0.00     0.178 HD
BRANCH  44  46
HETATM   46  C21 UNL     1       7.914  -4.206 -13.040  1.00  0.00     0.196 C 
BRANCH  46  47
HETATM   47  C22 UNL     1       8.818  -5.014 -12.180  1.00  0.00     0.044 A 
HETATM   48  C23 UNL     1       9.705  -4.501 -11.257  1.00  0.00     0.115 A 
HETATM   49  N6  UNL     1      10.370  -5.501 -10.650  1.00  0.00    -0.360 N 
HETATM   50  C24 UNL     1       9.910  -6.653 -11.182  1.00  0.00     0.180 A 
ATOM     51  H6  UNL     1      11.084  -5.407  -9.927  1.00  0.00     0.166 HD
HETATM   52  N7  UNL     1       8.968  -6.350 -12.112  1.00  0.00    -0.353 N 
ATOM     53  H7  UNL     1       8.454  -7.029 -12.672  1.00  0.00     0.166 HD
ENDBRANCH  46  47
ENDBRANCH  44  46
ENDBRANCH   6  44
TORSDOF 11
ENDMDL
MODEL 4
REMARK VINA RESULT: -10.661636785      0.891      1.310
REMARK  11 active torsions:
REMARK  status: ('A' for Active; 'I' for Inactive)
REMARK    1  A    between atoms: C1_2  and  C2_3 
REMARK       I    between atoms: C1_2  and  N10_49 
REMARK    2  A    between atoms: C5_6  and  S1_7 
REMARK    3  A    between atoms: S1_7  and  N1_10 
REMARK    4  A    between atoms: N1_10  and  C6_12 
REMARK    5  A    between atoms: C8_14  and  C9_15 
REMARK    6  A    between atoms: C9_15  and  N2_16 
REMARK    7  A    between atoms: C12_19  and  C13_20 
REMARK    8  A    between atoms: C13_20  and  N3_21 
REMARK    9  A    between atoms: C20_33  and  N5_34 
REMARK   10  A    between atoms: N5_34  and  C21_36 
REMARK   11  A    between atoms: C21_36  and  C22_37 
ROOT
HETATM    1  C6  UNL     1       5.301  -1.110 -10.381  1.00  0.00     0.132 A 
HETATM    2  C7  UNL     1       6.004  -0.033  -9.895  1.00  0.00     0.077 A 
HETATM    3  C8  UNL     1       7.362  -0.088  -9.636  1.00  0.00     0.058 A 
HETATM    4  N4  UNL     1       7.998  -1.241  -9.874  1.00  0.00    -0.194 N 
ATOM      5  H4  UNL     1       8.999  -1.301  -9.690  1.00  0.00     0.184 HD
HETATM    6  C20 UNL     1       7.350  -2.332 -10.353  1.00  0.00     0.680 A 
HETATM    7  N8  UNL     1       6.044  -2.242 -10.589  1.00  0.00    -0.176 N 
ATOM      8  H8  UNL     1       5.566  -3.068 -10.947  1.00  0.00     0.186 HD
ENDROOT
BRANCH   1   9
HETATM    9  N1  UNL     1       4.049  -1.126 -10.648  1.00  0.00    -0.265 N 
ATOM     10  H1  UNL     1       3.371  -0.962  -9.903  1.00  0.00     0.180 HD
BRANCH   9  11
HETATM   11  S1  UNL     1       3.506  -1.420 -12.232  1.00  0.00     0.265 S 
HETATM   12  O2  UNL     1       4.195  -2.642 -12.769  1.00  0.00    -0.200 OA
HETATM   13  O3  UNL     1       3.872  -0.244 -13.096  1.00  0.00    -0.200 OA
BRANCH  11  14
HETATM   14  C5  UNL     1       1.786  -1.733 -12.295  1.00  0.00     0.095 A 
HETATM   15  C4  UNL     1       0.826  -0.774 -12.219  1.00  0.00     0.029 A 
HETATM   16  C3  UNL     1      -0.485  -1.150 -12.274  1.00  0.00     0.037 A 
HETATM   17  C2  UNL     1      -0.911  -2.474 -12.403  1.00  0.00     0.100 A 
HETATM   18  N9  UNL     1       0.077  -3.382 -12.475  1.00  0.00    -0.360 N 
HETATM   19  C25 UNL     1       1.372  -3.032 -12.423  1.00  0.00     0.113 A 
ATOM     20  H9  UNL     1      -0.165  -4.368 -12.571  1.00  0.00     0.165 HD
BRANCH  17  21
HETATM   21  C1  UNL     1      -2.328  -2.785 -12.450  1.00  0.00     0.270 C 
HETATM   22  O1  UNL     1      -3.113  -1.835 -12.163  1.00  0.00    -0.266 OA
HETATM   23  N10 UNL     1      -2.882  -4.030 -12.783  1.00  0.00    -0.347 N 
HETATM   24  C26 UNL     1      -4.334  -4.259 -12.810  1.00  0.00     0.126 C 
HETATM   25  C29 UNL     1      -2.324  -5.297 -13.147  1.00  0.00     0.126 C 
HETATM   26  C27 UNL     1      -4.446  -5.608 -12.141  1.00  0.00     0.021 C 
HETATM   27  C28 UNL     1      -3.121  -6.280 -12.298  1.00  0.00     0.021 C 
ENDBRANCH  17  21
ENDBRANCH  11  14
ENDBRANCH   9  11
ENDBRANCH   1   9
BRANCH   3  28
HETATM   28  C9  UNL     1       8.091   1.084  -9.128  1.00  0.00     0.330 C 
BRANCH  28  29
HETATM   29  N2  UNL     1       9.490   0.966  -9.468  1.00  0.00     0.094 N 
HETATM   30  C10 UNL     1      10.316   1.718  -8.517  1.00  0.00     0.273 C 
HETATM   31  C11 UNL     1      11.736   1.261  -8.728  1.00  0.00     0.036 C 
HETATM   32  C12 UNL     1      12.230   1.539 -10.122  1.00  0.00     0.003 C 
HETATM   33  C18 UNL     1      11.198   1.380 -11.177  1.00  0.00     0.036 C 
HETATM   34  C19 UNL     1       9.780   1.486 -10.765  1.00  0.00     0.273 C 
BRANCH  32  35
HETATM   35  C13 UNL     1      12.885   2.925 -10.192  1.00  0.00     0.112 C 
BRANCH  35  36
HETATM   36  N3  UNL     1      14.153   2.873 -10.856  1.00  0.00    -0.210 NA
HETATM   37  C14 UNL     1      15.220   3.459 -10.072  1.00  0.00     0.107 C 
HETATM   38  C15 UNL     1      16.478   3.371 -10.946  1.00  0.00     0.016 C 
HETATM   39  C16 UNL     1      16.550   4.571 -11.860  1.00  0.00     0.017 C 
HETATM   40  C17 UNL     1      15.266   4.855 -12.572  1.00  0.00     0.158 C 
HETATM   41  S2  UNL     1      14.126   3.472 -12.463  1.00  0.00     0.211 S 
HETATM   42  O4  UNL     1      12.769   4.027 -12.838  1.00  0.00    -0.211 OA
HETATM   43  O5  UNL     1      14.476   2.438 -13.486  1.00  0.00    -0.211 OA
ENDBRANCH  35  36
ENDBRANCH  32  35
ENDBRANCH  28  29
ENDBRANCH   3  28
BRANCH   6  44
HETATM   44  N5  UNL     1       8.026  -3.419 -10.563  1.00  0.00    -0.220 N 
ATOM     45  H5  UNL     1       8.068  -4.109  -9.813  1.00  0.00     0.178 HD
BRANCH  44  46
HETATM   46  C21 UNL     1       8.715  -3.708 -11.779  1.00  0.00     0.196 C 
BRANCH  46  47
HETATM   47  C22 UNL     1       7.875  -4.648 -12.567  1.00  0.00     0.044 A 
HETATM   48  C23 UNL     1       8.183  -5.967 -12.822  1.00  0.00     0.115 A 
HETATM   49  N6  UNL     1       7.213  -6.534 -13.563  1.00  0.00    -0.360 N 
HETATM   50  C24 UNL     1       6.285  -5.579 -13.782  1.00  0.00     0.180 A 
ATOM     51  H6  UNL     1       7.184  -7.498 -13.894  1.00  0.00     0.166 HD
HETATM   52  N7  UNL     1       6.693  -4.435 -13.175  1.00  0.00    -0.353 N 
ATOM     53  H7  UNL     1       6.184  -3.552 -13.179  1.00  0.00     0.166 HD
ENDBRANCH  46  47
ENDBRANCH  44  46
ENDBRANCH   6  44
TORSDOF 11
ENDMDL
MODEL 5
REMARK VINA RESULT: -10.623471117      4.097      4.915
REMARK  11 active torsions:
REMARK  status: ('A' for Active; 'I' for Inactive)
REMARK    1  A    between atoms: C1_2  and  C2_3 
REMARK       I    between atoms: C1_2  and  N10_49 
REMARK    2  A    between atoms: C5_6  and  S1_7 
REMARK    3  A    between atoms: S1_7  and  N1_10 
REMARK    4  A    between atoms: N1_10  and  C6_12 
REMARK    5  A    between atoms: C8_14  and  C9_15 
REMARK    6  A    between atoms: C9_15  and  N2_16 
REMARK    7  A    between atoms: C12_19  and  C13_20 
REMARK    8  A    between atoms: C13_20  and  N3_21 
REMARK    9  A    between atoms: C20_33  and  N5_34 
REMARK   10  A    between atoms: N5_34  and  C21_36 
REMARK   11  A    between atoms: C21_36  and  C22_37 
ROOT
HETATM    1  C6  UNL     1       5.110  -1.271 -10.474  1.00  0.00     0.132 A 
HETATM    2  C7  UNL     1       5.490   0.037 -10.287  1.00  0.00     0.077 A 
HETATM    3  C8  UNL     1       6.804   0.403 -10.050  1.00  0.00     0.058 A 
HETATM    4  N4  UNL     1       7.724  -0.567 -10.006  1.00  0.00    -0.194 N 
ATOM      5  H4  UNL     1       8.697  -0.317  -9.833  1.00  0.00     0.184 HD
HETATM    6  C20 UNL     1       7.401  -1.871 -10.184  1.00  0.00     0.680 A 
HETATM    7  N8  UNL     1       6.128  -2.185 -10.409  1.00  0.00    -0.176 N 
ATOM      8  H8  UNL     1       5.895  -3.169 -10.540  1.00  0.00     0.186 HD
ENDROOT
BRANCH   1   9
HETATM    9  N1  UNL     1       3.918  -1.677 -10.703  1.00  0.00    -0.265 N 
ATOM     10  H1  UNL     1       3.251  -1.744  -9.935  1.00  0.00     0.180 HD
BRANCH   9  11
HETATM   11  S1  UNL     1       3.438  -2.108 -12.277  1.00  0.00     0.265 S 
HETATM   12  O2  UNL     1       4.357  -3.177 -12.795  1.00  0.00    -0.200 OA
HETATM   13  O3  UNL     1       3.556  -0.900 -13.168  1.00  0.00    -0.200 OA
BRANCH  11  14
HETATM   14  C5  UNL     1       1.817  -2.762 -12.319  1.00  0.00     0.095 A 
HETATM   15  C4  UNL     1       1.486  -3.966 -12.855  1.00  0.00     0.029 A 
HETATM   16  C3  UNL     1       0.180  -4.361 -12.831  1.00  0.00     0.037 A 
HETATM   17  C2  UNL     1      -0.855  -3.597 -12.285  1.00  0.00     0.100 A 
HETATM   18  N9  UNL     1      -0.474  -2.417 -11.768  1.00  0.00    -0.360 N 
HETATM   19  C25 UNL     1       0.805  -2.011 -11.781  1.00  0.00     0.113 A 
ATOM     20  H9  UNL     1      -1.181  -1.809 -11.351  1.00  0.00     0.165 HD
BRANCH  17  21
HETATM   21  C1  UNL     1      -2.218  -4.093 -12.304  1.00  0.00     0.270 C 
HETATM   22  O1  UNL     1      -2.375  -5.296 -11.944  1.00  0.00    -0.266 OA
HETATM   23  N10 UNL     1      -3.351  -3.358 -12.684  1.00  0.00    -0.347 N 
HETATM   24  C26 UNL     1      -4.702  -3.938 -12.671  1.00  0.00     0.126 C 
HETATM   25  C29 UNL     1      -3.555  -2.017 -13.140  1.00  0.00     0.126 C 
HETATM   26  C27 UNL     1      -5.272  -3.421 -13.970  1.00  0.00     0.021 C 
HETATM   27  C28 UNL     1      -4.494  -2.196 -14.326  1.00  0.00     0.021 C 
ENDBRANCH  17  21
ENDBRANCH  11  14
ENDBRANCH   9  11
ENDBRANCH   1   9
BRANCH   3  28
HETATM   28  C9  UNL     1       7.182   1.812  -9.865  1.00  0.00     0.330 C 
BRANCH  28  29
HETATM   29  N2  UNL     1       6.530   2.622 -10.867  1.00  0.00     0.094 N 
HETATM   30  C10 UNL     1       7.383   2.765 -12.052  1.00  0.00     0.273 C 
HETATM   31  C11 UNL     1       6.506   3.306 -13.150  1.00  0.00     0.036 C 
HETATM   32  C12 UNL     1       5.921   4.651 -12.811  1.00  0.00     0.003 C 
HETATM   33  C18 UNL     1       5.566   4.817 -11.380  1.00  0.00     0.036 C 
HETATM   34  C19 UNL     1       6.250   3.942 -10.401  1.00  0.00     0.273 C 
BRANCH  32  35
HETATM   35  C13 UNL     1       6.853   5.775 -13.285  1.00  0.00     0.112 C 
BRANCH  35  36
HETATM   36  N3  UNL     1       6.286   6.499 -14.383  1.00  0.00    -0.210 NA
HETATM   37  C14 UNL     1       6.993   6.275 -15.626  1.00  0.00     0.107 C 
HETATM   38  C15 UNL     1       6.296   7.159 -16.669  1.00  0.00     0.016 C 
HETATM   39  C16 UNL     1       6.884   8.550 -16.635  1.00  0.00     0.017 C 
HETATM   40  C17 UNL     1       6.997   9.115 -15.256  1.00  0.00     0.158 C 
HETATM   41  S2  UNL     1       6.038   8.166 -14.069  1.00  0.00     0.211 S 
HETATM   42  O4  UNL     1       6.559   8.569 -12.706  1.00  0.00    -0.211 OA
HETATM   43  O5  UNL     1       4.601   8.574 -14.129  1.00  0.00    -0.211 OA
ENDBRANCH  35  36
ENDBRANCH  32  35
ENDBRANCH  28  29
ENDBRANCH   3  28
BRANCH   6  44
HETATM   44  N5  UNL     1       8.343  -2.762 -10.130  1.00  0.00    -0.220 N 
ATOM     45  H5  UNL     1       8.493  -3.246  -9.245  1.00  0.00     0.178 HD
BRANCH  44  46
HETATM   46  C21 UNL     1       9.181  -3.105 -11.233  1.00  0.00     0.196 C 
BRANCH  46  47
HETATM   47  C22 UNL     1       8.515  -4.199 -11.989  1.00  0.00     0.044 A 
HETATM   48  C23 UNL     1       8.891  -5.525 -11.964  1.00  0.00     0.115 A 
HETATM   49  N6  UNL     1       8.081  -6.250 -12.758  1.00  0.00    -0.360 N 
HETATM   50  C24 UNL     1       7.187  -5.389 -13.289  1.00  0.00     0.180 A 
ATOM     51  H6  UNL     1       8.132  -7.254 -12.926  1.00  0.00     0.166 HD
HETATM   52  N7  UNL     1       7.457  -4.145 -12.819  1.00  0.00    -0.353 N 
ATOM     53  H7  UNL     1       6.938  -3.300 -13.057  1.00  0.00     0.166 HD
ENDBRANCH  46  47
ENDBRANCH  44  46
ENDBRANCH   6  44
TORSDOF 11
ENDMDL
