MODEL 1
REMARK VINA RESULT: -7.053217673      0.000      0.000
REMARK  10 active torsions:
REMARK  status: ('A' for Active; 'I' for Inactive)
REMARK    1  A    between atoms: C2_2  and  C4_4 
REMARK    2  A    between atoms: C4_4  and  N1_5 
REMARK    3  A    between atoms: C4_4  and  C15_17 
REMARK    4  A    between atoms: N1_5  and  C5_7 
REMARK    5  A    between atoms: C15_17  and  O1_18 
REMARK    6  A    between atoms: C15_17  and  N2_20 
REMARK       I    between atoms: N2_20  and  C16_22 
REMARK    7  A    between atoms: C16_22  and  C17_24 
REMARK    8  A    between atoms: C17_24  and  C18_25 
REMARK    9  A    between atoms: C17_24  and  N4_29 
REMARK   10  A    between atoms: C18_25  and  C19_26 
ROOT
HETATM    1  C4  UNL     1      10.756  43.846  33.565  1.00  0.00     0.129 C 
ENDROOT
BRANCH   1   2
HETATM    2  C2  UNL     1      10.554  44.495  34.958  1.00  0.00     0.004 C 
HETATM    3  C1  UNL     1       9.136  44.756  35.342  1.00  0.00     0.012 C 
HETATM    4  C3  UNL     1      11.336  45.757  35.129  1.00  0.00     0.012 C 
ENDBRANCH   1   2
BRANCH   1   5
HETATM    5  N1  UNL     1      11.459  44.850  32.836  1.00  0.00    -0.404 N 
ATOM      6  H1  UNL     1      12.299  45.256  33.247  1.00  0.00     0.154 HD
BRANCH   5   7
HETATM    7  C5  UNL     1      11.042  45.297  31.580  1.00  0.00     0.027 C 
HETATM    8  C6  UNL     1       9.611  44.868  31.344  1.00  0.00     0.035 C 
HETATM    9  C7  UNL     1       9.155  45.099  29.904  1.00  0.00    -0.012 C 
HETATM   10  C8  UNL     1      10.076  44.463  28.915  1.00  0.00     0.009 C 
HETATM   11  C12 UNL     1       9.129  46.585  29.719  1.00  0.00     0.009 C 
HETATM   12  C9  UNL     1      11.452  45.046  29.120  1.00  0.00    -0.012 C 
HETATM   13  C10 UNL     1      11.440  46.563  28.939  1.00  0.00     0.009 C 
HETATM   14  C14 UNL     1      11.919  44.750  30.502  1.00  0.00     0.035 C 
HETATM   15  C11 UNL     1      10.496  47.108  29.995  1.00  0.00    -0.012 C 
HETATM   16  C13 UNL     1      11.027  46.808  31.383  1.00  0.00     0.035 C 
ENDBRANCH   5   7
ENDBRANCH   1   5
BRANCH   1  17
HETATM   17  C15 UNL     1      11.507  42.565  33.808  1.00  0.00     0.242 C 
BRANCH  17  18
HETATM   18  O1  UNL     1      12.905  42.780  33.967  1.00  0.00    -0.375 OA
ATOM     19  H1  UNL     1      13.402  42.494  33.210  1.00  0.00     0.212 HD
ENDBRANCH  17  18
BRANCH  17  20
HETATM   20  N2  UNL     1      11.504  41.779  32.543  1.00  0.00    -0.331 N 
HETATM   21  C16 UNL     1      11.144  40.410  32.492  1.00  0.00     0.253 C 
HETATM   22  O2  UNL     1      10.815  39.777  33.516  1.00  0.00    -0.271 OA
ATOM     23  H2  UNL     1      11.773  42.246  31.678  1.00  0.00     0.165 HD
BRANCH  21  24
HETATM   24  C17 UNL     1      11.143  39.669  31.192  1.00  0.00     0.322 C 
BRANCH  24  25
HETATM   25  C18 UNL     1      10.510  40.575  30.154  1.00  0.00     0.145 C 
BRANCH  25  26
HETATM   26  C19 UNL     1       9.258  40.037  29.587  1.00  0.00     0.233 C 
HETATM   27  N3  UNL     1       9.278  39.456  28.302  1.00  0.00    -0.062 NA
HETATM   28  O3  UNL     1       8.203  40.094  30.233  1.00  0.00    -0.277 OA
ENDBRANCH  25  26
ENDBRANCH  24  25
BRANCH  24  29
HETATM   29  N4  UNL     1      12.357  39.104  30.798  1.00  0.00     0.102 N 
HETATM   30  C20 UNL     1      12.590  38.402  29.610  1.00  0.00     0.275 C 
HETATM   31  C21 UNL     1      13.482  37.374  30.330  1.00  0.00     0.060 C 
HETATM   32  C22 UNL     1      13.043  38.137  31.568  1.00  0.00     0.275 C 
ENDBRANCH  24  29
ENDBRANCH  21  24
ENDBRANCH  17  20
ENDBRANCH   1  17
TORSDOF 10
ENDMDL
MODEL 2
REMARK VINA RESULT: -6.998033602      0.177      1.372
REMARK  10 active torsions:
REMARK  status: ('A' for Active; 'I' for Inactive)
REMARK    1  A    between atoms: C2_2  and  C4_4 
REMARK    2  A    between atoms: C4_4  and  N1_5 
REMARK    3  A    between atoms: C4_4  and  C15_17 
REMARK    4  A    between atoms: N1_5  and  C5_7 
REMARK    5  A    between atoms: C15_17  and  O1_18 
REMARK    6  A    between atoms: C15_17  and  N2_20 
REMARK       I    between atoms: N2_20  and  C16_22 
REMARK    7  A    between atoms: C16_22  and  C17_24 
REMARK    8  A    between atoms: C17_24  and  C18_25 
REMARK    9  A    between atoms: C17_24  and  N4_29 
REMARK   10  A    between atoms: C18_25  and  C19_26 
ROOT
HETATM    1  C4  UNL     1      10.776  43.894  33.468  1.00  0.00     0.129 C 
ENDROOT
BRANCH   1   2
HETATM    2  C2  UNL     1      10.674  44.636  34.825  1.00  0.00     0.004 C 
HETATM    3  C1  UNL     1       9.295  44.773  35.376  1.00  0.00     0.012 C 
HETATM    4  C3  UNL     1      11.314  45.987  34.797  1.00  0.00     0.012 C 
ENDBRANCH   1   2
BRANCH   1   5
HETATM    5  N1  UNL     1      11.495  44.812  32.647  1.00  0.00    -0.404 N 
ATOM      6  H1  UNL     1      12.344  45.239  33.016  1.00  0.00     0.154 HD
BRANCH   5   7
HETATM    7  C5  UNL     1      11.079  45.149  31.356  1.00  0.00     0.027 C 
HETATM    8  C6  UNL     1      11.143  46.650  31.182  1.00  0.00     0.035 C 
HETATM    9  C7  UNL     1      10.477  47.124  29.892  1.00  0.00    -0.012 C 
HETATM   10  C8  UNL     1       9.073  46.630  29.771  1.00  0.00     0.009 C 
HETATM   11  C12 UNL     1      11.321  46.587  28.777  1.00  0.00     0.009 C 
HETATM   12  C9  UNL     1       9.105  45.123  29.811  1.00  0.00    -0.012 C 
HETATM   13  C10 UNL     1       9.967  44.561  28.681  1.00  0.00     0.009 C 
HETATM   14  C14 UNL     1       9.686  44.670  31.104  1.00  0.00     0.035 C 
HETATM   15  C11 UNL     1      11.366  45.104  28.905  1.00  0.00    -0.012 C 
HETATM   16  C13 UNL     1      11.926  44.593  30.218  1.00  0.00     0.035 C 
ENDBRANCH   5   7
ENDBRANCH   1   5
BRANCH   1  17
HETATM   17  C15 UNL     1      11.472  42.591  33.758  1.00  0.00     0.242 C 
BRANCH  17  18
HETATM   18  O1  UNL     1      12.870  42.760  33.963  1.00  0.00    -0.375 OA
ATOM     19  H1  UNL     1      13.090  42.859  34.882  1.00  0.00     0.212 HD
ENDBRANCH  17  18
BRANCH  17  20
HETATM   20  N2  UNL     1      11.486  41.785  32.507  1.00  0.00    -0.331 N 
HETATM   21  C16 UNL     1      11.161  40.406  32.480  1.00  0.00     0.253 C 
HETATM   22  O2  UNL     1      10.852  39.782  33.516  1.00  0.00    -0.271 OA
ATOM     23  H2  UNL     1      11.739  42.244  31.632  1.00  0.00     0.165 HD
BRANCH  21  24
HETATM   24  C17 UNL     1      11.175  39.643  31.192  1.00  0.00     0.322 C 
BRANCH  24  25
HETATM   25  C18 UNL     1      10.544  40.528  30.135  1.00  0.00     0.145 C 
BRANCH  25  26
HETATM   26  C19 UNL     1       9.284  39.988  29.590  1.00  0.00     0.233 C 
HETATM   27  N3  UNL     1       9.300  39.320  28.347  1.00  0.00    -0.062 NA
HETATM   28  O3  UNL     1       8.223  40.117  30.218  1.00  0.00    -0.277 OA
ENDBRANCH  25  26
ENDBRANCH  24  25
BRANCH  24  29
HETATM   29  N4  UNL     1      12.396  39.080  30.817  1.00  0.00     0.102 N 
HETATM   30  C20 UNL     1      12.651  38.387  29.628  1.00  0.00     0.275 C 
HETATM   31  C21 UNL     1      13.528  37.352  30.357  1.00  0.00     0.060 C 
HETATM   32  C22 UNL     1      13.065  38.106  31.592  1.00  0.00     0.275 C 
ENDBRANCH  24  29
ENDBRANCH  21  24
ENDBRANCH  17  20
ENDBRANCH   1  17
TORSDOF 10
ENDMDL
MODEL 3
REMARK VINA RESULT: -6.888381853      1.149      2.336
REMARK  10 active torsions:
REMARK  status: ('A' for Active; 'I' for Inactive)
REMARK    1  A    between atoms: C2_2  and  C4_4 
REMARK    2  A    between atoms: C4_4  and  N1_5 
REMARK    3  A    between atoms: C4_4  and  C15_17 
REMARK    4  A    between atoms: N1_5  and  C5_7 
REMARK    5  A    between atoms: C15_17  and  O1_18 
REMARK    6  A    between atoms: C15_17  and  N2_20 
REMARK       I    between atoms: N2_20  and  C16_22 
REMARK    7  A    between atoms: C16_22  and  C17_24 
REMARK    8  A    between atoms: C17_24  and  C18_25 
REMARK    9  A    between atoms: C17_24  and  N4_29 
REMARK   10  A    between atoms: C18_25  and  C19_26 
ROOT
HETATM    1  C4  UNL     1      10.873  43.983  33.654  1.00  0.00     0.129 C 
ENDROOT
BRANCH   1   2
HETATM    2  C2  UNL     1      10.847  44.605  35.073  1.00  0.00     0.004 C 
HETATM    3  C1  UNL     1       9.615  44.333  35.868  1.00  0.00     0.012 C 
HETATM    4  C3  UNL     1      11.095  46.079  35.065  1.00  0.00     0.012 C 
ENDBRANCH   1   2
BRANCH   1   5
HETATM    5  N1  UNL     1      11.553  44.967  32.878  1.00  0.00    -0.404 N 
ATOM      6  H1  UNL     1      12.417  45.367  33.242  1.00  0.00     0.154 HD
BRANCH   5   7
HETATM    7  C5  UNL     1      11.080  45.404  31.638  1.00  0.00     0.027 C 
HETATM    8  C6  UNL     1       9.708  44.818  31.388  1.00  0.00     0.035 C 
HETATM    9  C7  UNL     1       9.222  45.041  29.957  1.00  0.00    -0.012 C 
HETATM   10  C8  UNL     1      10.206  44.551  28.947  1.00  0.00     0.009 C 
HETATM   11  C12 UNL     1       9.022  46.520  29.822  1.00  0.00     0.009 C 
HETATM   12  C9  UNL     1      11.505  45.283  29.170  1.00  0.00    -0.012 C 
HETATM   13  C10 UNL     1      11.315  46.794  29.039  1.00  0.00     0.009 C 
HETATM   14  C14 UNL     1      12.010  44.998  30.541  1.00  0.00     0.035 C 
HETATM   15  C11 UNL     1      10.319  47.190  30.114  1.00  0.00    -0.012 C 
HETATM   16  C13 UNL     1      10.888  46.908  31.490  1.00  0.00     0.035 C 
ENDBRANCH   5   7
ENDBRANCH   1   5
BRANCH   1  17
HETATM   17  C15 UNL     1      11.574  42.659  33.792  1.00  0.00     0.242 C 
BRANCH  17  18
HETATM   18  O1  UNL     1      12.961  42.809  34.073  1.00  0.00    -0.375 OA
ATOM     19  H1  UNL     1      13.189  42.496  34.940  1.00  0.00     0.212 HD
ENDBRANCH  17  18
BRANCH  17  20
HETATM   20  N2  UNL     1      11.645  42.028  32.445  1.00  0.00    -0.331 N 
HETATM   21  C16 UNL     1      11.437  40.643  32.235  1.00  0.00     0.253 C 
HETATM   22  O2  UNL     1      11.190  39.864  33.178  1.00  0.00    -0.271 OA
ATOM     23  H2  UNL     1      11.852  42.619  31.640  1.00  0.00     0.165 HD
BRANCH  21  24
HETATM   24  C17 UNL     1      11.505  40.061  30.857  1.00  0.00     0.322 C 
BRANCH  24  25
HETATM   25  C18 UNL     1      11.860  38.594  31.003  1.00  0.00     0.145 C 
BRANCH  25  26
HETATM   26  C19 UNL     1      13.140  38.232  30.362  1.00  0.00     0.233 C 
HETATM   27  N3  UNL     1      13.208  38.153  28.956  1.00  0.00    -0.062 NA
HETATM   28  O3  UNL     1      14.143  38.001  31.052  1.00  0.00    -0.277 OA
ENDBRANCH  25  26
ENDBRANCH  24  25
BRANCH  24  29
HETATM   29  N4  UNL     1      10.414  40.309  30.024  1.00  0.00     0.102 N 
HETATM   30  C20 UNL     1       9.121  40.647  30.439  1.00  0.00     0.275 C 
HETATM   31  C21 UNL     1       8.483  39.758  29.357  1.00  0.00     0.060 C 
HETATM   32  C22 UNL     1       9.926  39.363  29.093  1.00  0.00     0.275 C 
ENDBRANCH  24  29
ENDBRANCH  21  24
ENDBRANCH  17  20
ENDBRANCH   1  17
TORSDOF 10
ENDMDL
MODEL 4
REMARK VINA RESULT: -6.694892507      5.193      8.483
REMARK  10 active torsions:
REMARK  status: ('A' for Active; 'I' for Inactive)
REMARK    1  A    between atoms: C2_2  and  C4_4 
REMARK    2  A    between atoms: C4_4  and  N1_5 
REMARK    3  A    between atoms: C4_4  and  C15_17 
REMARK    4  A    between atoms: N1_5  and  C5_7 
REMARK    5  A    between atoms: C15_17  and  O1_18 
REMARK    6  A    between atoms: C15_17  and  N2_20 
REMARK       I    between atoms: N2_20  and  C16_22 
REMARK    7  A    between atoms: C16_22  and  C17_24 
REMARK    8  A    between atoms: C17_24  and  C18_25 
REMARK    9  A    between atoms: C17_24  and  N4_29 
REMARK   10  A    between atoms: C18_25  and  C19_26 
ROOT
HETATM    1  C4  UNL     1       7.198  38.280  35.634  1.00  0.00     0.129 C 
ENDROOT
BRANCH   1   2
HETATM    2  C2  UNL     1       6.487  37.002  35.122  1.00  0.00     0.004 C 
HETATM    3  C1  UNL     1       5.002  36.994  35.267  1.00  0.00     0.012 C 
HETATM    4  C3  UNL     1       7.033  35.751  35.731  1.00  0.00     0.012 C 
ENDBRANCH   1   2
BRANCH   1   5
HETATM    5  N1  UNL     1       7.294  38.059  37.040  1.00  0.00    -0.404 N 
ATOM      6  H1  UNL     1       7.735  37.202  37.372  1.00  0.00     0.154 HD
BRANCH   5   7
HETATM    7  C5  UNL     1       6.807  38.973  37.978  1.00  0.00     0.027 C 
HETATM    8  C6  UNL     1       5.687  38.334  38.769  1.00  0.00     0.035 C 
HETATM    9  C7  UNL     1       4.936  39.336  39.643  1.00  0.00    -0.012 C 
HETATM   10  C8  UNL     1       4.438  40.504  38.858  1.00  0.00     0.009 C 
HETATM   11  C12 UNL     1       5.916  39.781  40.686  1.00  0.00     0.009 C 
HETATM   12  C9  UNL     1       5.627  41.172  38.215  1.00  0.00    -0.012 C 
HETATM   13  C10 UNL     1       6.638  41.628  39.267  1.00  0.00     0.009 C 
HETATM   14  C14 UNL     1       6.309  40.211  37.305  1.00  0.00     0.035 C 
HETATM   15  C11 UNL     1       7.091  40.373  39.990  1.00  0.00    -0.012 C 
HETATM   16  C13 UNL     1       7.804  39.440  39.032  1.00  0.00     0.035 C 
ENDBRANCH   5   7
ENDBRANCH   1   5
BRANCH   1  17
HETATM   17  C15 UNL     1       8.505  38.355  34.892  1.00  0.00     0.242 C 
BRANCH  17  18
HETATM   18  O1  UNL     1       9.627  38.304  35.767  1.00  0.00    -0.375 OA
ATOM     19  H1  UNL     1      10.107  39.123  35.786  1.00  0.00     0.212 HD
ENDBRANCH  17  18
BRANCH  17  20
HETATM   20  N2  UNL     1       8.655  39.735  34.354  1.00  0.00    -0.331 N 
HETATM   21  C16 UNL     1       9.796  40.155  33.627  1.00  0.00     0.253 C 
HETATM   22  O2  UNL     1      10.753  39.387  33.403  1.00  0.00    -0.271 OA
ATOM     23  H2  UNL     1       7.904  40.406  34.515  1.00  0.00     0.165 HD
BRANCH  21  24
HETATM   24  C17 UNL     1       9.890  41.551  33.094  1.00  0.00     0.322 C 
BRANCH  24  25
HETATM   25  C18 UNL     1      11.346  41.969  33.176  1.00  0.00     0.145 C 
BRANCH  25  26
HETATM   26  C19 UNL     1      11.573  43.146  34.036  1.00  0.00     0.233 C 
HETATM   27  N3  UNL     1      12.894  43.507  34.376  1.00  0.00    -0.062 NA
HETATM   28  O3  UNL     1      10.615  43.812  34.453  1.00  0.00    -0.277 OA
ENDBRANCH  25  26
ENDBRANCH  24  25
BRANCH  24  29
HETATM   29  N4  UNL     1       9.293  41.785  31.855  1.00  0.00     0.102 N 
HETATM   30  C20 UNL     1       8.512  40.875  31.133  1.00  0.00     0.275 C 
HETATM   31  C21 UNL     1       9.144  41.309  29.798  1.00  0.00     0.060 C 
HETATM   32  C22 UNL     1      10.027  42.151  30.703  1.00  0.00     0.275 C 
ENDBRANCH  24  29
ENDBRANCH  21  24
ENDBRANCH  17  20
ENDBRANCH   1  17
TORSDOF 10
ENDMDL
MODEL 5
REMARK VINA RESULT: -6.503054193      5.255      8.495
REMARK  10 active torsions:
REMARK  status: ('A' for Active; 'I' for Inactive)
REMARK    1  A    between atoms: C2_2  and  C4_4 
REMARK    2  A    between atoms: C4_4  and  N1_5 
REMARK    3  A    between atoms: C4_4  and  C15_17 
REMARK    4  A    between atoms: N1_5  and  C5_7 
REMARK    5  A    between atoms: C15_17  and  O1_18 
REMARK    6  A    between atoms: C15_17  and  N2_20 
REMARK       I    between atoms: N2_20  and  C16_22 
REMARK    7  A    between atoms: C16_22  and  C17_24 
REMARK    8  A    between atoms: C17_24  and  C18_25 
REMARK    9  A    between atoms: C17_24  and  N4_29 
REMARK   10  A    between atoms: C18_25  and  C19_26 
ROOT
HETATM    1  C4  UNL     1       7.210  38.173  35.659  1.00  0.00     0.129 C 
ENDROOT
BRANCH   1   2
HETATM    2  C2  UNL     1       6.547  36.870  35.145  1.00  0.00     0.004 C 
HETATM    3  C1  UNL     1       5.056  36.852  35.186  1.00  0.00     0.012 C 
HETATM    4  C3  UNL     1       7.059  35.647  35.835  1.00  0.00     0.012 C 
ENDBRANCH   1   2
BRANCH   1   5
HETATM    5  N1  UNL     1       7.262  37.977  37.071  1.00  0.00    -0.404 N 
ATOM      6  H1  UNL     1       7.668  37.114  37.431  1.00  0.00     0.154 HD
BRANCH   5   7
HETATM    7  C5  UNL     1       6.779  38.923  37.978  1.00  0.00     0.027 C 
HETATM    8  C6  UNL     1       5.668  38.310  38.801  1.00  0.00     0.035 C 
HETATM    9  C7  UNL     1       4.919  39.341  39.643  1.00  0.00    -0.012 C 
HETATM   10  C8  UNL     1       4.410  40.477  38.819  1.00  0.00     0.009 C 
HETATM   11  C12 UNL     1       5.905  39.829  40.661  1.00  0.00     0.009 C 
HETATM   12  C9  UNL     1       5.591  41.125  38.142  1.00  0.00    -0.012 C 
HETATM   13  C10 UNL     1       6.608  41.624  39.168  1.00  0.00     0.009 C 
HETATM   14  C14 UNL     1       6.270  40.133  37.263  1.00  0.00     0.035 C 
HETATM   15  C11 UNL     1       7.073  40.399  39.934  1.00  0.00    -0.012 C 
HETATM   16  C13 UNL     1       7.782  39.433  39.006  1.00  0.00     0.035 C 
ENDBRANCH   5   7
ENDBRANCH   1   5
BRANCH   1  17
HETATM   17  C15 UNL     1       8.540  38.266  34.961  1.00  0.00     0.242 C 
BRANCH  17  18
HETATM   18  O1  UNL     1       9.629  38.299  35.877  1.00  0.00    -0.375 OA
ATOM     19  H1  UNL     1      10.199  39.044  35.732  1.00  0.00     0.212 HD
ENDBRANCH  17  18
BRANCH  17  20
HETATM   20  N2  UNL     1       8.657  39.626  34.366  1.00  0.00    -0.331 N 
HETATM   21  C16 UNL     1       9.802  40.054  33.649  1.00  0.00     0.253 C 
HETATM   22  O2  UNL     1      10.791  39.310  33.484  1.00  0.00    -0.271 OA
ATOM     23  H2  UNL     1       7.880  40.277  34.478  1.00  0.00     0.165 HD
BRANCH  21  24
HETATM   24  C17 UNL     1       9.863  41.427  33.057  1.00  0.00     0.322 C 
BRANCH  24  25
HETATM   25  C18 UNL     1       9.572  41.294  31.575  1.00  0.00     0.145 C 
BRANCH  25  26
HETATM   26  C19 UNL     1      10.751  41.535  30.719  1.00  0.00     0.233 C 
HETATM   27  N3  UNL     1      11.432  40.434  30.160  1.00  0.00    -0.062 NA
HETATM   28  O3  UNL     1      11.136  42.691  30.494  1.00  0.00    -0.277 OA
ENDBRANCH  25  26
ENDBRANCH  24  25
BRANCH  24  29
HETATM   29  N4  UNL     1       9.120  42.415  33.703  1.00  0.00     0.102 N 
HETATM   30  C20 UNL     1       8.297  43.362  33.083  1.00  0.00     0.275 C 
HETATM   31  C21 UNL     1       8.754  44.471  34.048  1.00  0.00     0.060 C 
HETATM   32  C22 UNL     1       9.702  43.392  34.543  1.00  0.00     0.275 C 
ENDBRANCH  24  29
ENDBRANCH  21  24
ENDBRANCH  17  20
ENDBRANCH   1  17
TORSDOF 10
ENDMDL
