MODEL 1
REMARK VINA RESULT: -6.916545525      0.000      0.000
REMARK  6 active torsions:
REMARK  status: ('A' for Active; 'I' for Inactive)
REMARK    1  A    between atoms: O1_2  and  C2_3 
REMARK    2  A    between atoms: C2_3  and  O2_4 
REMARK    3  A    between atoms: C2_3  and  C3_6 
REMARK    4  A    between atoms: C3_6  and  S1_7 
REMARK    5  A    between atoms: S1_7  and  C4_9 
REMARK    6  A    between atoms: C7_12  and  C8_13 
ROOT
HETATM    1  C4  UNL     1      -2.236  12.847   7.969  1.00  0.00     0.031 A 
HETATM    2  C5  UNL     1      -2.576  12.756   9.299  1.00  0.00     0.022 A 
HETATM    3  C6  UNL     1      -3.929  12.726   9.662  1.00  0.00     0.016 A 
HETATM    4  C7  UNL     1      -4.915  12.787   8.699  1.00  0.00     0.005 A 
HETATM    5  C9  UNL     1      -4.572  12.878   7.367  1.00  0.00     0.016 A 
HETATM    6  C10 UNL     1      -3.244  12.907   7.011  1.00  0.00     0.022 A 
ENDROOT
BRANCH   1   7
HETATM    7  S1  UNL     1      -0.598  12.887   7.446  1.00  0.00     0.054 S 
HETATM    8  O3  UNL     1       0.502  13.379   8.570  1.00  0.00    -0.253 OA
BRANCH   7   9
HETATM    9  C3  UNL     1      -0.096  11.551   6.443  1.00  0.00     0.174 C 
BRANCH   9  10
HETATM   10  C2  UNL     1       0.598  10.434   7.149  1.00  0.00     0.268 C 
BRANCH  10  11
HETATM   11  O1  UNL     1      -0.202   9.793   8.063  1.00  0.00    -0.365 OA
HETATM   12  C1  UNL     1      -1.430   9.458   7.551  1.00  0.00     0.204 C 
ENDBRANCH  10  11
BRANCH  10  13
HETATM   13  O2  UNL     1       1.678  11.018   7.852  1.00  0.00    -0.370 OA
ATOM     14  H2  UNL     1       2.476  10.820   7.377  1.00  0.00     0.212 HD
ENDBRANCH  10  13
ENDBRANCH   9  10
ENDBRANCH   7   9
ENDBRANCH   1   7
BRANCH   4  15
HETATM   15  C8  UNL     1      -6.306  12.754   9.127  1.00  0.00     0.120 C 
HETATM   16  N1  UNL     1      -6.718  12.346  10.253  1.00  0.00    -0.387 N 
ATOM     17  H12 UNL     1      -6.014  12.015  10.912  1.00  0.00     0.157 HD
ATOM     18  H11 UNL     1      -7.693  12.322  10.553  1.00  0.00     0.157 HD
HETATM   19  N2  UNL     1      -7.292  13.217   8.205  1.00  0.00    -0.082 NA
ENDBRANCH   4  15
TORSDOF 6
ENDMDL
MODEL 2
REMARK VINA RESULT: -6.899557990      0.107      1.199
REMARK  6 active torsions:
REMARK  status: ('A' for Active; 'I' for Inactive)
REMARK    1  A    between atoms: O1_2  and  C2_3 
REMARK    2  A    between atoms: C2_3  and  O2_4 
REMARK    3  A    between atoms: C2_3  and  C3_6 
REMARK    4  A    between atoms: C3_6  and  S1_7 
REMARK    5  A    between atoms: S1_7  and  C4_9 
REMARK    6  A    between atoms: C7_12  and  C8_13 
ROOT
HETATM    1  C4  UNL     1      -2.273  12.831   7.990  1.00  0.00     0.031 A 
HETATM    2  C5  UNL     1      -3.264  12.877   7.038  1.00  0.00     0.022 A 
HETATM    3  C6  UNL     1      -4.606  12.865   7.441  1.00  0.00     0.016 A 
HETATM    4  C7  UNL     1      -4.935  12.810   8.780  1.00  0.00     0.005 A 
HETATM    5  C9  UNL     1      -3.940  12.765   9.733  1.00  0.00     0.016 A 
HETATM    6  C10 UNL     1      -2.623  12.776   9.337  1.00  0.00     0.022 A 
ENDROOT
BRANCH   1   7
HETATM    7  S1  UNL     1      -0.604  12.844   7.572  1.00  0.00     0.054 S 
HETATM    8  O3  UNL     1       0.439  13.215   8.793  1.00  0.00    -0.253 OA
BRANCH   7   9
HETATM    9  C3  UNL     1      -0.085  11.561   6.510  1.00  0.00     0.174 C 
BRANCH   9  10
HETATM   10  C2  UNL     1       0.584  10.402   7.170  1.00  0.00     0.268 C 
BRANCH  10  11
HETATM   11  O1  UNL     1      -0.243   9.718   8.028  1.00  0.00    -0.365 OA
HETATM   12  C1  UNL     1      -1.470   9.444   7.477  1.00  0.00     0.204 C 
ENDBRANCH  10  11
BRANCH  10  13
HETATM   13  O2  UNL     1       1.650  10.937   7.930  1.00  0.00    -0.370 OA
ATOM     14  H2  UNL     1       1.301  11.638   8.467  1.00  0.00     0.212 HD
ENDBRANCH  10  13
ENDBRANCH   9  10
ENDBRANCH   7   9
ENDBRANCH   1   7
BRANCH   4  15
HETATM   15  C8  UNL     1      -6.343  12.800   9.148  1.00  0.00     0.120 C 
HETATM   16  N1  UNL     1      -6.809  12.419  10.262  1.00  0.00    -0.387 N 
ATOM     17  H12 UNL     1      -6.138  12.092  10.957  1.00  0.00     0.157 HD
ATOM     18  H11 UNL     1      -7.796  12.412  10.520  1.00  0.00     0.157 HD
HETATM   19  N2  UNL     1      -7.283  13.257   8.175  1.00  0.00    -0.082 NA
ENDBRANCH   4  15
TORSDOF 6
ENDMDL
MODEL 3
REMARK VINA RESULT: -6.692326374      1.443      2.083
REMARK  6 active torsions:
REMARK  status: ('A' for Active; 'I' for Inactive)
REMARK    1  A    between atoms: O1_2  and  C2_3 
REMARK    2  A    between atoms: C2_3  and  O2_4 
REMARK    3  A    between atoms: C2_3  and  C3_6 
REMARK    4  A    between atoms: C3_6  and  S1_7 
REMARK    5  A    between atoms: S1_7  and  C4_9 
REMARK    6  A    between atoms: C7_12  and  C8_13 
ROOT
HETATM    1  C4  UNL     1      -2.710  11.825   7.312  1.00  0.00     0.031 A 
HETATM    2  C5  UNL     1      -3.551  12.807   6.845  1.00  0.00     0.022 A 
HETATM    3  C6  UNL     1      -4.730  13.094   7.548  1.00  0.00     0.016 A 
HETATM    4  C7  UNL     1      -5.046  12.401   8.699  1.00  0.00     0.005 A 
HETATM    5  C9  UNL     1      -4.201  11.418   9.165  1.00  0.00     0.016 A 
HETATM    6  C10 UNL     1      -3.045  11.136   8.476  1.00  0.00     0.022 A 
ENDROOT
BRANCH   1   7
HETATM    7  S1  UNL     1      -1.246  11.416   6.506  1.00  0.00     0.054 S 
HETATM    8  O3  UNL     1      -0.413  12.677   5.849  1.00  0.00    -0.253 OA
BRANCH   7   9
HETATM    9  C3  UNL     1      -0.269  10.202   7.289  1.00  0.00     0.174 C 
BRANCH   9  10
HETATM   10  C2  UNL     1       1.052  10.665   7.806  1.00  0.00     0.268 C 
BRANCH  10  11
HETATM   11  O1  UNL     1       0.945  11.663   8.742  1.00  0.00    -0.365 OA
HETATM   12  C1  UNL     1       1.801  12.710   8.504  1.00  0.00     0.204 C 
ENDBRANCH  10  11
BRANCH  10  13
HETATM   13  O2  UNL     1       1.753  11.187   6.694  1.00  0.00    -0.370 OA
ATOM     14  H2  UNL     1       2.682  11.078   6.858  1.00  0.00     0.212 HD
ENDBRANCH  10  13
ENDBRANCH   9  10
ENDBRANCH   7   9
ENDBRANCH   1   7
BRANCH   4  15
HETATM   15  C8  UNL     1      -6.281  12.737   9.392  1.00  0.00     0.120 C 
HETATM   16  N1  UNL     1      -6.503  12.559  10.626  1.00  0.00    -0.387 N 
ATOM     17  H12 UNL     1      -5.751  12.145  11.176  1.00  0.00     0.157 HD
ATOM     18  H11 UNL     1      -7.369  12.794  11.112  1.00  0.00     0.157 HD
HETATM   19  N2  UNL     1      -7.335  13.316   8.621  1.00  0.00    -0.082 NA
ENDBRANCH   4  15
TORSDOF 6
ENDMDL
MODEL 4
REMARK VINA RESULT: -6.643016144      1.449      1.812
REMARK  6 active torsions:
REMARK  status: ('A' for Active; 'I' for Inactive)
REMARK    1  A    between atoms: O1_2  and  C2_3 
REMARK    2  A    between atoms: C2_3  and  O2_4 
REMARK    3  A    between atoms: C2_3  and  C3_6 
REMARK    4  A    between atoms: C3_6  and  S1_7 
REMARK    5  A    between atoms: S1_7  and  C4_9 
REMARK    6  A    between atoms: C7_12  and  C8_13 
ROOT
HETATM    1  C4  UNL     1      -2.703  11.751   7.400  1.00  0.00     0.031 A 
HETATM    2  C5  UNL     1      -3.059  11.088   8.551  1.00  0.00     0.022 A 
HETATM    3  C6  UNL     1      -4.254  11.429   9.199  1.00  0.00     0.016 A 
HETATM    4  C7  UNL     1      -5.070  12.420   8.691  1.00  0.00     0.005 A 
HETATM    5  C9  UNL     1      -4.711  13.082   7.536  1.00  0.00     0.016 A 
HETATM    6  C10 UNL     1      -3.539  12.748   6.901  1.00  0.00     0.022 A 
ENDROOT
BRANCH   1   7
HETATM    7  S1  UNL     1      -1.254  11.387   6.548  1.00  0.00     0.054 S 
HETATM    8  O3  UNL     1      -0.469  12.676   5.884  1.00  0.00    -0.253 OA
BRANCH   7   9
HETATM    9  C3  UNL     1      -0.227  10.187   7.288  1.00  0.00     0.174 C 
BRANCH   9  10
HETATM   10  C2  UNL     1       1.085  10.681   7.799  1.00  0.00     0.268 C 
BRANCH  10  11
HETATM   11  O1  UNL     1       0.959  11.673   8.740  1.00  0.00    -0.365 OA
HETATM   12  C1  UNL     1       1.807  12.730   8.515  1.00  0.00     0.204 C 
ENDBRANCH  10  11
BRANCH  10  13
HETATM   13  O2  UNL     1       1.767  11.224   6.685  1.00  0.00    -0.370 OA
ATOM     14  H2  UNL     1       2.552  10.708   6.545  1.00  0.00     0.212 HD
ENDBRANCH  10  13
ENDBRANCH   9  10
ENDBRANCH   7   9
ENDBRANCH   1   7
BRANCH   4  15
HETATM   15  C8  UNL     1      -6.300  12.737   9.401  1.00  0.00     0.120 C 
HETATM   16  N1  UNL     1      -6.508  12.539  10.635  1.00  0.00    -0.387 N 
ATOM     17  H12 UNL     1      -5.748  12.122  11.171  1.00  0.00     0.157 HD
ATOM     18  H11 UNL     1      -7.371  12.761  11.132  1.00  0.00     0.157 HD
HETATM   19  N2  UNL     1      -7.365  13.320   8.649  1.00  0.00    -0.082 NA
ENDBRANCH   4  15
TORSDOF 6
ENDMDL
MODEL 5
REMARK VINA RESULT: -6.152714314      4.702      6.280
REMARK  6 active torsions:
REMARK  status: ('A' for Active; 'I' for Inactive)
REMARK    1  A    between atoms: O1_2  and  C2_3 
REMARK    2  A    between atoms: C2_3  and  O2_4 
REMARK    3  A    between atoms: C2_3  and  C3_6 
REMARK    4  A    between atoms: C3_6  and  S1_7 
REMARK    5  A    between atoms: S1_7  and  C4_9 
REMARK    6  A    between atoms: C7_12  and  C8_13 
ROOT
HETATM    1  C4  UNL     1      -2.664  12.711   7.705  1.00  0.00     0.031 A 
HETATM    2  C5  UNL     1      -2.211  12.478   8.983  1.00  0.00     0.022 A 
HETATM    3  C6  UNL     1      -0.844  12.259   9.198  1.00  0.00     0.016 A 
HETATM    4  C7  UNL     1       0.044  12.276   8.142  1.00  0.00     0.005 A 
HETATM    5  C9  UNL     1      -0.412  12.510   6.862  1.00  0.00     0.016 A 
HETATM    6  C10 UNL     1      -1.754  12.724   6.651  1.00  0.00     0.022 A 
ENDROOT
BRANCH   1   7
HETATM    7  S1  UNL     1      -4.327  12.989   7.362  1.00  0.00     0.054 S 
HETATM    8  O3  UNL     1      -4.723  13.091   5.766  1.00  0.00    -0.253 OA
BRANCH   7   9
HETATM    9  C3  UNL     1      -5.458  12.111   8.359  1.00  0.00     0.174 C 
BRANCH   9  10
HETATM   10  C2  UNL     1      -6.850  12.648   8.389  1.00  0.00     0.268 C 
BRANCH  10  11
HETATM   11  O1  UNL     1      -7.189  13.203   9.598  1.00  0.00    -0.365 OA
HETATM   12  C1  UNL     1      -6.447  12.703  10.639  1.00  0.00     0.204 C 
ENDBRANCH  10  11
BRANCH  10  13
HETATM   13  O2  UNL     1      -7.707  11.546   8.162  1.00  0.00    -0.370 OA
ATOM     14  H2  UNL     1      -7.820  11.453   7.224  1.00  0.00     0.212 HD
ENDBRANCH  10  13
ENDBRANCH   9  10
ENDBRANCH   7   9
ENDBRANCH   1   7
BRANCH   4  15
HETATM   15  C8  UNL     1       1.453  12.043   8.418  1.00  0.00     0.120 C 
HETATM   16  N1  UNL     1       2.036  10.919   8.370  1.00  0.00    -0.387 N 
ATOM     17  H12 UNL     1       1.465  10.112   8.117  1.00  0.00     0.157 HD
ATOM     18  H11 UNL     1       3.024  10.755   8.564  1.00  0.00     0.157 HD
HETATM   19  N2  UNL     1       2.252  13.171   8.774  1.00  0.00    -0.082 NA
ENDBRANCH   4  15
TORSDOF 6
ENDMDL
