MODEL 1
REMARK VINA RESULT: -6.645476408      0.000      0.000
REMARK  7 active torsions:
REMARK  status: ('A' for Active; 'I' for Inactive)
REMARK    1  A    between atoms: N1_2  and  C2_5 
REMARK    2  A    between atoms: C2_5  and  C4_7 
REMARK    3  A    between atoms: C4_7  and  N2_8 
REMARK    4  A    between atoms: N2_8  and  C5_10 
REMARK    5  A    between atoms: C5_10  and  N3_12 
REMARK    6  A    between atoms: N3_12  and  C6_14 
REMARK    7  A    between atoms: C6_14  and  C7_15 
ROOT
HETATM    1  C5  UNL     1      -2.370  12.919   6.393  1.00  0.00     0.167 C 
HETATM    2  S1  UNL     1      -3.158  13.746   5.243  1.00  0.00    -0.041 SA
ENDROOT
BRANCH   1   3
HETATM    3  N2  UNL     1      -1.466  11.870   6.131  1.00  0.00    -0.365 N 
ATOM      4  H2  UNL     1      -1.883  10.974   5.883  1.00  0.00     0.161 HD
BRANCH   3   5
HETATM    5  C4  UNL     1      -0.054  11.903   6.167  1.00  0.00     0.154 C 
BRANCH   5   6
HETATM    6  C2  UNL     1       0.681  10.977   7.043  1.00  0.00     0.199 C 
HETATM    7  C3  UNL     1      -0.341   9.989   7.633  1.00  0.00     0.041 C 
BRANCH   6   8
HETATM    8  N1  UNL     1       1.534  11.512   8.036  1.00  0.00    -0.074 N 
HETATM    9  C1  UNL     1       0.722  12.197   9.054  1.00  0.00     0.267 C 
ATOM     10  H12 UNL     1       2.254  12.118   7.643  1.00  0.00     0.277 HD
ATOM     11  H11 UNL     1       2.148  10.805   8.442  1.00  0.00     0.277 HD
ENDBRANCH   6   8
ENDBRANCH   5   6
ENDBRANCH   3   5
ENDBRANCH   1   3
BRANCH   1  12
HETATM   12  N3  UNL     1      -2.592  13.328   7.738  1.00  0.00    -0.362 N 
ATOM     13  H3  UNL     1      -2.373  14.278   8.038  1.00  0.00     0.162 HD
BRANCH  12  14
HETATM   14  C6  UNL     1      -3.134  12.369   8.666  1.00  0.00     0.179 C 
BRANCH  14  15
HETATM   15  C7  UNL     1      -4.577  12.498   8.913  1.00  0.00     0.026 A 
HETATM   16  C8  UNL     1      -5.014  12.602  10.225  1.00  0.00     0.027 A 
HETATM   17  C9  UNL     1      -6.374  12.713  10.413  1.00  0.00     0.003 A 
HETATM   18  C10 UNL     1      -7.232  12.718   9.344  1.00  0.00     0.017 A 
HETATM   19  C11 UNL     1      -6.776  12.612   8.036  1.00  0.00     0.088 A 
HETATM   20  N4  UNL     1      -5.437  12.505   7.888  1.00  0.00    -0.368 N 
ATOM     21  H4  UNL     1      -5.061  12.424   6.942  1.00  0.00     0.165 HD
ENDBRANCH  14  15
ENDBRANCH  12  14
ENDBRANCH   1  12
TORSDOF 7
ENDMDL
MODEL 2
REMARK VINA RESULT: -6.429005311      1.432      2.044
REMARK  7 active torsions:
REMARK  status: ('A' for Active; 'I' for Inactive)
REMARK    1  A    between atoms: N1_2  and  C2_5 
REMARK    2  A    between atoms: C2_5  and  C4_7 
REMARK    3  A    between atoms: C4_7  and  N2_8 
REMARK    4  A    between atoms: N2_8  and  C5_10 
REMARK    5  A    between atoms: C5_10  and  N3_12 
REMARK    6  A    between atoms: N3_12  and  C6_14 
REMARK    7  A    between atoms: C6_14  and  C7_15 
ROOT
HETATM    1  C5  UNL     1      -1.293  13.018   7.015  1.00  0.00     0.167 C 
HETATM    2  S1  UNL     1      -1.151  12.534   5.474  1.00  0.00    -0.041 SA
ENDROOT
BRANCH   1   3
HETATM    3  N2  UNL     1      -0.266  12.907   7.974  1.00  0.00    -0.365 N 
ATOM      4  H2  UNL     1       0.532  13.528   7.846  1.00  0.00     0.161 HD
BRANCH   3   5
HETATM    5  C4  UNL     1      -0.201  12.043   9.090  1.00  0.00     0.154 C 
BRANCH   5   6
HETATM    6  C2  UNL     1      -0.473  10.607   8.925  1.00  0.00     0.199 C 
HETATM    7  C3  UNL     1       0.519  10.066   7.879  1.00  0.00     0.041 C 
BRANCH   6   8
HETATM    8  N1  UNL     1      -1.799  10.191   8.662  1.00  0.00    -0.074 N 
HETATM    9  C1  UNL     1      -1.835   9.476   7.377  1.00  0.00     0.267 C 
ATOM     10  H12 UNL     1      -2.461  10.965   8.694  1.00  0.00     0.277 HD
ATOM     11  H11 UNL     1      -2.189   9.636   9.425  1.00  0.00     0.277 HD
ENDBRANCH   6   8
ENDBRANCH   5   6
ENDBRANCH   3   5
ENDBRANCH   1   3
BRANCH   1  12
HETATM   12  N3  UNL     1      -2.525  13.628   7.381  1.00  0.00    -0.362 N 
ATOM     13  H3  UNL     1      -2.540  14.532   7.854  1.00  0.00     0.162 HD
BRANCH  12  14
HETATM   14  C6  UNL     1      -3.751  12.941   7.069  1.00  0.00     0.179 C 
BRANCH  14  15
HETATM   15  C7  UNL     1      -4.709  12.852   8.180  1.00  0.00     0.026 A 
HETATM   16  C8  UNL     1      -4.235  13.018   9.473  1.00  0.00     0.027 A 
HETATM   17  C9  UNL     1      -5.163  12.919  10.485  1.00  0.00     0.003 A 
HETATM   18  C10 UNL     1      -6.482  12.669  10.205  1.00  0.00     0.017 A 
HETATM   19  C11 UNL     1      -6.938  12.505   8.904  1.00  0.00     0.088 A 
HETATM   20  N4  UNL     1      -6.001  12.608   7.935  1.00  0.00    -0.368 N 
ATOM     21  H4  UNL     1      -6.295  12.493   6.965  1.00  0.00     0.165 HD
ENDBRANCH  14  15
ENDBRANCH  12  14
ENDBRANCH   1  12
TORSDOF 7
ENDMDL
MODEL 3
REMARK VINA RESULT: -6.400267086      1.127      1.506
REMARK  7 active torsions:
REMARK  status: ('A' for Active; 'I' for Inactive)
REMARK    1  A    between atoms: N1_2  and  C2_5 
REMARK    2  A    between atoms: C2_5  and  C4_7 
REMARK    3  A    between atoms: C4_7  and  N2_8 
REMARK    4  A    between atoms: N2_8  and  C5_10 
REMARK    5  A    between atoms: C5_10  and  N3_12 
REMARK    6  A    between atoms: N3_12  and  C6_14 
REMARK    7  A    between atoms: C6_14  and  C7_15 
ROOT
HETATM    1  C5  UNL     1      -1.737  12.201   6.309  1.00  0.00     0.167 C 
HETATM    2  S1  UNL     1      -0.987  12.552   4.915  1.00  0.00    -0.041 SA
ENDROOT
BRANCH   1   3
HETATM    3  N2  UNL     1      -1.615  10.968   6.980  1.00  0.00    -0.365 N 
ATOM      4  H2  UNL     1      -2.480  10.574   7.348  1.00  0.00     0.161 HD
BRANCH   3   5
HETATM    5  C4  UNL     1      -0.447  10.208   7.209  1.00  0.00     0.154 C 
BRANCH   5   6
HETATM    6  C2  UNL     1       0.578  10.698   8.144  1.00  0.00     0.199 C 
HETATM    7  C3  UNL     1      -0.153  11.292   9.361  1.00  0.00     0.041 C 
BRANCH   6   8
HETATM    8  N1  UNL     1       1.586  11.563   7.657  1.00  0.00    -0.074 N 
HETATM    9  C1  UNL     1       1.534  12.832   8.400  1.00  0.00     0.267 C 
ATOM     10  H12 UNL     1       1.524  11.701   6.649  1.00  0.00     0.277 HD
ATOM     11  H11 UNL     1       2.512  11.135   7.687  1.00  0.00     0.277 HD
ENDBRANCH   6   8
ENDBRANCH   5   6
ENDBRANCH   3   5
ENDBRANCH   1   3
BRANCH   1  12
HETATM   12  N3  UNL     1      -2.524  13.236   6.889  1.00  0.00    -0.362 N 
ATOM     13  H3  UNL     1      -2.084  14.008   7.390  1.00  0.00     0.162 HD
BRANCH  12  14
HETATM   14  C6  UNL     1      -3.955  13.168   6.751  1.00  0.00     0.179 C 
BRANCH  14  15
HETATM   15  C7  UNL     1      -4.688  12.985   8.012  1.00  0.00     0.026 A 
HETATM   16  C8  UNL     1      -4.001  13.155   9.204  1.00  0.00     0.027 A 
HETATM   17  C9  UNL     1      -4.722  12.966  10.362  1.00  0.00     0.003 A 
HETATM   18  C10 UNL     1      -6.050  12.628  10.313  1.00  0.00     0.017 A 
HETATM   19  C11 UNL     1      -6.722  12.461   9.109  1.00  0.00     0.088 A 
HETATM   20  N4  UNL     1      -5.984  12.654   7.993  1.00  0.00    -0.368 N 
ATOM     21  H4  UNL     1      -6.441  12.540   7.088  1.00  0.00     0.165 HD
ENDBRANCH  14  15
ENDBRANCH  12  14
ENDBRANCH   1  12
TORSDOF 7
ENDMDL
MODEL 4
REMARK VINA RESULT: -6.398026650      1.415      5.346
REMARK  7 active torsions:
REMARK  status: ('A' for Active; 'I' for Inactive)
REMARK    1  A    between atoms: N1_2  and  C2_5 
REMARK    2  A    between atoms: C2_5  and  C4_7 
REMARK    3  A    between atoms: C4_7  and  N2_8 
REMARK    4  A    between atoms: N2_8  and  C5_10 
REMARK    5  A    between atoms: C5_10  and  N3_12 
REMARK    6  A    between atoms: N3_12  and  C6_14 
REMARK    7  A    between atoms: C6_14  and  C7_15 
ROOT
HETATM    1  C5  UNL     1      -3.001  13.686   5.244  1.00  0.00     0.167 C 
HETATM    2  S1  UNL     1      -3.331  14.856   4.171  1.00  0.00    -0.041 SA
ENDROOT
BRANCH   1   3
HETATM    3  N2  UNL     1      -3.335  13.753   6.612  1.00  0.00    -0.365 N 
ATOM      4  H2  UNL     1      -2.829  14.449   7.159  1.00  0.00     0.161 HD
BRANCH   3   5
HETATM    5  C4  UNL     1      -4.281  12.980   7.320  1.00  0.00     0.154 C 
BRANCH   5   6
HETATM    6  C2  UNL     1      -4.185  12.860   8.784  1.00  0.00     0.199 C 
HETATM    7  C3  UNL     1      -2.692  12.760   9.143  1.00  0.00     0.041 C 
BRANCH   6   8
HETATM    8  N1  UNL     1      -4.955  11.870   9.437  1.00  0.00    -0.074 N 
HETATM    9  C1  UNL     1      -6.009  12.521  10.229  1.00  0.00     0.267 C 
ATOM     10  H12 UNL     1      -4.380  11.241   9.999  1.00  0.00     0.277 HD
ATOM     11  H11 UNL     1      -5.330  11.178   8.787  1.00  0.00     0.277 HD
ENDBRANCH   6   8
ENDBRANCH   5   6
ENDBRANCH   3   5
ENDBRANCH   1   3
BRANCH   1  12
HETATM   12  N3  UNL     1      -2.376  12.512   4.737  1.00  0.00    -0.362 N 
ATOM     13  H3  UNL     1      -2.909  11.826   4.202  1.00  0.00     0.162 HD
BRANCH  12  14
HETATM   14  C6  UNL     1      -0.973  12.317   4.994  1.00  0.00     0.179 C 
BRANCH  14  15
HETATM   15  C7  UNL     1      -0.671  11.377   6.083  1.00  0.00     0.026 A 
HETATM   16  C8  UNL     1      -1.670  10.514   6.504  1.00  0.00     0.027 A 
HETATM   17  C9  UNL     1      -1.349   9.655   7.532  1.00  0.00     0.003 A 
HETATM   18  C10 UNL     1      -0.098   9.672   8.093  1.00  0.00     0.017 A 
HETATM   19  C11 UNL     1       0.891  10.544   7.658  1.00  0.00     0.088 A 
HETATM   20  N4  UNL     1       0.542  11.372   6.649  1.00  0.00    -0.368 N 
ATOM     21  H4  UNL     1       1.240  12.029   6.300  1.00  0.00     0.165 HD
ENDBRANCH  14  15
ENDBRANCH  12  14
ENDBRANCH   1  12
TORSDOF 7
ENDMDL
MODEL 5
REMARK VINA RESULT: -6.350045849      1.145      1.657
REMARK  7 active torsions:
REMARK  status: ('A' for Active; 'I' for Inactive)
REMARK    1  A    between atoms: N1_2  and  C2_5 
REMARK    2  A    between atoms: C2_5  and  C4_7 
REMARK    3  A    between atoms: C4_7  and  N2_8 
REMARK    4  A    between atoms: N2_8  and  C5_10 
REMARK    5  A    between atoms: C5_10  and  N3_12 
REMARK    6  A    between atoms: N3_12  and  C6_14 
REMARK    7  A    between atoms: C6_14  and  C7_15 
ROOT
HETATM    1  C5  UNL     1      -1.975  12.400   5.488  1.00  0.00     0.167 C 
HETATM    2  S1  UNL     1      -2.240  12.565   3.897  1.00  0.00    -0.041 SA
ENDROOT
BRANCH   1   3
HETATM    3  N2  UNL     1      -1.053  11.490   6.043  1.00  0.00    -0.365 N 
ATOM      4  H2  UNL     1      -1.400  10.543   6.196  1.00  0.00     0.161 HD
BRANCH   3   5
HETATM    5  C4  UNL     1       0.289  11.722   6.415  1.00  0.00     0.154 C 
BRANCH   5   6
HETATM    6  C2  UNL     1       0.946  10.837   7.390  1.00  0.00     0.199 C 
HETATM    7  C3  UNL     1      -0.120   9.863   7.923  1.00  0.00     0.041 C 
BRANCH   6   8
HETATM    8  N1  UNL     1       1.702  11.417   8.435  1.00  0.00    -0.074 N 
HETATM    9  C1  UNL     1       1.344  12.839   8.558  1.00  0.00     0.267 C 
ATOM     10  H12 UNL     1       2.705  11.280   8.310  1.00  0.00     0.277 HD
ATOM     11  H11 UNL     1       1.597  10.913   9.316  1.00  0.00     0.277 HD
ENDBRANCH   6   8
ENDBRANCH   5   6
ENDBRANCH   3   5
ENDBRANCH   1   3
BRANCH   1  12
HETATM   12  N3  UNL     1      -2.699  13.271   6.350  1.00  0.00    -0.362 N 
ATOM     13  H3  UNL     1      -2.223  14.017   6.858  1.00  0.00     0.162 HD
BRANCH  12  14
HETATM   14  C6  UNL     1      -4.119  13.076   6.488  1.00  0.00     0.179 C 
BRANCH  14  15
HETATM   15  C7  UNL     1      -4.598  12.993   7.875  1.00  0.00     0.026 A 
HETATM   16  C8  UNL     1      -5.912  12.610   8.095  1.00  0.00     0.027 A 
HETATM   17  C9  UNL     1      -6.324  12.553   9.408  1.00  0.00     0.003 A 
HETATM   18  C10 UNL     1      -5.460  12.862  10.428  1.00  0.00     0.017 A 
HETATM   19  C11 UNL     1      -4.147  13.244  10.187  1.00  0.00     0.088 A 
HETATM   20  N4  UNL     1      -3.777  13.290   8.888  1.00  0.00    -0.368 N 
ATOM     21  H4  UNL     1      -2.820  13.567   8.669  1.00  0.00     0.165 HD
ENDBRANCH  14  15
ENDBRANCH  12  14
ENDBRANCH   1  12
TORSDOF 7
ENDMDL
