MODEL 1
REMARK VINA RESULT: -6.854002096      0.000      0.000
REMARK  16 active torsions:
REMARK  status: ('A' for Active; 'I' for Inactive)
REMARK    1  A    between atoms: C2_2  and  C3_3 
REMARK    2  A    between atoms: C3_3  and  N1_4 
REMARK    3  A    between atoms: N1_4  and  C4_7 
REMARK    4  A    between atoms: C4_7  and  C5_8 
REMARK    5  A    between atoms: C5_8  and  C6_9 
REMARK    6  A    between atoms: C5_8  and  N2_12 
REMARK    7  A    between atoms: C6_9  and  C7_10 
REMARK    8  A    between atoms: N2_12  and  N3_13 
REMARK       I    between atoms: N2_12  and  C10_17 
REMARK    9  A    between atoms: C10_17  and  C11_19 
REMARK   10  A    between atoms: C11_19  and  C12_20 
REMARK   11  A    between atoms: C12_20  and  N5_21 
REMARK   12  A    between atoms: N5_21  and  C13_23 
REMARK   13  A    between atoms: C13_23  and  C14_24 
REMARK   14  A    between atoms: C14_24  and  C15_25 
REMARK   15  A    between atoms: C15_25  and  N6_26 
REMARK   16  A    between atoms: N6_26  and  C16_28 
ROOT
HETATM    1  N2  UNL     1      -8.812  31.338  -4.863  1.00  0.00    -0.230 N 
HETATM    2  C10 UNL     1      -9.099  30.546  -3.748  1.00  0.00     0.244 C 
HETATM    3  O1  UNL     1     -10.213  30.754  -3.139  1.00  0.00    -0.271 OA
ENDROOT
BRANCH   2   4
HETATM    4  C11 UNL     1      -8.266  29.473  -3.155  1.00  0.00     0.124 C 
BRANCH   4   5
HETATM    5  C12 UNL     1      -8.734  28.101  -3.611  1.00  0.00     0.123 C 
BRANCH   5   6
HETATM    6  N5  UNL     1      -9.886  27.648  -2.928  1.00  0.00    -0.421 N 
ATOM      7  H5  UNL     1     -10.043  27.890  -1.949  1.00  0.00     0.153 HD
BRANCH   6   8
HETATM    8  C13 UNL     1     -10.816  26.848  -3.635  1.00  0.00     0.115 C 
BRANCH   8   9
HETATM    9  C14 UNL     1     -12.083  27.594  -4.013  1.00  0.00     0.039 C 
BRANCH   9  10
HETATM   10  C15 UNL     1     -13.265  26.648  -3.764  1.00  0.00     0.123 C 
BRANCH  10  11
HETATM   11  N6  UNL     1     -14.486  27.374  -3.827  1.00  0.00    -0.376 N 
ATOM     12  H6  UNL     1     -14.821  27.646  -4.752  1.00  0.00     0.161 HD
BRANCH  11  13
HETATM   13  C16 UNL     1     -15.206  27.719  -2.817  1.00  0.00     0.100 A 
HETATM   14  C17 UNL     1     -16.506  28.133  -3.045  1.00  0.00     0.048 A 
HETATM   15  C18 UNL     1     -17.356  28.520  -2.021  1.00  0.00     0.005 A 
HETATM   16  C19 UNL     1     -16.907  28.498  -0.731  1.00  0.00     0.017 A 
HETATM   17  C20 UNL     1     -15.607  28.081  -0.527  1.00  0.00     0.089 A 
HETATM   18  N7  UNL     1     -14.782  27.704  -1.538  1.00  0.00    -0.353 N 
ATOM     19  H7  UNL     1     -13.830  27.404  -1.327  1.00  0.00     0.166 HD
ENDBRANCH  11  13
ENDBRANCH  10  11
ENDBRANCH   9  10
ENDBRANCH   8   9
ENDBRANCH   6   8
ENDBRANCH   5   6
ENDBRANCH   4   5
ENDBRANCH   2   4
BRANCH   1  20
HETATM   20  C5  UNL     1      -7.685  31.305  -5.738  1.00  0.00     0.044 C 
BRANCH  20  21
HETATM   21  C4  UNL     1      -7.793  30.179  -6.750  1.00  0.00     0.287 C 
BRANCH  21  22
HETATM   22  N1  UNL     1      -7.841  30.625  -8.111  1.00  0.00    -0.067 N 
ATOM     23  H12 UNL     1      -7.599  31.613  -8.177  1.00  0.00     0.277 HD
ATOM     24  H11 UNL     1      -8.804  30.664  -8.446  1.00  0.00     0.277 HD
BRANCH  22  25
HETATM   25  C3  UNL     1      -7.035  29.848  -8.984  1.00  0.00     0.259 C 
BRANCH  25  26
HETATM   26  C2  UNL     1      -6.276  30.698  -9.917  1.00  0.00    -0.010 C 
HETATM   27  C1  UNL     1      -5.330  30.136 -10.672  1.00  0.00     0.008 C 
ENDBRANCH  25  26
ENDBRANCH  22  25
ENDBRANCH  21  22
ENDBRANCH  20  21
BRANCH  20  28
HETATM   28  C6  UNL     1      -6.355  31.510  -5.132  1.00  0.00     0.083 C 
BRANCH  28  29
HETATM   29  C7  UNL     1      -5.320  32.124  -5.982  1.00  0.00    -0.031 C 
HETATM   30  C8  UNL     1      -4.346  32.892  -5.450  1.00  0.00     0.007 C 
ENDBRANCH  28  29
ENDBRANCH  20  28
ENDBRANCH   1  20
BRANCH   1  31
HETATM   31  N3  UNL     1      -9.810  32.321  -5.168  1.00  0.00    -0.289 N 
HETATM   32  C9  UNL     1      -9.428  33.541  -5.123  1.00  0.00     0.207 C 
HETATM   33  N4  UNL     1     -10.410  34.529  -5.424  1.00  0.00    -0.095 NA
ATOM     34  H3  UNL     1     -10.767  32.063  -5.405  1.00  0.00     0.188 HD
ENDBRANCH   1  31
TORSDOF 16
ENDMDL
MODEL 2
REMARK VINA RESULT: -6.811037335      1.256      1.407
REMARK  16 active torsions:
REMARK  status: ('A' for Active; 'I' for Inactive)
REMARK    1  A    between atoms: C2_2  and  C3_3 
REMARK    2  A    between atoms: C3_3  and  N1_4 
REMARK    3  A    between atoms: N1_4  and  C4_7 
REMARK    4  A    between atoms: C4_7  and  C5_8 
REMARK    5  A    between atoms: C5_8  and  C6_9 
REMARK    6  A    between atoms: C5_8  and  N2_12 
REMARK    7  A    between atoms: C6_9  and  C7_10 
REMARK    8  A    between atoms: N2_12  and  N3_13 
REMARK       I    between atoms: N2_12  and  C10_17 
REMARK    9  A    between atoms: C10_17  and  C11_19 
REMARK   10  A    between atoms: C11_19  and  C12_20 
REMARK   11  A    between atoms: C12_20  and  N5_21 
REMARK   12  A    between atoms: N5_21  and  C13_23 
REMARK   13  A    between atoms: C13_23  and  C14_24 
REMARK   14  A    between atoms: C14_24  and  C15_25 
REMARK   15  A    between atoms: C15_25  and  N6_26 
REMARK   16  A    between atoms: N6_26  and  C16_28 
ROOT
HETATM    1  N2  UNL     1      -9.051  31.344  -5.959  1.00  0.00    -0.230 N 
HETATM    2  C10 UNL     1      -9.113  30.660  -4.742  1.00  0.00     0.244 C 
HETATM    3  O1  UNL     1     -10.255  30.594  -4.153  1.00  0.00    -0.271 OA
ENDROOT
BRANCH   2   4
HETATM    4  C11 UNL     1      -8.009  29.987  -4.017  1.00  0.00     0.124 C 
BRANCH   4   5
HETATM    5  C12 UNL     1      -8.236  28.487  -3.945  1.00  0.00     0.123 C 
BRANCH   5   6
HETATM    6  N5  UNL     1      -9.244  28.117  -3.025  1.00  0.00    -0.421 N 
ATOM      7  H5  UNL     1      -9.461  28.707  -2.222  1.00  0.00     0.153 HD
BRANCH   6   8
HETATM    8  C13 UNL     1      -9.945  26.906  -3.246  1.00  0.00     0.115 C 
BRANCH   8   9
HETATM    9  C14 UNL     1     -11.244  27.096  -4.008  1.00  0.00     0.039 C 
BRANCH   9  10
HETATM   10  C15 UNL     1     -12.254  27.732  -3.044  1.00  0.00     0.123 C 
BRANCH  10  11
HETATM   11  N6  UNL     1     -13.474  27.001  -3.074  1.00  0.00    -0.376 N 
ATOM     12  H6  UNL     1     -13.436  26.042  -3.419  1.00  0.00     0.161 HD
BRANCH  11  13
HETATM   13  C16 UNL     1     -14.623  27.447  -2.702  1.00  0.00     0.100 A 
HETATM   14  C17 UNL     1     -15.579  27.693  -3.671  1.00  0.00     0.048 A 
HETATM   15  C18 UNL     1     -16.844  28.170  -3.366  1.00  0.00     0.005 A 
HETATM   16  C19 UNL     1     -17.175  28.412  -2.063  1.00  0.00     0.017 A 
HETATM   17  C20 UNL     1     -16.206  28.158  -1.113  1.00  0.00     0.089 A 
HETATM   18  N7  UNL     1     -14.969  27.691  -1.423  1.00  0.00    -0.353 N 
ATOM     19  H7  UNL     1     -14.292  27.522  -0.678  1.00  0.00     0.166 HD
ENDBRANCH  11  13
ENDBRANCH  10  11
ENDBRANCH   9  10
ENDBRANCH   8   9
ENDBRANCH   6   8
ENDBRANCH   5   6
ENDBRANCH   4   5
ENDBRANCH   2   4
BRANCH   1  20
HETATM   20  C5  UNL     1      -7.943  31.543  -6.836  1.00  0.00     0.044 C 
BRANCH  20  21
HETATM   21  C4  UNL     1      -7.472  30.238  -7.450  1.00  0.00     0.287 C 
BRANCH  21  22
HETATM   22  N1  UNL     1      -7.873  30.060  -8.814  1.00  0.00    -0.067 N 
ATOM     23  H12 UNL     1      -8.874  30.226  -8.922  1.00  0.00     0.277 HD
ATOM     24  H11 UNL     1      -7.836  29.076  -9.078  1.00  0.00     0.277 HD
BRANCH  22  25
HETATM   25  C3  UNL     1      -7.130  30.855  -9.726  1.00  0.00     0.259 C 
BRANCH  25  26
HETATM   26  C2  UNL     1      -5.758  30.344  -9.895  1.00  0.00    -0.010 C 
HETATM   27  C1  UNL     1      -5.254  30.257 -11.127  1.00  0.00     0.008 C 
ENDBRANCH  25  26
ENDBRANCH  22  25
ENDBRANCH  21  22
ENDBRANCH  20  21
BRANCH  20  28
HETATM   28  C6  UNL     1      -6.885  32.470  -6.386  1.00  0.00     0.083 C 
BRANCH  28  29
HETATM   29  C7  UNL     1      -5.542  31.901  -6.175  1.00  0.00    -0.031 C 
HETATM   30  C8  UNL     1      -4.550  32.639  -5.634  1.00  0.00     0.007 C 
ENDBRANCH  28  29
ENDBRANCH  20  28
ENDBRANCH   1  20
BRANCH   1  31
HETATM   31  N3  UNL     1     -10.293  31.920  -6.383  1.00  0.00    -0.289 N 
HETATM   32  C9  UNL     1     -10.834  31.392  -7.414  1.00  0.00     0.207 C 
HETATM   33  N4  UNL     1     -12.070  31.956  -7.846  1.00  0.00    -0.095 NA
ATOM     34  H3  UNL     1     -10.720  32.705  -5.891  1.00  0.00     0.188 HD
ENDBRANCH   1  31
TORSDOF 16
ENDMDL
MODEL 3
REMARK VINA RESULT: -6.713963945      2.791     10.064
REMARK  16 active torsions:
REMARK  status: ('A' for Active; 'I' for Inactive)
REMARK    1  A    between atoms: C2_2  and  C3_3 
REMARK    2  A    between atoms: C3_3  and  N1_4 
REMARK    3  A    between atoms: N1_4  and  C4_7 
REMARK    4  A    between atoms: C4_7  and  C5_8 
REMARK    5  A    between atoms: C5_8  and  C6_9 
REMARK    6  A    between atoms: C5_8  and  N2_12 
REMARK    7  A    between atoms: C6_9  and  C7_10 
REMARK    8  A    between atoms: N2_12  and  N3_13 
REMARK       I    between atoms: N2_12  and  C10_17 
REMARK    9  A    between atoms: C10_17  and  C11_19 
REMARK   10  A    between atoms: C11_19  and  C12_20 
REMARK   11  A    between atoms: C12_20  and  N5_21 
REMARK   12  A    between atoms: N5_21  and  C13_23 
REMARK   13  A    between atoms: C13_23  and  C14_24 
REMARK   14  A    between atoms: C14_24  and  C15_25 
REMARK   15  A    between atoms: C15_25  and  N6_26 
REMARK   16  A    between atoms: N6_26  and  C16_28 
ROOT
HETATM    1  N2  UNL     1     -12.255  28.044  -3.325  1.00  0.00    -0.230 N 
HETATM    2  C10 UNL     1     -11.581  29.047  -4.027  1.00  0.00     0.244 C 
HETATM    3  O1  UNL     1     -10.409  28.773  -4.479  1.00  0.00    -0.271 OA
ENDROOT
BRANCH   2   4
HETATM    4  C11 UNL     1     -12.049  30.421  -4.325  1.00  0.00     0.124 C 
BRANCH   4   5
HETATM    5  C12 UNL     1     -11.149  31.097  -5.346  1.00  0.00     0.123 C 
BRANCH   5   6
HETATM    6  N5  UNL     1     -11.364  30.644  -6.668  1.00  0.00    -0.421 N 
ATOM      7  H5  UNL     1     -11.514  29.654  -6.863  1.00  0.00     0.153 HD
BRANCH   6   8
HETATM    8  C13 UNL     1     -11.366  31.599  -7.714  1.00  0.00     0.115 C 
BRANCH   8   9
HETATM    9  C14 UNL     1     -10.285  32.653  -7.565  1.00  0.00     0.039 C 
BRANCH   9  10
HETATM   10  C15 UNL     1      -8.982  32.056  -8.113  1.00  0.00     0.123 C 
BRANCH  10  11
HETATM   11  N6  UNL     1      -8.954  32.177  -9.530  1.00  0.00    -0.376 N 
ATOM     12  H6  UNL     1      -9.518  31.518 -10.065  1.00  0.00     0.161 HD
BRANCH  11  13
HETATM   13  C16 UNL     1      -8.277  33.048 -10.195  1.00  0.00     0.100 A 
HETATM   14  C17 UNL     1      -8.959  34.083 -10.808  1.00  0.00     0.048 A 
HETATM   15  C18 UNL     1      -8.316  35.067 -11.542  1.00  0.00     0.005 A 
HETATM   16  C19 UNL     1      -6.957  35.027 -11.674  1.00  0.00     0.017 A 
HETATM   17  C20 UNL     1      -6.298  33.985 -11.053  1.00  0.00     0.089 A 
HETATM   18  N7  UNL     1      -6.937  33.025 -10.336  1.00  0.00    -0.353 N 
ATOM     19  H7  UNL     1      -6.397  32.279  -9.899  1.00  0.00     0.166 HD
ENDBRANCH  11  13
ENDBRANCH  10  11
ENDBRANCH   9  10
ENDBRANCH   8   9
ENDBRANCH   6   8
ENDBRANCH   5   6
ENDBRANCH   4   5
ENDBRANCH   2   4
BRANCH   1  20
HETATM   20  C5  UNL     1     -13.561  28.055  -2.749  1.00  0.00     0.044 C 
BRANCH  20  21
HETATM   21  C4  UNL     1     -14.643  28.004  -3.812  1.00  0.00     0.287 C 
BRANCH  21  22
HETATM   22  N1  UNL     1     -15.835  27.329  -3.393  1.00  0.00    -0.067 N 
ATOM     23  H12 UNL     1     -15.692  26.860  -2.499  1.00  0.00     0.277 HD
ATOM     24  H11 UNL     1     -16.017  26.516  -3.982  1.00  0.00     0.277 HD
BRANCH  22  25
HETATM   25  C3  UNL     1     -16.972  28.178  -3.341  1.00  0.00     0.259 C 
BRANCH  25  26
HETATM   26  C2  UNL     1     -17.365  28.470  -1.952  1.00  0.00    -0.010 C 
HETATM   27  C1  UNL     1     -18.460  29.200  -1.736  1.00  0.00     0.008 C 
ENDBRANCH  25  26
ENDBRANCH  22  25
ENDBRANCH  21  22
ENDBRANCH  20  21
BRANCH  20  28
HETATM   28  C6  UNL     1     -13.795  28.984  -1.626  1.00  0.00     0.083 C 
BRANCH  28  29
HETATM   29  C7  UNL     1     -13.658  28.437  -0.265  1.00  0.00    -0.031 C 
HETATM   30  C8  UNL     1     -14.712  28.392   0.577  1.00  0.00     0.007 C 
ENDBRANCH  28  29
ENDBRANCH  20  28
ENDBRANCH   1  20
BRANCH   1  31
HETATM   31  N3  UNL     1     -11.516  26.825  -3.172  1.00  0.00    -0.289 N 
HETATM   32  C9  UNL     1     -11.731  25.924  -4.054  1.00  0.00     0.207 C 
HETATM   33  N4  UNL     1     -11.003  24.707  -3.914  1.00  0.00    -0.095 NA
ATOM     34  H3  UNL     1     -10.859  26.684  -2.405  1.00  0.00     0.188 HD
ENDBRANCH   1  31
TORSDOF 16
ENDMDL
MODEL 4
REMARK VINA RESULT: -6.701900534      2.730      4.099
REMARK  16 active torsions:
REMARK  status: ('A' for Active; 'I' for Inactive)
REMARK    1  A    between atoms: C2_2  and  C3_3 
REMARK    2  A    between atoms: C3_3  and  N1_4 
REMARK    3  A    between atoms: N1_4  and  C4_7 
REMARK    4  A    between atoms: C4_7  and  C5_8 
REMARK    5  A    between atoms: C5_8  and  C6_9 
REMARK    6  A    between atoms: C5_8  and  N2_12 
REMARK    7  A    between atoms: C6_9  and  C7_10 
REMARK    8  A    between atoms: N2_12  and  N3_13 
REMARK       I    between atoms: N2_12  and  C10_17 
REMARK    9  A    between atoms: C10_17  and  C11_19 
REMARK   10  A    between atoms: C11_19  and  C12_20 
REMARK   11  A    between atoms: C12_20  and  N5_21 
REMARK   12  A    between atoms: N5_21  and  C13_23 
REMARK   13  A    between atoms: C13_23  and  C14_24 
REMARK   14  A    between atoms: C14_24  and  C15_25 
REMARK   15  A    between atoms: C15_25  and  N6_26 
REMARK   16  A    between atoms: N6_26  and  C16_28 
ROOT
HETATM    1  N2  UNL     1      -8.216  30.703  -2.478  1.00  0.00    -0.230 N 
HETATM    2  C10 UNL     1      -9.213  29.961  -3.118  1.00  0.00     0.244 C 
HETATM    3  O1  UNL     1     -10.437  30.267  -2.866  1.00  0.00    -0.271 OA
ENDROOT
BRANCH   2   4
HETATM    4  C11 UNL     1      -9.044  28.838  -4.069  1.00  0.00     0.124 C 
BRANCH   4   5
HETATM    5  C12 UNL     1      -8.886  27.517  -3.334  1.00  0.00     0.123 C 
BRANCH   5   6
HETATM    6  N5  UNL     1     -10.115  26.967  -2.903  1.00  0.00    -0.421 N 
ATOM      7  H5  UNL     1     -10.396  27.017  -1.924  1.00  0.00     0.153 HD
BRANCH   6   8
HETATM    8  C13 UNL     1     -10.947  26.344  -3.865  1.00  0.00     0.115 C 
BRANCH   8   9
HETATM    9  C14 UNL     1     -12.428  26.546  -3.599  1.00  0.00     0.039 C 
BRANCH   9  10
HETATM   10  C15 UNL     1     -12.800  27.943  -4.113  1.00  0.00     0.123 C 
BRANCH  10  11
HETATM   11  N6  UNL     1     -12.989  28.827  -3.014  1.00  0.00    -0.376 N 
ATOM     12  H6  UNL     1     -12.431  29.681  -3.002  1.00  0.00     0.161 HD
BRANCH  11  13
HETATM   13  C16 UNL     1     -13.803  28.642  -2.035  1.00  0.00     0.100 A 
HETATM   14  C17 UNL     1     -15.153  28.527  -2.312  1.00  0.00     0.048 A 
HETATM   15  C18 UNL     1     -16.103  28.324  -1.324  1.00  0.00     0.005 A 
HETATM   16  C19 UNL     1     -15.706  28.233  -0.019  1.00  0.00     0.017 A 
HETATM   17  C20 UNL     1     -14.354  28.350   0.234  1.00  0.00     0.089 A 
HETATM   18  N7  UNL     1     -13.431  28.549  -0.743  1.00  0.00    -0.353 N 
ATOM     19  H7  UNL     1     -12.445  28.628  -0.495  1.00  0.00     0.166 HD
ENDBRANCH  11  13
ENDBRANCH  10  11
ENDBRANCH   9  10
ENDBRANCH   8   9
ENDBRANCH   6   8
ENDBRANCH   5   6
ENDBRANCH   4   5
ENDBRANCH   2   4
BRANCH   1  20
HETATM   20  C5  UNL     1      -6.797  30.610  -2.593  1.00  0.00     0.044 C 
BRANCH  20  21
HETATM   21  C4  UNL     1      -6.160  30.120  -1.306  1.00  0.00     0.287 C 
BRANCH  21  22
HETATM   22  N1  UNL     1      -4.840  29.591  -1.476  1.00  0.00    -0.067 N 
ATOM     23  H12 UNL     1      -4.574  29.589  -2.461  1.00  0.00     0.277 HD
ATOM     24  H11 UNL     1      -4.826  28.587  -1.296  1.00  0.00     0.277 HD
BRANCH  22  25
HETATM   25  C3  UNL     1      -3.863  30.258  -0.692  1.00  0.00     0.259 C 
BRANCH  25  26
HETATM   26  C2  UNL     1      -2.714  30.687  -1.509  1.00  0.00    -0.010 C 
HETATM   27  C1  UNL     1      -2.659  31.953  -1.924  1.00  0.00     0.008 C 
ENDBRANCH  25  26
ENDBRANCH  22  25
ENDBRANCH  21  22
ENDBRANCH  20  21
BRANCH  20  28
HETATM   28  C6  UNL     1      -6.102  31.715  -3.284  1.00  0.00     0.083 C 
BRANCH  28  29
HETATM   29  C7  UNL     1      -5.882  31.566  -4.733  1.00  0.00    -0.031 C 
HETATM   30  C8  UNL     1      -4.993  32.343  -5.387  1.00  0.00     0.007 C 
ENDBRANCH  28  29
ENDBRANCH  20  28
ENDBRANCH   1  20
BRANCH   1  31
HETATM   31  N3  UNL     1      -8.705  31.709  -1.582  1.00  0.00    -0.289 N 
HETATM   32  C9  UNL     1      -9.024  31.310  -0.410  1.00  0.00     0.207 C 
HETATM   33  N4  UNL     1      -9.510  32.301   0.492  1.00  0.00    -0.095 NA
ATOM     34  H3  UNL     1      -8.792  32.686  -1.862  1.00  0.00     0.188 HD
ENDBRANCH   1  31
TORSDOF 16
ENDMDL
MODEL 5
REMARK VINA RESULT: -6.608887539      4.611      8.472
REMARK  16 active torsions:
REMARK  status: ('A' for Active; 'I' for Inactive)
REMARK    1  A    between atoms: C2_2  and  C3_3 
REMARK    2  A    between atoms: C3_3  and  N1_4 
REMARK    3  A    between atoms: N1_4  and  C4_7 
REMARK    4  A    between atoms: C4_7  and  C5_8 
REMARK    5  A    between atoms: C5_8  and  C6_9 
REMARK    6  A    between atoms: C5_8  and  N2_12 
REMARK    7  A    between atoms: C6_9  and  C7_10 
REMARK    8  A    between atoms: N2_12  and  N3_13 
REMARK       I    between atoms: N2_12  and  C10_17 
REMARK    9  A    between atoms: C10_17  and  C11_19 
REMARK   10  A    between atoms: C11_19  and  C12_20 
REMARK   11  A    between atoms: C12_20  and  N5_21 
REMARK   12  A    between atoms: N5_21  and  C13_23 
REMARK   13  A    between atoms: C13_23  and  C14_24 
REMARK   14  A    between atoms: C14_24  and  C15_25 
REMARK   15  A    between atoms: C15_25  and  N6_26 
REMARK   16  A    between atoms: N6_26  and  C16_28 
ROOT
HETATM    1  N2  UNL     1      -6.520  31.343  -1.772  1.00  0.00    -0.230 N 
HETATM    2  C10 UNL     1      -5.819  32.218  -2.608  1.00  0.00     0.244 C 
HETATM    3  O1  UNL     1      -6.142  33.462  -2.572  1.00  0.00    -0.271 OA
ENDROOT
BRANCH   2   4
HETATM    4  C11 UNL     1      -4.729  31.892  -3.558  1.00  0.00     0.124 C 
BRANCH   4   5
HETATM    5  C12 UNL     1      -5.065  32.368  -4.961  1.00  0.00     0.123 C 
BRANCH   5   6
HETATM    6  N5  UNL     1      -6.212  31.743  -5.504  1.00  0.00    -0.421 N 
ATOM      7  H5  UNL     1      -6.981  31.448  -4.902  1.00  0.00     0.153 HD
BRANCH   6   8
HETATM    8  C13 UNL     1      -6.266  31.537  -6.904  1.00  0.00     0.115 C 
BRANCH   8   9
HETATM    9  C14 UNL     1      -7.292  30.498  -7.317  1.00  0.00     0.039 C 
BRANCH   9  10
HETATM   10  C15 UNL     1      -7.432  30.572  -8.843  1.00  0.00     0.123 C 
BRANCH  10  11
HETATM   11  N6  UNL     1      -8.540  31.397  -9.186  1.00  0.00    -0.376 N 
ATOM     12  H6  UNL     1      -9.461  31.097  -8.866  1.00  0.00     0.161 HD
BRANCH  11  13
HETATM   13  C16 UNL     1      -8.480  32.488  -9.866  1.00  0.00     0.100 A 
HETATM   14  C17 UNL     1      -9.663  33.122 -10.200  1.00  0.00     0.048 A 
HETATM   15  C18 UNL     1      -9.698  34.301 -10.927  1.00  0.00     0.005 A 
HETATM   16  C19 UNL     1      -8.526  34.873 -11.336  1.00  0.00     0.017 A 
HETATM   17  C20 UNL     1      -7.358  34.223 -10.992  1.00  0.00     0.089 A 
HETATM   18  N7  UNL     1      -7.335  33.067 -10.279  1.00  0.00    -0.353 N 
ATOM     19  H7  UNL     1      -6.441  32.631 -10.053  1.00  0.00     0.166 HD
ENDBRANCH  11  13
ENDBRANCH  10  11
ENDBRANCH   9  10
ENDBRANCH   8   9
ENDBRANCH   6   8
ENDBRANCH   5   6
ENDBRANCH   4   5
ENDBRANCH   2   4
BRANCH   1  20
HETATM   20  C5  UNL     1      -6.355  29.939  -1.581  1.00  0.00     0.044 C 
BRANCH  20  21
HETATM   21  C4  UNL     1      -5.099  29.623  -0.790  1.00  0.00     0.287 C 
BRANCH  21  22
HETATM   22  N1  UNL     1      -4.713  30.658   0.122  1.00  0.00    -0.067 N 
ATOM     23  H12 UNL     1      -4.961  30.409   1.080  1.00  0.00     0.277 HD
ATOM     24  H11 UNL     1      -5.301  31.483   0.005  1.00  0.00     0.277 HD
BRANCH  22  25
HETATM   25  C3  UNL     1      -3.338  31.003   0.031  1.00  0.00     0.259 C 
BRANCH  25  26
HETATM   26  C2  UNL     1      -2.671  30.278  -1.065  1.00  0.00    -0.010 C 
HETATM   27  C1  UNL     1      -1.340  30.190  -1.058  1.00  0.00     0.008 C 
ENDBRANCH  25  26
ENDBRANCH  22  25
ENDBRANCH  21  22
ENDBRANCH  20  21
BRANCH  20  28
HETATM   28  C6  UNL     1      -6.633  29.063  -2.737  1.00  0.00     0.083 C 
BRANCH  28  29
HETATM   29  C7  UNL     1      -7.900  29.284  -3.454  1.00  0.00    -0.031 C 
HETATM   30  C8  UNL     1      -8.793  28.284  -3.616  1.00  0.00     0.007 C 
ENDBRANCH  28  29
ENDBRANCH  20  28
ENDBRANCH   1  20
BRANCH   1  31
HETATM   31  N3  UNL     1      -7.550  31.962  -0.991  1.00  0.00    -0.289 N 
HETATM   32  C9  UNL     1      -8.490  31.194  -0.591  1.00  0.00     0.207 C 
HETATM   33  N4  UNL     1      -9.520  31.797   0.187  1.00  0.00    -0.095 NA
ATOM     34  H3  UNL     1      -7.534  32.957  -0.767  1.00  0.00     0.188 HD
ENDBRANCH   1  31
TORSDOF 16
ENDMDL
