MODEL 1
REMARK VINA RESULT: -8.639831001      0.000      0.000
REMARK  18 active torsions:
REMARK  status: ('A' for Active; 'I' for Inactive)
REMARK    1  A    between atoms: C4_4  and  C5_5 
REMARK    2  A    between atoms: C5_5  and  N1_8 
REMARK    3  A    between atoms: N1_8  and  C8_11 
REMARK    4  A    between atoms: C8_11  and  C9_12 
REMARK    5  A    between atoms: C9_12  and  O1_13 
REMARK    6  A    between atoms: C9_12  and  C10_15 
REMARK    7  A    between atoms: C10_15  and  C12_22 
REMARK    8  A    between atoms: N2_16  and  O2_18 
REMARK    9  A    between atoms: O2_18  and  C11_19 
REMARK   10  A    between atoms: C12_22  and  N3_23 
REMARK   11  A    between atoms: C12_22  and  C13_27 
REMARK       I    between atoms: C13_27  and  N4_29 
REMARK   12  A    between atoms: N4_29  and  C14_31 
REMARK   13  A    between atoms: C15_32  and  O4_33 
REMARK   14  A    between atoms: C16_35  and  O5_36 
REMARK   15  A    between atoms: C17_38  and  O6_39 
REMARK   16  A    between atoms: C18_41  and  O7_42 
REMARK   17  A    between atoms: C19_44  and  N5_45 
REMARK   18  A    between atoms: N5_45  and  N6_46 
ROOT
HETATM    1  C12 UNL     1      44.247   1.447   4.745  1.00  0.00     0.324 C 
ENDROOT
BRANCH   1   2
HETATM    2  C10 UNL     1      42.953   1.525   5.454  1.00  0.00     0.080 C 
HETATM    3  N2  UNL     1      42.137   0.556   5.466  1.00  0.00    -0.264 N 
ATOM      4  H2  UNL     1      41.261   0.678   5.975  1.00  0.00     0.194 HD
BRANCH   2   5
HETATM    5  C9  UNL     1      42.609   2.778   6.166  1.00  0.00     0.194 C 
BRANCH   5   6
HETATM    6  C8  UNL     1      42.026   2.495   7.537  1.00  0.00     0.271 C 
BRANCH   6   7
HETATM    7  N1  UNL     1      40.652   2.884   7.530  1.00  0.00    -0.061 N 
ATOM      8  H12 UNL     1      40.261   2.828   6.589  1.00  0.00     0.278 HD
ATOM      9  H11 UNL     1      40.554   3.887   7.691  1.00  0.00     0.278 HD
BRANCH   7  10
HETATM   10  C5  UNL     1      39.849   2.127   8.473  1.00  0.00     0.136 C 
HETATM   11  C6  UNL     1      39.768   2.839   9.803  1.00  0.00     0.050 C 
HETATM   12  C7  UNL     1      40.593   0.817   8.698  1.00  0.00     0.050 C 
BRANCH  10  13
HETATM   13  C4  UNL     1      38.503   1.808   7.948  1.00  0.00     0.013 C 
HETATM   14  C2  UNL     1      37.731   2.628   7.276  1.00  0.00    -0.089 C 
HETATM   15  C1  UNL     1      36.366   2.210   6.779  1.00  0.00     0.042 C 
HETATM   16  C3  UNL     1      38.126   4.020   6.948  1.00  0.00     0.042 C 
ENDBRANCH  10  13
ENDBRANCH   7  10
ENDBRANCH   6   7
ENDBRANCH   5   6
BRANCH   5  17
HETATM   17  O1  UNL     1      43.740   3.571   6.349  1.00  0.00    -0.388 OA
ATOM     18  H1  UNL     1      43.931   3.991   5.519  1.00  0.00     0.210 HD
ENDBRANCH   5  17
ENDBRANCH   2   5
BRANCH   3  19
HETATM   19  O2  UNL     1      42.352  -0.647   4.842  1.00  0.00    -0.212 OA
BRANCH  19  20
HETATM   20  C11 UNL     1      42.024  -1.889   5.382  1.00  0.00     0.522 C 
HETATM   21  F1  UNL     1      41.023  -1.704   6.314  1.00  0.00    -0.183 F 
HETATM   22  F2  UNL     1      43.119  -2.548   5.919  1.00  0.00    -0.183 F 
ENDBRANCH  19  20
ENDBRANCH   3  19
ENDBRANCH   1   2
BRANCH   1  23
HETATM   23  N3  UNL     1      44.791   0.092   4.772  1.00  0.00    -0.061 N 
ATOM     24  H33 UNL     1      44.125  -0.585   4.402  1.00  0.00     0.275 HD
ATOM     25  H32 UNL     1      45.535  -0.026   4.085  1.00  0.00     0.275 HD
ATOM     26  H31 UNL     1      45.103  -0.166   5.708  1.00  0.00     0.275 HD
ENDBRANCH   1  23
BRANCH   1  27
HETATM   27  C13 UNL     1      44.199   1.981   3.361  1.00  0.00     0.254 C 
HETATM   28  O3  UNL     1      43.103   2.406   2.942  1.00  0.00    -0.271 OA
HETATM   29  N4  UNL     1      45.329   2.011   2.550  1.00  0.00    -0.350 N 
ATOM     30  H4  UNL     1      46.192   1.645   2.953  1.00  0.00     0.163 HD
BRANCH  29  31
HETATM   31  C14 UNL     1      45.406   2.510   1.190  1.00  0.00     0.139 C 
HETATM   32  C15 UNL     1      45.630   1.356   0.248  1.00  0.00     0.173 C 
HETATM   33  C16 UNL     1      45.749   1.943  -1.151  1.00  0.00     0.180 C 
HETATM   34  C17 UNL     1      47.094   2.631  -1.164  1.00  0.00     0.179 C 
HETATM   35  C18 UNL     1      47.248   3.678  -0.121  1.00  0.00     0.172 C 
HETATM   36  C19 UNL     1      46.334   3.643   1.038  1.00  0.00     0.155 C 
BRANCH  32  37
HETATM   37  O4  UNL     1      46.769   0.640   0.519  1.00  0.00    -0.391 OA
ATOM     38  H4  UNL     1      47.560   1.041   0.179  1.00  0.00     0.210 HD
ENDBRANCH  32  37
BRANCH  33  39
HETATM   39  O5  UNL     1      44.710   2.786  -1.465  1.00  0.00    -0.390 OA
ATOM     40  H5  UNL     1      44.856   3.264  -2.273  1.00  0.00     0.210 HD
ENDBRANCH  33  39
BRANCH  34  41
HETATM   41  O6  UNL     1      47.349   3.138  -2.459  1.00  0.00    -0.390 OA
ATOM     42  H6  UNL     1      48.159   3.636  -2.449  1.00  0.00     0.210 HD
ENDBRANCH  34  41
BRANCH  35  43
HETATM   43  O7  UNL     1      48.614   3.653   0.268  1.00  0.00    -0.391 OA
ATOM     44  H7  UNL     1      48.691   4.245   1.007  1.00  0.00     0.210 HD
ENDBRANCH  35  43
BRANCH  36  45
HETATM   45  N5  UNL     1      45.643   4.924   1.126  1.00  0.00    -0.139 NA
BRANCH  45  46
HETATM   46  N6  UNL     1      44.278   4.851   0.991  1.00  0.00    -0.348 N 
ATOM     47  H62 UNL     1      43.782   3.961   1.029  1.00  0.00     0.172 HD
ATOM     48  H61 UNL     1      43.814   5.749   0.852  1.00  0.00     0.172 HD
ENDBRANCH  45  46
ENDBRANCH  36  45
ENDBRANCH  29  31
ENDBRANCH   1  27
TORSDOF 18
ENDMDL
MODEL 2
REMARK VINA RESULT: -8.424105102      1.132      1.952
REMARK  18 active torsions:
REMARK  status: ('A' for Active; 'I' for Inactive)
REMARK    1  A    between atoms: C4_4  and  C5_5 
REMARK    2  A    between atoms: C5_5  and  N1_8 
REMARK    3  A    between atoms: N1_8  and  C8_11 
REMARK    4  A    between atoms: C8_11  and  C9_12 
REMARK    5  A    between atoms: C9_12  and  O1_13 
REMARK    6  A    between atoms: C9_12  and  C10_15 
REMARK    7  A    between atoms: C10_15  and  C12_22 
REMARK    8  A    between atoms: N2_16  and  O2_18 
REMARK    9  A    between atoms: O2_18  and  C11_19 
REMARK   10  A    between atoms: C12_22  and  N3_23 
REMARK   11  A    between atoms: C12_22  and  C13_27 
REMARK       I    between atoms: C13_27  and  N4_29 
REMARK   12  A    between atoms: N4_29  and  C14_31 
REMARK   13  A    between atoms: C15_32  and  O4_33 
REMARK   14  A    between atoms: C16_35  and  O5_36 
REMARK   15  A    between atoms: C17_38  and  O6_39 
REMARK   16  A    between atoms: C18_41  and  O7_42 
REMARK   17  A    between atoms: C19_44  and  N5_45 
REMARK   18  A    between atoms: N5_45  and  N6_46 
ROOT
HETATM    1  C12 UNL     1      44.354   1.401   4.868  1.00  0.00     0.324 C 
ENDROOT
BRANCH   1   2
HETATM    2  C10 UNL     1      43.030   1.090   5.447  1.00  0.00     0.080 C 
HETATM    3  N2  UNL     1      42.360   0.079   5.081  1.00  0.00    -0.264 N 
ATOM      4  H2  UNL     1      41.454  -0.076   5.522  1.00  0.00     0.194 HD
BRANCH   2   5
HETATM    5  C9  UNL     1      42.481   1.993   6.485  1.00  0.00     0.194 C 
BRANCH   5   6
HETATM    6  C8  UNL     1      41.244   2.720   5.990  1.00  0.00     0.271 C 
BRANCH   6   7
HETATM    7  N1  UNL     1      41.027   3.858   6.826  1.00  0.00    -0.061 N 
ATOM      8  H12 UNL     1      41.679   4.609   6.596  1.00  0.00     0.278 HD
ATOM      9  H11 UNL     1      41.322   3.670   7.784  1.00  0.00     0.278 HD
BRANCH   7  10
HETATM   10  C5  UNL     1      39.655   4.329   6.787  1.00  0.00     0.136 C 
HETATM   11  C6  UNL     1      38.771   3.349   6.051  1.00  0.00     0.050 C 
HETATM   12  C7  UNL     1      39.679   5.621   5.981  1.00  0.00     0.050 C 
BRANCH  10  13
HETATM   13  C4  UNL     1      39.120   4.635   8.132  1.00  0.00     0.013 C 
HETATM   14  C2  UNL     1      38.968   3.772   9.108  1.00  0.00    -0.089 C 
HETATM   15  C1  UNL     1      38.410   4.180  10.452  1.00  0.00     0.042 C 
HETATM   16  C3  UNL     1      39.325   2.338   8.979  1.00  0.00     0.042 C 
ENDBRANCH  10  13
ENDBRANCH   7  10
ENDBRANCH   6   7
ENDBRANCH   5   6
BRANCH   5  17
HETATM   17  O1  UNL     1      42.116   1.278   7.623  1.00  0.00    -0.388 OA
ATOM     18  H1  UNL     1      42.042   0.364   7.373  1.00  0.00     0.210 HD
ENDBRANCH   5  17
ENDBRANCH   2   5
BRANCH   3  19
HETATM   19  O2  UNL     1      42.771  -0.822   4.130  1.00  0.00    -0.212 OA
BRANCH  19  20
HETATM   20  C11 UNL     1      42.795  -2.203   4.307  1.00  0.00     0.522 C 
HETATM   21  F1  UNL     1      43.130  -2.466   5.620  1.00  0.00    -0.183 F 
HETATM   22  F2  UNL     1      43.641  -2.845   3.417  1.00  0.00    -0.183 F 
ENDBRANCH  19  20
ENDBRANCH   3  19
ENDBRANCH   1   2
BRANCH   1  23
HETATM   23  N3  UNL     1      45.244   0.245   4.917  1.00  0.00    -0.061 N 
ATOM     24  H33 UNL     1      45.967   0.360   5.626  1.00  0.00     0.275 HD
ATOM     25  H32 UNL     1      44.773  -0.573   5.303  1.00  0.00     0.275 HD
ATOM     26  H31 UNL     1      45.649   0.046   4.002  1.00  0.00     0.275 HD
ENDBRANCH   1  23
BRANCH   1  27
HETATM   27  C13 UNL     1      44.283   1.970   3.499  1.00  0.00     0.254 C 
HETATM   28  O3  UNL     1      43.201   2.476   3.137  1.00  0.00    -0.271 OA
HETATM   29  N4  UNL     1      45.378   1.945   2.640  1.00  0.00    -0.350 N 
ATOM     30  H4  UNL     1      46.230   1.514   2.998  1.00  0.00     0.163 HD
BRANCH  29  31
HETATM   31  C14 UNL     1      45.430   2.470   1.289  1.00  0.00     0.139 C 
HETATM   32  C15 UNL     1      45.642   1.335   0.321  1.00  0.00     0.173 C 
HETATM   33  C16 UNL     1      45.736   1.948  -1.068  1.00  0.00     0.180 C 
HETATM   34  C17 UNL     1      47.078   2.640  -1.090  1.00  0.00     0.179 C 
HETATM   35  C18 UNL     1      47.248   3.668  -0.030  1.00  0.00     0.172 C 
HETATM   36  C19 UNL     1      46.354   3.609   1.143  1.00  0.00     0.155 C 
BRANCH  32  37
HETATM   37  O4  UNL     1      46.786   0.617   0.559  1.00  0.00    -0.391 OA
ATOM     38  H4  UNL     1      46.823  -0.207   0.087  1.00  0.00     0.210 HD
ENDBRANCH  32  37
BRANCH  33  39
HETATM   39  O5  UNL     1      44.690   2.795  -1.349  1.00  0.00    -0.390 OA
ATOM     40  H5  UNL     1      43.855   2.345  -1.402  1.00  0.00     0.210 HD
ENDBRANCH  33  39
BRANCH  34  41
HETATM   41  O6  UNL     1      47.311   3.173  -2.379  1.00  0.00    -0.390 OA
ATOM     42  H6  UNL     1      47.908   2.606  -2.853  1.00  0.00     0.210 HD
ENDBRANCH  34  41
BRANCH  35  43
HETATM   43  O7  UNL     1      48.620   3.639   0.335  1.00  0.00    -0.391 OA
ATOM     44  H7  UNL     1      49.102   3.959  -0.418  1.00  0.00     0.210 HD
ENDBRANCH  35  43
BRANCH  36  45
HETATM   45  N5  UNL     1      45.661   4.886   1.267  1.00  0.00    -0.139 NA
BRANCH  45  46
HETATM   46  N6  UNL     1      44.306   4.829   1.050  1.00  0.00    -0.348 N 
ATOM     47  H62 UNL     1      43.904   4.243   0.318  1.00  0.00     0.172 HD
ATOM     48  H61 UNL     1      43.748   5.413   1.673  1.00  0.00     0.172 HD
ENDBRANCH  45  46
ENDBRANCH  36  45
ENDBRANCH  29  31
ENDBRANCH   1  27
TORSDOF 18
ENDMDL
MODEL 3
REMARK VINA RESULT: -8.423093740      1.124      1.520
REMARK  18 active torsions:
REMARK  status: ('A' for Active; 'I' for Inactive)
REMARK    1  A    between atoms: C4_4  and  C5_5 
REMARK    2  A    between atoms: C5_5  and  N1_8 
REMARK    3  A    between atoms: N1_8  and  C8_11 
REMARK    4  A    between atoms: C8_11  and  C9_12 
REMARK    5  A    between atoms: C9_12  and  O1_13 
REMARK    6  A    between atoms: C9_12  and  C10_15 
REMARK    7  A    between atoms: C10_15  and  C12_22 
REMARK    8  A    between atoms: N2_16  and  O2_18 
REMARK    9  A    between atoms: O2_18  and  C11_19 
REMARK   10  A    between atoms: C12_22  and  N3_23 
REMARK   11  A    between atoms: C12_22  and  C13_27 
REMARK       I    between atoms: C13_27  and  N4_29 
REMARK   12  A    between atoms: N4_29  and  C14_31 
REMARK   13  A    between atoms: C15_32  and  O4_33 
REMARK   14  A    between atoms: C16_35  and  O5_36 
REMARK   15  A    between atoms: C17_38  and  O6_39 
REMARK   16  A    between atoms: C18_41  and  O7_42 
REMARK   17  A    between atoms: C19_44  and  N5_45 
REMARK   18  A    between atoms: N5_45  and  N6_46 
ROOT
HETATM    1  C12 UNL     1      44.272   1.438   4.872  1.00  0.00     0.324 C 
ENDROOT
BRANCH   1   2
HETATM    2  C10 UNL     1      42.944   1.105   5.425  1.00  0.00     0.080 C 
HETATM    3  N2  UNL     1      42.311   0.066   5.070  1.00  0.00    -0.264 N 
ATOM      4  H2  UNL     1      41.398  -0.103   5.492  1.00  0.00     0.194 HD
BRANCH   2   5
HETATM    5  C9  UNL     1      42.342   2.021   6.423  1.00  0.00     0.194 C 
BRANCH   5   6
HETATM    6  C8  UNL     1      41.074   2.663   5.894  1.00  0.00     0.271 C 
BRANCH   6   7
HETATM    7  N1  UNL     1      40.047   2.506   6.874  1.00  0.00    -0.061 N 
ATOM      8  H12 UNL     1      40.443   2.264   7.783  1.00  0.00     0.278 HD
ATOM      9  H11 UNL     1      39.502   1.662   6.701  1.00  0.00     0.278 HD
BRANCH   7  10
HETATM   10  C5  UNL     1      39.185   3.669   6.975  1.00  0.00     0.136 C 
HETATM   11  C6  UNL     1      39.883   4.902   6.449  1.00  0.00     0.050 C 
HETATM   12  C7  UNL     1      38.940   3.880   8.464  1.00  0.00     0.050 C 
BRANCH  10  13
HETATM   13  C4  UNL     1      37.875   3.467   6.317  1.00  0.00     0.013 C 
HETATM   14  C2  UNL     1      37.007   2.530   6.615  1.00  0.00    -0.089 C 
HETATM   15  C1  UNL     1      35.691   2.402   5.884  1.00  0.00     0.042 C 
HETATM   16  C3  UNL     1      37.240   1.525   7.682  1.00  0.00     0.042 C 
ENDBRANCH  10  13
ENDBRANCH   7  10
ENDBRANCH   6   7
ENDBRANCH   5   6
BRANCH   5  17
HETATM   17  O1  UNL     1      42.006   1.334   7.588  1.00  0.00    -0.388 OA
ATOM     18  H1  UNL     1      42.765   0.824   7.846  1.00  0.00     0.210 HD
ENDBRANCH   5  17
ENDBRANCH   2   5
BRANCH   3  19
HETATM   19  O2  UNL     1      42.773  -0.848   4.156  1.00  0.00    -0.212 OA
BRANCH  19  20
HETATM   20  C11 UNL     1      42.786  -2.226   4.353  1.00  0.00     0.522 C 
HETATM   21  F1  UNL     1      43.131  -2.472   5.668  1.00  0.00    -0.183 F 
HETATM   22  F2  UNL     1      43.620  -2.889   3.466  1.00  0.00    -0.183 F 
ENDBRANCH  19  20
ENDBRANCH   3  19
ENDBRANCH   1   2
BRANCH   1  23
HETATM   23  N3  UNL     1      45.190   0.306   4.964  1.00  0.00    -0.061 N 
ATOM     24  H33 UNL     1      45.669   0.286   5.863  1.00  0.00     0.275 HD
ATOM     25  H32 UNL     1      44.685  -0.578   5.035  1.00  0.00     0.275 HD
ATOM     26  H31 UNL     1      45.852   0.297   4.188  1.00  0.00     0.275 HD
ENDBRANCH   1  23
BRANCH   1  27
HETATM   27  C13 UNL     1      44.221   1.979   3.490  1.00  0.00     0.254 C 
HETATM   28  O3  UNL     1      43.131   2.433   3.086  1.00  0.00    -0.271 OA
HETATM   29  N4  UNL     1      45.342   1.985   2.666  1.00  0.00    -0.350 N 
ATOM     30  H4  UNL     1      46.200   1.597   3.057  1.00  0.00     0.163 HD
BRANCH  29  31
HETATM   31  C14 UNL     1      45.415   2.487   1.307  1.00  0.00     0.139 C 
HETATM   32  C15 UNL     1      45.643   1.337   0.362  1.00  0.00     0.173 C 
HETATM   33  C16 UNL     1      45.758   1.927  -1.035  1.00  0.00     0.180 C 
HETATM   34  C17 UNL     1      47.099   2.622  -1.049  1.00  0.00     0.179 C 
HETATM   35  C18 UNL     1      47.251   3.667  -0.003  1.00  0.00     0.172 C 
HETATM   36  C19 UNL     1      46.338   3.625   1.157  1.00  0.00     0.155 C 
BRANCH  32  37
HETATM   37  O4  UNL     1      46.785   0.625   0.629  1.00  0.00    -0.391 OA
ATOM     38  H4  UNL     1      47.584   1.112   0.465  1.00  0.00     0.210 HD
ENDBRANCH  32  37
BRANCH  33  39
HETATM   39  O5  UNL     1      44.715   2.768  -1.347  1.00  0.00    -0.390 OA
ATOM     40  H5  UNL     1      44.697   3.008  -2.265  1.00  0.00     0.210 HD
ENDBRANCH  33  39
BRANCH  34  41
HETATM   41  O6  UNL     1      47.351   3.133  -2.343  1.00  0.00    -0.390 OA
ATOM     42  H6  UNL     1      47.350   4.083  -2.313  1.00  0.00     0.210 HD
ENDBRANCH  34  41
BRANCH  35  43
HETATM   43  O7  UNL     1      48.617   3.646   0.384  1.00  0.00    -0.391 OA
ATOM     44  H7  UNL     1      48.967   4.502   0.166  1.00  0.00     0.210 HD
ENDBRANCH  35  43
BRANCH  36  45
HETATM   45  N5  UNL     1      45.641   4.903   1.249  1.00  0.00    -0.139 NA
BRANCH  45  46
HETATM   46  N6  UNL     1      44.287   4.837   1.027  1.00  0.00    -0.348 N 
ATOM     47  H62 UNL     1      43.836   3.977   0.716  1.00  0.00     0.172 HD
ATOM     48  H61 UNL     1      43.784   5.708   1.196  1.00  0.00     0.172 HD
ENDBRANCH  45  46
ENDBRANCH  36  45
ENDBRANCH  29  31
ENDBRANCH   1  27
TORSDOF 18
ENDMDL
MODEL 4
REMARK VINA RESULT: -8.286737421      1.377      1.502
REMARK  18 active torsions:
REMARK  status: ('A' for Active; 'I' for Inactive)
REMARK    1  A    between atoms: C4_4  and  C5_5 
REMARK    2  A    between atoms: C5_5  and  N1_8 
REMARK    3  A    between atoms: N1_8  and  C8_11 
REMARK    4  A    between atoms: C8_11  and  C9_12 
REMARK    5  A    between atoms: C9_12  and  O1_13 
REMARK    6  A    between atoms: C9_12  and  C10_15 
REMARK    7  A    between atoms: C10_15  and  C12_22 
REMARK    8  A    between atoms: N2_16  and  O2_18 
REMARK    9  A    between atoms: O2_18  and  C11_19 
REMARK   10  A    between atoms: C12_22  and  N3_23 
REMARK   11  A    between atoms: C12_22  and  C13_27 
REMARK       I    between atoms: C13_27  and  N4_29 
REMARK   12  A    between atoms: N4_29  and  C14_31 
REMARK   13  A    between atoms: C15_32  and  O4_33 
REMARK   14  A    between atoms: C16_35  and  O5_36 
REMARK   15  A    between atoms: C17_38  and  O6_39 
REMARK   16  A    between atoms: C18_41  and  O7_42 
REMARK   17  A    between atoms: C19_44  and  N5_45 
REMARK   18  A    between atoms: N5_45  and  N6_46 
ROOT
HETATM    1  C12 UNL     1      44.421   1.723   4.779  1.00  0.00     0.324 C 
ENDROOT
BRANCH   1   2
HETATM    2  C10 UNL     1      43.217   0.867   4.834  1.00  0.00     0.080 C 
HETATM    3  N2  UNL     1      43.206  -0.305   4.354  1.00  0.00    -0.264 N 
ATOM      4  H2  UNL     1      42.341  -0.841   4.426  1.00  0.00     0.194 HD
BRANCH   2   5
HETATM    5  C9  UNL     1      41.992   1.407   5.470  1.00  0.00     0.194 C 
BRANCH   5   6
HETATM    6  C8  UNL     1      42.077   1.339   6.983  1.00  0.00     0.271 C 
BRANCH   6   7
HETATM    7  N1  UNL     1      41.333   2.432   7.524  1.00  0.00    -0.061 N 
ATOM      8  H12 UNL     1      41.008   3.055   6.784  1.00  0.00     0.278 HD
ATOM      9  H11 UNL     1      41.944   3.077   8.026  1.00  0.00     0.278 HD
BRANCH   7  10
HETATM   10  C5  UNL     1      40.231   2.001   8.364  1.00  0.00     0.136 C 
HETATM   11  C6  UNL     1      40.124   2.868   9.597  1.00  0.00     0.050 C 
HETATM   12  C7  UNL     1      40.581   0.591   8.822  1.00  0.00     0.050 C 
BRANCH  10  13
HETATM   13  C4  UNL     1      38.946   1.941   7.632  1.00  0.00     0.013 C 
HETATM   14  C2  UNL     1      38.333   2.961   7.080  1.00  0.00    -0.089 C 
HETATM   15  C1  UNL     1      37.019   2.801   6.351  1.00  0.00     0.042 C 
HETATM   16  C3  UNL     1      38.869   4.344   7.125  1.00  0.00     0.042 C 
ENDBRANCH  10  13
ENDBRANCH   7  10
ENDBRANCH   6   7
ENDBRANCH   5   6
BRANCH   5  17
HETATM   17  O1  UNL     1      41.800   2.742   5.123  1.00  0.00    -0.388 OA
ATOM     18  H1  UNL     1      42.648   3.170   5.155  1.00  0.00     0.210 HD
ENDBRANCH   5  17
ENDBRANCH   2   5
BRANCH   3  19
HETATM   19  O2  UNL     1      44.280  -0.904   3.744  1.00  0.00    -0.212 OA
BRANCH  19  20
HETATM   20  C11 UNL     1      44.195  -1.998   2.887  1.00  0.00     0.522 C 
HETATM   21  F1  UNL     1      43.889  -1.535   1.623  1.00  0.00    -0.183 F 
HETATM   22  F2  UNL     1      43.290  -2.954   3.323  1.00  0.00    -0.183 F 
ENDBRANCH  19  20
ENDBRANCH   3  19
ENDBRANCH   1   2
BRANCH   1  23
HETATM   23  N3  UNL     1      45.630   0.964   5.085  1.00  0.00    -0.061 N 
ATOM     24  H33 UNL     1      46.463   1.426   4.720  1.00  0.00     0.275 HD
ATOM     25  H32 UNL     1      45.852   1.001   6.080  1.00  0.00     0.275 HD
ATOM     26  H31 UNL     1      45.562   0.002   4.754  1.00  0.00     0.275 HD
ENDBRANCH   1  23
BRANCH   1  27
HETATM   27  C13 UNL     1      44.561   2.469   3.503  1.00  0.00     0.254 C 
HETATM   28  O3  UNL     1      44.133   3.641   3.468  1.00  0.00    -0.271 OA
HETATM   29  N4  UNL     1      45.145   1.891   2.380  1.00  0.00    -0.350 N 
ATOM     30  H4  UNL     1      45.470   0.930   2.476  1.00  0.00     0.163 HD
BRANCH  29  31
HETATM   31  C14 UNL     1      45.339   2.518   1.086  1.00  0.00     0.139 C 
HETATM   32  C15 UNL     1      45.523   1.453   0.038  1.00  0.00     0.173 C 
HETATM   33  C16 UNL     1      45.768   2.167  -1.282  1.00  0.00     0.180 C 
HETATM   34  C17 UNL     1      47.163   2.734  -1.157  1.00  0.00     0.179 C 
HETATM   35  C18 UNL     1      47.342   3.651  -0.002  1.00  0.00     0.172 C 
HETATM   36  C19 UNL     1      46.364   3.577   1.102  1.00  0.00     0.155 C 
BRANCH  32  37
HETATM   37  O4  UNL     1      46.582   0.616   0.285  1.00  0.00    -0.391 OA
ATOM     38  H4  UNL     1      46.343  -0.169   0.764  1.00  0.00     0.210 HD
ENDBRANCH  32  37
BRANCH  33  39
HETATM   39  O5  UNL     1      44.821   3.125  -1.554  1.00  0.00    -0.390 OA
ATOM     40  H5  UNL     1      44.200   2.851  -2.219  1.00  0.00     0.210 HD
ENDBRANCH  33  39
BRANCH  34  41
HETATM   41  O6  UNL     1      47.532   3.347  -2.376  1.00  0.00    -0.390 OA
ATOM     42  H6  UNL     1      46.775   3.394  -2.949  1.00  0.00     0.210 HD
ENDBRANCH  34  41
BRANCH  35  43
HETATM   43  O7  UNL     1      48.677   3.468   0.448  1.00  0.00    -0.391 OA
ATOM     44  H7  UNL     1      48.743   2.561   0.723  1.00  0.00     0.210 HD
ENDBRANCH  35  43
BRANCH  36  45
HETATM   45  N5  UNL     1      45.774   4.897   1.293  1.00  0.00    -0.139 NA
BRANCH  45  46
HETATM   46  N6  UNL     1      44.457   4.999   0.918  1.00  0.00    -0.348 N 
ATOM     47  H62 UNL     1      43.860   4.177   0.829  1.00  0.00     0.172 HD
ATOM     48  H61 UNL     1      44.136   5.950   0.739  1.00  0.00     0.172 HD
ENDBRANCH  45  46
ENDBRANCH  36  45
ENDBRANCH  29  31
ENDBRANCH   1  27
TORSDOF 18
ENDMDL
MODEL 5
REMARK VINA RESULT: -8.227848728      1.630      2.287
REMARK  18 active torsions:
REMARK  status: ('A' for Active; 'I' for Inactive)
REMARK    1  A    between atoms: C4_4  and  C5_5 
REMARK    2  A    between atoms: C5_5  and  N1_8 
REMARK    3  A    between atoms: N1_8  and  C8_11 
REMARK    4  A    between atoms: C8_11  and  C9_12 
REMARK    5  A    between atoms: C9_12  and  O1_13 
REMARK    6  A    between atoms: C9_12  and  C10_15 
REMARK    7  A    between atoms: C10_15  and  C12_22 
REMARK    8  A    between atoms: N2_16  and  O2_18 
REMARK    9  A    between atoms: O2_18  and  C11_19 
REMARK   10  A    between atoms: C12_22  and  N3_23 
REMARK   11  A    between atoms: C12_22  and  C13_27 
REMARK       I    between atoms: C13_27  and  N4_29 
REMARK   12  A    between atoms: N4_29  and  C14_31 
REMARK   13  A    between atoms: C15_32  and  O4_33 
REMARK   14  A    between atoms: C16_35  and  O5_36 
REMARK   15  A    between atoms: C17_38  and  O6_39 
REMARK   16  A    between atoms: C18_41  and  O7_42 
REMARK   17  A    between atoms: C19_44  and  N5_45 
REMARK   18  A    between atoms: N5_45  and  N6_46 
ROOT
HETATM    1  C12 UNL     1      44.482   1.187   4.825  1.00  0.00     0.324 C 
ENDROOT
BRANCH   1   2
HETATM    2  C10 UNL     1      43.361   0.250   5.046  1.00  0.00     0.080 C 
HETATM    3  N2  UNL     1      43.004  -0.588   4.165  1.00  0.00    -0.264 N 
ATOM      4  H2  UNL     1      42.222  -1.204   4.383  1.00  0.00     0.194 HD
BRANCH   2   5
HETATM    5  C9  UNL     1      42.639   0.301   6.339  1.00  0.00     0.194 C 
BRANCH   5   6
HETATM    6  C8  UNL     1      41.368   1.122   6.234  1.00  0.00     0.271 C 
BRANCH   6   7
HETATM    7  N1  UNL     1      41.183   1.823   7.464  1.00  0.00    -0.061 N 
ATOM      8  H12 UNL     1      41.976   1.679   8.090  1.00  0.00     0.278 HD
ATOM      9  H11 UNL     1      40.449   1.392   8.024  1.00  0.00     0.278 HD
BRANCH   7  10
HETATM   10  C5  UNL     1      40.925   3.239   7.270  1.00  0.00     0.136 C 
HETATM   11  C6  UNL     1      40.133   3.471   6.004  1.00  0.00     0.050 C 
HETATM   12  C7  UNL     1      42.288   3.891   7.086  1.00  0.00     0.050 C 
BRANCH  10  13
HETATM   13  C4  UNL     1      40.269   3.864   8.439  1.00  0.00     0.013 C 
HETATM   14  C2  UNL     1      39.056   3.601   8.866  1.00  0.00    -0.089 C 
HETATM   15  C1  UNL     1      38.470   4.293  10.075  1.00  0.00     0.042 C 
HETATM   16  C3  UNL     1      38.166   2.614   8.208  1.00  0.00     0.042 C 
ENDBRANCH  10  13
ENDBRANCH   7  10
ENDBRANCH   6   7
ENDBRANCH   5   6
BRANCH   5  17
HETATM   17  O1  UNL     1      42.276  -0.978   6.755  1.00  0.00    -0.388 OA
ATOM     18  H1  UNL     1      42.762  -1.168   7.549  1.00  0.00     0.210 HD
ENDBRANCH   5  17
ENDBRANCH   2   5
BRANCH   3  19
HETATM   19  O2  UNL     1      43.600  -0.721   2.935  1.00  0.00    -0.212 OA
BRANCH  19  20
HETATM   20  C11 UNL     1      44.331  -1.834   2.527  1.00  0.00     0.522 C 
HETATM   21  F1  UNL     1      44.353  -1.853   1.146  1.00  0.00    -0.183 F 
HETATM   22  F2  UNL     1      43.846  -3.020   3.055  1.00  0.00    -0.183 F 
ENDBRANCH  19  20
ENDBRANCH   3  19
ENDBRANCH   1   2
BRANCH   1  23
HETATM   23  N3  UNL     1      45.773   0.527   5.001  1.00  0.00    -0.061 N 
ATOM     24  H33 UNL     1      46.510   1.004   4.482  1.00  0.00     0.275 HD
ATOM     25  H32 UNL     1      46.134   0.660   5.945  1.00  0.00     0.275 HD
ATOM     26  H31 UNL     1      45.724  -0.461   4.754  1.00  0.00     0.275 HD
ENDBRANCH   1  23
BRANCH   1  27
HETATM   27  C13 UNL     1      44.413   1.898   3.524  1.00  0.00     0.254 C 
HETATM   28  O3  UNL     1      43.435   2.648   3.325  1.00  0.00    -0.271 OA
HETATM   29  N4  UNL     1      45.397   1.742   2.553  1.00  0.00    -0.350 N 
ATOM     30  H4  UNL     1      46.167   1.112   2.778  1.00  0.00     0.163 HD
BRANCH  29  31
HETATM   31  C14 UNL     1      45.440   2.383   1.252  1.00  0.00     0.139 C 
HETATM   32  C15 UNL     1      45.610   1.335   0.184  1.00  0.00     0.173 C 
HETATM   33  C16 UNL     1      45.695   2.067  -1.146  1.00  0.00     0.180 C 
HETATM   34  C17 UNL     1      47.053   2.730  -1.132  1.00  0.00     0.179 C 
HETATM   35  C18 UNL     1      47.262   3.655   0.012  1.00  0.00     0.172 C 
HETATM   36  C19 UNL     1      46.386   3.511   1.191  1.00  0.00     0.155 C 
BRANCH  32  37
HETATM   37  O4  UNL     1      46.741   0.574   0.337  1.00  0.00    -0.391 OA
ATOM     38  H4  UNL     1      46.717   0.006   1.098  1.00  0.00     0.210 HD
ENDBRANCH  32  37
BRANCH  33  39
HETATM   39  O5  UNL     1      44.664   2.957  -1.333  1.00  0.00    -0.390 OA
ATOM     40  H5  UNL     1      44.145   2.764  -2.104  1.00  0.00     0.210 HD
ENDBRANCH  33  39
BRANCH  34  41
HETATM   41  O6  UNL     1      47.276   3.370  -2.373  1.00  0.00    -0.390 OA
ATOM     42  H6  UNL     1      48.138   3.137  -2.698  1.00  0.00     0.210 HD
ENDBRANCH  34  41
BRANCH  35  43
HETATM   43  O7  UNL     1      48.639   3.565   0.349  1.00  0.00    -0.391 OA
ATOM     44  H7  UNL     1      48.987   4.446   0.282  1.00  0.00     0.210 HD
ENDBRANCH  35  43
BRANCH  36  45
HETATM   45  N5  UNL     1      45.724   4.786   1.440  1.00  0.00    -0.139 NA
BRANCH  45  46
HETATM   46  N6  UNL     1      44.388   4.812   1.123  1.00  0.00    -0.348 N 
ATOM     47  H62 UNL     1      43.777   5.567   1.437  1.00  0.00     0.172 HD
ATOM     48  H61 UNL     1      44.067   4.026   0.558  1.00  0.00     0.172 HD
ENDBRANCH  45  46
ENDBRANCH  36  45
ENDBRANCH  29  31
ENDBRANCH   1  27
TORSDOF 18
ENDMDL
