MODEL 1
REMARK VINA RESULT: -7.074565634      0.000      0.000
REMARK  9 active torsions:
REMARK  status: ('A' for Active; 'I' for Inactive)
REMARK       I    between atoms: C1_4  and  N3_6 
REMARK    1  A    between atoms: N3_6  and  C2_8 
REMARK    2  A    between atoms: C2_8  and  C3_9 
REMARK    3  A    between atoms: C3_9  and  C4_10 
REMARK    4  A    between atoms: C4_10  and  C5_11 
REMARK    5  A    between atoms: C5_11  and  N4_12 
REMARK    6  A    between atoms: C6_14  and  C7_15 
REMARK    7  A    between atoms: C7_15  and  C8_16 
REMARK    8  A    between atoms: C8_16  and  C9_17 
REMARK    9  A    between atoms: C9_17  and  N5_18 
ROOT
HETATM    1  N4  UNL     1       5.004  13.574  43.689  1.00  0.00    -0.223 N 
HETATM    2  O1  UNL     1       5.316  12.335  44.051  1.00  0.00    -0.241 OA
HETATM    3  C6  UNL     1       4.294  11.529  44.449  1.00  0.00     0.351 C 
HETATM    4  N8  UNL     1       3.049  12.173  44.719  1.00  0.00    -0.038 N 
ATOM      5  H81 UNL     1       3.100  12.701  45.590  1.00  0.00     0.280 HD
ATOM      6  H82 UNL     1       2.339  11.487  44.975  1.00  0.00     0.280 HD
HETATM    7  C11 UNL     1       2.578  13.012  43.647  1.00  0.00     0.340 C 
HETATM    8  C12 UNL     1       3.707  13.890  43.245  1.00  0.00     0.269 C 
HETATM    9  O2  UNL     1       3.535  14.898  42.523  1.00  0.00    -0.269 OA
ENDROOT
BRANCH   1  10
HETATM   10  C5  UNL     1       6.068  14.588  43.777  1.00  0.00     0.159 C 
BRANCH  10  11
HETATM   11  C4  UNL     1       5.616  15.587  44.789  1.00  0.00     0.024 C 
BRANCH  11  12
HETATM   12  C3  UNL     1       6.695  16.018  45.735  1.00  0.00     0.021 C 
BRANCH  12  13
HETATM   13  C2  UNL     1       6.372  15.774  47.170  1.00  0.00     0.122 C 
BRANCH  13  14
HETATM   14  N3  UNL     1       5.183  14.987  47.353  1.00  0.00    -0.365 N 
HETATM   15  C1  UNL     1       5.386  13.621  47.782  1.00  0.00     0.181 C 
HETATM   16  N1  UNL     1       4.566  13.058  48.597  1.00  0.00    -0.374 N 
HETATM   17  N2  UNL     1       6.493  12.870  47.315  1.00  0.00    -0.064 NA
ATOM     18  H12 UNL     1       4.710  12.095  48.899  1.00  0.00     0.158 HD
ATOM     19  H11 UNL     1       3.769  13.599  48.933  1.00  0.00     0.158 HD
ATOM     20  H3  UNL     1       4.251  15.370  47.190  1.00  0.00     0.162 HD
ENDBRANCH  13  14
ENDBRANCH  12  13
ENDBRANCH  11  12
ENDBRANCH  10  11
ENDBRANCH   1  10
BRANCH   3  21
HETATM   21  C7  UNL     1       4.043  10.372  43.492  1.00  0.00     0.066 C 
BRANCH  21  22
HETATM   22  C8  UNL     1       2.872   9.579  44.049  1.00  0.00     0.024 C 
BRANCH  22  23
HETATM   23  C9  UNL     1       3.207   8.102  44.130  1.00  0.00     0.122 C 
BRANCH  23  24
HETATM   24  N5  UNL     1       2.198   7.327  44.784  1.00  0.00    -0.367 N 
HETATM   25  C10 UNL     1       2.474   6.176  45.267  1.00  0.00     0.196 C 
HETATM   26  N6  UNL     1       1.431   5.423  45.919  1.00  0.00    -0.067 NA
HETATM   27  N7  UNL     1       3.781   5.669  45.153  1.00  0.00    -0.067 NA
ATOM     28  H5  UNL     1       1.251   7.696  44.866  1.00  0.00     0.161 HD
ENDBRANCH  23  24
ENDBRANCH  22  23
ENDBRANCH  21  22
ENDBRANCH   3  21
TORSDOF 9
ENDMDL
MODEL 2
REMARK VINA RESULT: -6.991485496      2.836      4.226
REMARK  9 active torsions:
REMARK  status: ('A' for Active; 'I' for Inactive)
REMARK       I    between atoms: C1_4  and  N3_6 
REMARK    1  A    between atoms: N3_6  and  C2_8 
REMARK    2  A    between atoms: C2_8  and  C3_9 
REMARK    3  A    between atoms: C3_9  and  C4_10 
REMARK    4  A    between atoms: C4_10  and  C5_11 
REMARK    5  A    between atoms: C5_11  and  N4_12 
REMARK    6  A    between atoms: C6_14  and  C7_15 
REMARK    7  A    between atoms: C7_15  and  C8_16 
REMARK    8  A    between atoms: C8_16  and  C9_17 
REMARK    9  A    between atoms: C9_17  and  N5_18 
ROOT
HETATM    1  N4  UNL     1       3.640  12.495  43.304  1.00  0.00    -0.223 N 
HETATM    2  O1  UNL     1       4.643  11.637  43.151  1.00  0.00    -0.241 OA
HETATM    3  C6  UNL     1       4.485  10.396  43.687  1.00  0.00     0.351 C 
HETATM    4  N8  UNL     1       3.401  10.235  44.601  1.00  0.00    -0.038 N 
ATOM      5  H81 UNL     1       3.609  10.696  45.487  1.00  0.00     0.280 HD
ATOM      6  H82 UNL     1       3.343   9.267  44.920  1.00  0.00     0.280 HD
HETATM    7  C11 UNL     1       2.130  10.676  44.088  1.00  0.00     0.340 C 
HETATM    8  C12 UNL     1       2.328  12.036  43.526  1.00  0.00     0.269 C 
HETATM    9  O2  UNL     1       1.364  12.783  43.244  1.00  0.00    -0.269 OA
ENDROOT
BRANCH   1  10
HETATM   10  C5  UNL     1       3.966  13.929  43.234  1.00  0.00     0.159 C 
BRANCH  10  11
HETATM   11  C4  UNL     1       5.407  14.052  43.603  1.00  0.00     0.024 C 
BRANCH  11  12
HETATM   12  C3  UNL     1       5.764  15.379  44.202  1.00  0.00     0.021 C 
BRANCH  12  13
HETATM   13  C2  UNL     1       5.802  15.377  45.692  1.00  0.00     0.122 C 
BRANCH  13  14
HETATM   14  N3  UNL     1       4.941  14.384  46.275  1.00  0.00    -0.365 N 
HETATM   15  C1  UNL     1       5.533  13.557  47.304  1.00  0.00     0.181 C 
HETATM   16  N1  UNL     1       4.842  13.173  48.318  1.00  0.00    -0.374 N 
HETATM   17  N2  UNL     1       6.887  13.149  47.219  1.00  0.00    -0.064 NA
ATOM     18  H12 UNL     1       5.259  12.590  49.043  1.00  0.00     0.158 HD
ATOM     19  H11 UNL     1       3.867  13.466  48.379  1.00  0.00     0.158 HD
ATOM     20  H3  UNL     1       3.971  14.269  45.981  1.00  0.00     0.162 HD
ENDBRANCH  13  14
ENDBRANCH  12  13
ENDBRANCH  11  12
ENDBRANCH  10  11
ENDBRANCH   1  10
BRANCH   3  21
HETATM   21  C7  UNL     1       4.395   9.303  42.632  1.00  0.00     0.066 C 
BRANCH  21  22
HETATM   22  C8  UNL     1       5.402   9.649  41.545  1.00  0.00     0.024 C 
BRANCH  22  23
HETATM   23  C9  UNL     1       6.811   9.295  41.978  1.00  0.00     0.122 C 
BRANCH  23  24
HETATM   24  N5  UNL     1       7.742  10.367  41.808  1.00  0.00    -0.367 N 
HETATM   25  C10 UNL     1       8.817  10.194  41.138  1.00  0.00     0.196 C 
HETATM   26  N6  UNL     1       9.733  11.298  40.987  1.00  0.00    -0.067 NA
HETATM   27  N7  UNL     1       9.085   8.938  40.565  1.00  0.00    -0.067 NA
ATOM     28  H5  UNL     1       7.547  11.278  42.224  1.00  0.00     0.161 HD
ENDBRANCH  23  24
ENDBRANCH  22  23
ENDBRANCH  21  22
ENDBRANCH   3  21
TORSDOF 9
ENDMDL
MODEL 3
REMARK VINA RESULT: -6.896996197      2.314      2.815
REMARK  9 active torsions:
REMARK  status: ('A' for Active; 'I' for Inactive)
REMARK       I    between atoms: C1_4  and  N3_6 
REMARK    1  A    between atoms: N3_6  and  C2_8 
REMARK    2  A    between atoms: C2_8  and  C3_9 
REMARK    3  A    between atoms: C3_9  and  C4_10 
REMARK    4  A    between atoms: C4_10  and  C5_11 
REMARK    5  A    between atoms: C5_11  and  N4_12 
REMARK    6  A    between atoms: C6_14  and  C7_15 
REMARK    7  A    between atoms: C7_15  and  C8_16 
REMARK    8  A    between atoms: C8_16  and  C9_17 
REMARK    9  A    between atoms: C9_17  and  N5_18 
ROOT
HETATM    1  N4  UNL     1       4.996  13.582  43.692  1.00  0.00    -0.223 N 
HETATM    2  O1  UNL     1       5.328  12.372  44.128  1.00  0.00    -0.241 OA
HETATM    3  C6  UNL     1       4.324  11.587  44.605  1.00  0.00     0.351 C 
HETATM    4  N8  UNL     1       3.081  12.237  44.862  1.00  0.00    -0.038 N 
ATOM      5  H81 UNL     1       3.148  12.823  45.695  1.00  0.00     0.280 HD
ATOM      6  H82 UNL     1       2.384  11.564  45.181  1.00  0.00     0.280 HD
HETATM    7  C11 UNL     1       2.575  12.998  43.749  1.00  0.00     0.340 C 
HETATM    8  C12 UNL     1       3.685  13.856  43.260  1.00  0.00     0.269 C 
HETATM    9  O2  UNL     1       3.486  14.812  42.477  1.00  0.00    -0.269 OA
ENDROOT
BRANCH   1  10
HETATM   10  C5  UNL     1       6.052  14.607  43.684  1.00  0.00     0.159 C 
BRANCH  10  11
HETATM   11  C4  UNL     1       5.631  15.652  44.664  1.00  0.00     0.024 C 
BRANCH  11  12
HETATM   12  C3  UNL     1       6.682  15.986  45.679  1.00  0.00     0.021 C 
BRANCH  12  13
HETATM   13  C2  UNL     1       6.272  15.708  47.085  1.00  0.00     0.122 C 
BRANCH  13  14
HETATM   14  N3  UNL     1       5.115  14.859  47.176  1.00  0.00    -0.365 N 
HETATM   15  C1  UNL     1       5.340  13.537  47.719  1.00  0.00     0.181 C 
HETATM   16  N1  UNL     1       4.458  12.974  48.466  1.00  0.00    -0.374 N 
HETATM   17  N2  UNL     1       6.537  12.832  47.441  1.00  0.00    -0.064 NA
ATOM     18  H12 UNL     1       4.617  12.042  48.849  1.00  0.00     0.158 HD
ATOM     19  H11 UNL     1       3.597  13.482  48.666  1.00  0.00     0.158 HD
ATOM     20  H3  UNL     1       4.192  15.170  46.876  1.00  0.00     0.162 HD
ENDBRANCH  13  14
ENDBRANCH  12  13
ENDBRANCH  11  12
ENDBRANCH  10  11
ENDBRANCH   1  10
BRANCH   3  21
HETATM   21  C7  UNL     1       4.062  10.366  43.734  1.00  0.00     0.066 C 
BRANCH  21  22
HETATM   22  C8  UNL     1       5.006  10.456  42.545  1.00  0.00     0.024 C 
BRANCH  22  23
HETATM   23  C9  UNL     1       5.668   9.119  42.276  1.00  0.00     0.122 C 
BRANCH  23  24
HETATM   24  N5  UNL     1       4.882   8.252  41.454  1.00  0.00    -0.367 N 
HETATM   25  C10 UNL     1       5.148   8.117  40.210  1.00  0.00     0.196 C 
HETATM   26  N6  UNL     1       4.333   7.235  39.412  1.00  0.00    -0.067 NA
HETATM   27  N7  UNL     1       6.224   8.828  39.649  1.00  0.00    -0.067 NA
ATOM     28  H5  UNL     1       4.102   7.737  41.863  1.00  0.00     0.161 HD
ENDBRANCH  23  24
ENDBRANCH  22  23
ENDBRANCH  21  22
ENDBRANCH   3  21
TORSDOF 9
ENDMDL
MODEL 4
REMARK VINA RESULT: -6.852984895      1.788      2.335
REMARK  9 active torsions:
REMARK  status: ('A' for Active; 'I' for Inactive)
REMARK       I    between atoms: C1_4  and  N3_6 
REMARK    1  A    between atoms: N3_6  and  C2_8 
REMARK    2  A    between atoms: C2_8  and  C3_9 
REMARK    3  A    between atoms: C3_9  and  C4_10 
REMARK    4  A    between atoms: C4_10  and  C5_11 
REMARK    5  A    between atoms: C5_11  and  N4_12 
REMARK    6  A    between atoms: C6_14  and  C7_15 
REMARK    7  A    between atoms: C7_15  and  C8_16 
REMARK    8  A    between atoms: C8_16  and  C9_17 
REMARK    9  A    between atoms: C9_17  and  N5_18 
ROOT
HETATM    1  N4  UNL     1       4.957  13.491  43.686  1.00  0.00    -0.223 N 
HETATM    2  O1  UNL     1       5.242  12.254  44.075  1.00  0.00    -0.241 OA
HETATM    3  C6  UNL     1       4.207  11.490  44.522  1.00  0.00     0.351 C 
HETATM    4  N8  UNL     1       2.989  12.178  44.804  1.00  0.00    -0.038 N 
ATOM      5  H81 UNL     1       3.078  12.728  45.658  1.00  0.00     0.280 HD
ATOM      6  H82 UNL     1       2.266  11.521  45.096  1.00  0.00     0.280 HD
HETATM    7  C11 UNL     1       2.515  13.001  43.720  1.00  0.00     0.340 C 
HETATM    8  C12 UNL     1       3.658  13.833  43.265  1.00  0.00     0.269 C 
HETATM    9  O2  UNL     1       3.498  14.826  42.519  1.00  0.00    -0.269 OA
ENDROOT
BRANCH   1  10
HETATM   10  C5  UNL     1       6.052  14.475  43.719  1.00  0.00     0.159 C 
BRANCH  10  11
HETATM   11  C4  UNL     1       5.604  15.574  44.624  1.00  0.00     0.024 C 
BRANCH  11  12
HETATM   12  C3  UNL     1       6.630  15.972  45.642  1.00  0.00     0.021 C 
BRANCH  12  13
HETATM   13  C2  UNL     1       6.210  15.721  47.050  1.00  0.00     0.122 C 
BRANCH  13  14
HETATM   14  N3  UNL     1       5.068  14.853  47.150  1.00  0.00    -0.365 N 
HETATM   15  C1  UNL     1       5.317  13.539  47.701  1.00  0.00     0.181 C 
HETATM   16  N1  UNL     1       4.447  12.965  48.454  1.00  0.00    -0.374 N 
HETATM   17  N2  UNL     1       6.525  12.852  47.425  1.00  0.00    -0.064 NA
ATOM     18  H12 UNL     1       4.622  12.039  48.843  1.00  0.00     0.158 HD
ATOM     19  H11 UNL     1       3.577  13.460  48.653  1.00  0.00     0.158 HD
ATOM     20  H3  UNL     1       4.139  15.146  46.851  1.00  0.00     0.162 HD
ENDBRANCH  13  14
ENDBRANCH  12  13
ENDBRANCH  11  12
ENDBRANCH  10  11
ENDBRANCH   1  10
BRANCH   3  21
HETATM   21  C7  UNL     1       3.899  10.315  43.604  1.00  0.00     0.066 C 
BRANCH  21  22
HETATM   22  C8  UNL     1       4.909  10.360  42.468  1.00  0.00     0.024 C 
BRANCH  22  23
HETATM   23  C9  UNL     1       5.458   8.978  42.176  1.00  0.00     0.122 C 
BRANCH  23  24
HETATM   24  N5  UNL     1       6.665   8.685  42.886  1.00  0.00    -0.367 N 
HETATM   25  C10 UNL     1       6.691   7.764  43.772  1.00  0.00     0.196 C 
HETATM   26  N6  UNL     1       7.925   7.497  44.468  1.00  0.00    -0.067 NA
HETATM   27  N7  UNL     1       5.521   7.033  44.049  1.00  0.00    -0.067 NA
ATOM     28  H5  UNL     1       7.512   9.216  42.683  1.00  0.00     0.161 HD
ENDBRANCH  23  24
ENDBRANCH  22  23
ENDBRANCH  21  22
ENDBRANCH   3  21
TORSDOF 9
ENDMDL
MODEL 5
REMARK VINA RESULT: -6.847808418      2.952      3.588
REMARK  9 active torsions:
REMARK  status: ('A' for Active; 'I' for Inactive)
REMARK       I    between atoms: C1_4  and  N3_6 
REMARK    1  A    between atoms: N3_6  and  C2_8 
REMARK    2  A    between atoms: C2_8  and  C3_9 
REMARK    3  A    between atoms: C3_9  and  C4_10 
REMARK    4  A    between atoms: C4_10  and  C5_11 
REMARK    5  A    between atoms: C5_11  and  N4_12 
REMARK    6  A    between atoms: C6_14  and  C7_15 
REMARK    7  A    between atoms: C7_15  and  C8_16 
REMARK    8  A    between atoms: C8_16  and  C9_17 
REMARK    9  A    between atoms: C9_17  and  N5_18 
ROOT
HETATM    1  N4  UNL     1       3.772  12.327  43.509  1.00  0.00    -0.223 N 
HETATM    2  O1  UNL     1       4.638  11.326  43.397  1.00  0.00    -0.241 OA
HETATM    3  C6  UNL     1       4.238  10.107  43.850  1.00  0.00     0.351 C 
HETATM    4  N8  UNL     1       3.062  10.086  44.658  1.00  0.00    -0.038 N 
ATOM      5  H81 UNL     1       3.255  10.473  45.581  1.00  0.00     0.280 HD
ATOM      6  H82 UNL     1       2.823   9.129  44.918  1.00  0.00     0.280 HD
HETATM    7  C11 UNL     1       1.929  10.745  44.061  1.00  0.00     0.340 C 
HETATM    8  C12 UNL     1       2.390  12.077  43.591  1.00  0.00     0.269 C 
HETATM    9  O2  UNL     1       1.584  12.979  43.267  1.00  0.00    -0.269 OA
ENDROOT
BRANCH   1  10
HETATM   10  C5  UNL     1       4.323  13.692  43.543  1.00  0.00     0.159 C 
BRANCH  10  11
HETATM   11  C4  UNL     1       5.624  13.603  44.269  1.00  0.00     0.024 C 
BRANCH  11  12
HETATM   12  C3  UNL     1       5.551  14.060  45.695  1.00  0.00     0.021 C 
BRANCH  12  13
HETATM   13  C2  UNL     1       5.516  15.542  45.851  1.00  0.00     0.122 C 
BRANCH  13  14
HETATM   14  N3  UNL     1       5.913  15.980  47.162  1.00  0.00    -0.365 N 
HETATM   15  C1  UNL     1       7.168  16.693  47.240  1.00  0.00     0.181 C 
HETATM   16  N1  UNL     1       7.320  17.668  48.064  1.00  0.00    -0.374 N 
HETATM   17  N2  UNL     1       8.260  16.335  46.412  1.00  0.00    -0.064 NA
ATOM     18  H12 UNL     1       8.206  18.172  48.119  1.00  0.00     0.158 HD
ATOM     19  H11 UNL     1       6.534  17.926  48.660  1.00  0.00     0.158 HD
ATOM     20  H3  UNL     1       5.342  15.797  47.987  1.00  0.00     0.162 HD
ENDBRANCH  13  14
ENDBRANCH  12  13
ENDBRANCH  11  12
ENDBRANCH  10  11
ENDBRANCH   1  10
BRANCH   3  21
HETATM   21  C7  UNL     1       4.078   9.084  42.734  1.00  0.00     0.066 C 
BRANCH  21  22
HETATM   22  C8  UNL     1       5.251   9.274  41.784  1.00  0.00     0.024 C 
BRANCH  22  23
HETATM   23  C9  UNL     1       5.547   7.995  41.026  1.00  0.00     0.122 C 
BRANCH  23  24
HETATM   24  N5  UNL     1       4.832   7.889  39.792  1.00  0.00    -0.367 N 
HETATM   25  C10 UNL     1       3.930   6.996  39.638  1.00  0.00     0.196 C 
HETATM   26  N6  UNL     1       3.229   6.918  38.380  1.00  0.00    -0.067 NA
HETATM   27  N7  UNL     1       3.640   6.111  40.694  1.00  0.00    -0.067 NA
ATOM     28  H5  UNL     1       5.043   8.531  39.028  1.00  0.00     0.161 HD
ENDBRANCH  23  24
ENDBRANCH  22  23
ENDBRANCH  21  22
ENDBRANCH   3  21
TORSDOF 9
ENDMDL
