MODEL 1
REMARK VINA RESULT: -8.023044208      0.000      0.000
REMARK  5 active torsions:
REMARK  status: ('A' for Active; 'I' for Inactive)
REMARK    1  A    between atoms: O1_2  and  C2_3 
REMARK    2  A    between atoms: C2_3  and  C3_5 
REMARK    3  A    between atoms: C4_6  and  N1_7 
REMARK       I    between atoms: N1_7  and  C5_9 
REMARK    4  A    between atoms: C5_9  and  C6_11 
REMARK    5  A    between atoms: C6_11  and  N2_12 
REMARK       I    between atoms: N2_12  and  C7_14 
ROOT
HETATM    1  C3  UNL     1      61.190 -68.293   3.720  1.00  0.00     0.088 A 
HETATM    2  C4  UNL     1      62.387 -68.906   3.519  1.00  0.00     0.096 A 
HETATM    3  S1  UNL     1      62.063 -69.850   2.070  1.00  0.00    -0.051 SA
HETATM    4  C8  UNL     1      60.446 -69.421   1.829  1.00  0.00     0.104 A 
HETATM    5  N4  UNL     1      59.359 -69.632   1.013  1.00  0.00    -0.293 N 
ATOM      6  H4  UNL     1      59.319 -70.231   0.187  1.00  0.00     0.187 HD
HETATM    7  N5  UNL     1      58.411 -68.927   1.496  1.00  0.00    -0.303 N 
ATOM      8  H5  UNL     1      57.472 -68.881   1.100  1.00  0.00     0.186 HD
HETATM    9  C9  UNL     1      58.811 -68.236   2.623  1.00  0.00     0.036 A 
HETATM   10  C10 UNL     1      57.871 -67.373   3.363  1.00  0.00     0.070 C 
HETATM   11  C11 UNL     1      60.159 -68.552   2.853  1.00  0.00     0.042 A 
ENDROOT
BRANCH   2  12
HETATM   12  N1  UNL     1      63.569 -69.119   4.286  1.00  0.00    -0.319 N 
HETATM   13  C5  UNL     1      63.751 -69.719   5.532  1.00  0.00     0.240 C 
HETATM   14  O3  UNL     1      62.824 -70.237   6.196  1.00  0.00    -0.271 OA
ATOM     15  H1  UNL     1      64.425 -68.775   3.852  1.00  0.00     0.169 HD
BRANCH  13  16
HETATM   16  C6  UNL     1      65.102 -69.786   6.179  1.00  0.00     0.227 C 
BRANCH  16  17
HETATM   17  N2  UNL     1      64.928 -69.802   7.606  1.00  0.00    -0.337 N 
HETATM   18  C7  UNL     1      65.766 -70.562   8.442  1.00  0.00     0.329 C 
HETATM   19  N3  UNL     1      65.585 -70.569   9.836  1.00  0.00    -0.040 NA
HETATM   20  O4  UNL     1      66.695 -71.252   7.933  1.00  0.00    -0.251 OA
ATOM     21  H2  UNL     1      64.179 -69.248   8.023  1.00  0.00     0.164 HD
ENDBRANCH  16  17
ENDBRANCH  13  16
ENDBRANCH   2  12
BRANCH   1  22
HETATM   22  C2  UNL     1      61.132 -67.130   4.662  1.00  0.00     0.296 C 
HETATM   23  O2  UNL     1      60.522 -66.081   4.477  1.00  0.00    -0.259 OA
BRANCH  22  24
HETATM   24  O1  UNL     1      61.825 -67.144   5.893  1.00  0.00    -0.322 OA
HETATM   25  C1  UNL     1      62.736 -66.136   6.268  1.00  0.00     0.213 C 
ENDBRANCH  22  24
ENDBRANCH   1  22
TORSDOF 5
ENDMDL
MODEL 2
REMARK VINA RESULT: -7.818547677      5.112      7.188
REMARK  5 active torsions:
REMARK  status: ('A' for Active; 'I' for Inactive)
REMARK    1  A    between atoms: O1_2  and  C2_3 
REMARK    2  A    between atoms: C2_3  and  C3_5 
REMARK    3  A    between atoms: C4_6  and  N1_7 
REMARK       I    between atoms: N1_7  and  C5_9 
REMARK    4  A    between atoms: C5_9  and  C6_11 
REMARK    5  A    between atoms: C6_11  and  N2_12 
REMARK       I    between atoms: N2_12  and  C7_14 
ROOT
HETATM    1  C3  UNL     1      61.648 -63.904   8.964  1.00  0.00     0.088 A 
HETATM    2  C4  UNL     1      62.426 -64.947   9.357  1.00  0.00     0.096 A 
HETATM    3  S1  UNL     1      63.154 -64.311  10.827  1.00  0.00    -0.051 SA
HETATM    4  C8  UNL     1      62.443 -62.777  10.834  1.00  0.00     0.104 A 
HETATM    5  N4  UNL     1      62.390 -61.590  11.527  1.00  0.00    -0.293 N 
ATOM      6  H4  UNL     1      62.888 -61.358  12.387  1.00  0.00     0.187 HD
HETATM    7  N5  UNL     1      61.591 -60.836  10.876  1.00  0.00    -0.303 N 
ATOM      8  H5  UNL     1      61.351 -59.884  11.151  1.00  0.00     0.186 HD
HETATM    9  C9  UNL     1      61.091 -61.468   9.755  1.00  0.00     0.036 A 
HETATM   10  C10 UNL     1      60.164 -60.778   8.839  1.00  0.00     0.070 C 
HETATM   11  C11 UNL     1      61.646 -62.757   9.717  1.00  0.00     0.042 A 
ENDROOT
BRANCH   2  12
HETATM   12  N1  UNL     1      62.906 -66.148   8.759  1.00  0.00    -0.319 N 
HETATM   13  C5  UNL     1      63.696 -66.349   7.627  1.00  0.00     0.240 C 
HETATM   14  O3  UNL     1      64.171 -65.419   6.936  1.00  0.00    -0.271 OA
ATOM     15  H1  UNL     1      62.625 -67.003   9.238  1.00  0.00     0.169 HD
BRANCH  13  16
HETATM   16  C6  UNL     1      64.040 -67.728   7.148  1.00  0.00     0.227 C 
BRANCH  16  17
HETATM   17  N2  UNL     1      64.447 -68.519   8.277  1.00  0.00    -0.337 N 
HETATM   18  C7  UNL     1      65.270 -69.651   8.126  1.00  0.00     0.329 C 
HETATM   19  N3  UNL     1      65.661 -70.415   9.239  1.00  0.00    -0.040 NA
HETATM   20  O4  UNL     1      65.663 -69.986   6.972  1.00  0.00    -0.251 OA
ATOM     21  H2  UNL     1      64.133 -68.254   9.211  1.00  0.00     0.164 HD
ENDBRANCH  16  17
ENDBRANCH  13  16
ENDBRANCH   2  12
BRANCH   1  22
HETATM   22  C2  UNL     1      60.592 -64.149   7.931  1.00  0.00     0.296 C 
HETATM   23  O2  UNL     1      59.381 -64.026   8.092  1.00  0.00    -0.259 OA
BRANCH  22  24
HETATM   24  O1  UNL     1      60.923 -64.584   6.627  1.00  0.00    -0.322 OA
HETATM   25  C1  UNL     1      61.339 -63.702   5.610  1.00  0.00     0.213 C 
ENDBRANCH  22  24
ENDBRANCH   1  22
TORSDOF 5
ENDMDL
MODEL 3
REMARK VINA RESULT: -7.817955677      2.941      3.687
REMARK  5 active torsions:
REMARK  status: ('A' for Active; 'I' for Inactive)
REMARK    1  A    between atoms: O1_2  and  C2_3 
REMARK    2  A    between atoms: C2_3  and  C3_5 
REMARK    3  A    between atoms: C4_6  and  N1_7 
REMARK       I    between atoms: N1_7  and  C5_9 
REMARK    4  A    between atoms: C5_9  and  C6_11 
REMARK    5  A    between atoms: C6_11  and  N2_12 
REMARK       I    between atoms: N2_12  and  C7_14 
ROOT
HETATM    1  C3  UNL     1      62.333 -68.197   2.345  1.00  0.00     0.088 A 
HETATM    2  C4  UNL     1      62.754 -68.260   3.636  1.00  0.00     0.096 A 
HETATM    3  S1  UNL     1      62.984 -66.558   4.017  1.00  0.00    -0.051 SA
HETATM    4  C8  UNL     1      62.552 -65.891   2.526  1.00  0.00     0.104 A 
HETATM    5  N4  UNL     1      62.427 -64.702   1.844  1.00  0.00    -0.293 N 
ATOM      6  H4  UNL     1      62.607 -63.765   2.206  1.00  0.00     0.187 HD
HETATM    7  N5  UNL     1      62.038 -65.008   0.668  1.00  0.00    -0.303 N 
ATOM      8  H5  UNL     1      61.857 -64.328  -0.070  1.00  0.00     0.186 HD
HETATM    9  C9  UNL     1      61.891 -66.373   0.516  1.00  0.00     0.036 A 
HETATM   10  C10 UNL     1      61.471 -66.958  -0.771  1.00  0.00     0.070 C 
HETATM   11  C11 UNL     1      62.227 -66.970   1.742  1.00  0.00     0.042 A 
ENDROOT
BRANCH   2  12
HETATM   12  N1  UNL     1      63.237 -69.280   4.507  1.00  0.00    -0.319 N 
HETATM   13  C5  UNL     1      63.210 -69.377   5.898  1.00  0.00     0.240 C 
HETATM   14  O3  UNL     1      62.675 -68.526   6.644  1.00  0.00    -0.271 OA
ATOM     15  H1  UNL     1      63.675 -70.071   4.035  1.00  0.00     0.169 HD
BRANCH  13  16
HETATM   16  C6  UNL     1      63.835 -70.537   6.614  1.00  0.00     0.227 C 
BRANCH  16  17
HETATM   17  N2  UNL     1      65.232 -70.258   6.810  1.00  0.00    -0.337 N 
HETATM   18  C7  UNL     1      65.836 -70.373   8.075  1.00  0.00     0.329 C 
HETATM   19  N3  UNL     1      67.203 -70.097   8.252  1.00  0.00    -0.040 NA
HETATM   20  O4  UNL     1      65.141 -70.729   9.068  1.00  0.00    -0.251 OA
ATOM     21  H2  UNL     1      65.799 -69.969   6.012  1.00  0.00     0.164 HD
ENDBRANCH  16  17
ENDBRANCH  13  16
ENDBRANCH   2  12
BRANCH   1  22
HETATM   22  C2  UNL     1      61.700 -69.411   1.740  1.00  0.00     0.296 C 
HETATM   23  O2  UNL     1      62.250 -70.218   0.994  1.00  0.00    -0.259 OA
BRANCH  22  24
HETATM   24  O1  UNL     1      60.344 -69.730   1.976  1.00  0.00    -0.322 OA
HETATM   25  C1  UNL     1      59.279 -68.937   1.506  1.00  0.00     0.213 C 
ENDBRANCH  22  24
ENDBRANCH   1  22
TORSDOF 5
ENDMDL
MODEL 4
REMARK VINA RESULT: -7.698017670      2.964      3.706
REMARK  5 active torsions:
REMARK  status: ('A' for Active; 'I' for Inactive)
REMARK    1  A    between atoms: O1_2  and  C2_3 
REMARK    2  A    between atoms: C2_3  and  C3_5 
REMARK    3  A    between atoms: C4_6  and  N1_7 
REMARK       I    between atoms: N1_7  and  C5_9 
REMARK    4  A    between atoms: C5_9  and  C6_11 
REMARK    5  A    between atoms: C6_11  and  N2_12 
REMARK       I    between atoms: N2_12  and  C7_14 
ROOT
HETATM    1  C3  UNL     1      61.492 -68.096   2.452  1.00  0.00     0.088 A 
HETATM    2  C4  UNL     1      61.490 -68.119   3.811  1.00  0.00     0.096 A 
HETATM    3  S1  UNL     1      61.317 -66.410   4.194  1.00  0.00    -0.051 SA
HETATM    4  C8  UNL     1      61.278 -65.789   2.623  1.00  0.00     0.104 A 
HETATM    5  N4  UNL     1      61.187 -64.621   1.901  1.00  0.00    -0.293 N 
ATOM      6  H4  UNL     1      61.095 -63.675   2.273  1.00  0.00     0.187 HD
HETATM    7  N5  UNL     1      61.242 -64.959   0.671  1.00  0.00    -0.303 N 
ATOM      8  H5  UNL     1      61.198 -64.301  -0.106  1.00  0.00     0.186 HD
HETATM    9  C9  UNL     1      61.367 -66.327   0.523  1.00  0.00     0.036 A 
HETATM   10  C10 UNL     1      61.471 -66.944  -0.813  1.00  0.00     0.070 C 
HETATM   11  C11 UNL     1      61.390 -66.889   1.809  1.00  0.00     0.042 A 
ENDROOT
BRANCH   2  12
HETATM   12  N1  UNL     1      61.828 -69.068   4.820  1.00  0.00    -0.319 N 
HETATM   13  C5  UNL     1      62.946 -69.156   5.649  1.00  0.00     0.240 C 
HETATM   14  O3  UNL     1      63.876 -68.317   5.653  1.00  0.00    -0.271 OA
ATOM     15  H1  UNL     1      61.137 -69.805   4.958  1.00  0.00     0.169 HD
BRANCH  13  16
HETATM   16  C6  UNL     1      63.115 -70.289   6.616  1.00  0.00     0.227 C 
BRANCH  16  17
HETATM   17  N2  UNL     1      64.293 -70.048   7.405  1.00  0.00    -0.337 N 
HETATM   18  C7  UNL     1      64.464 -70.635   8.672  1.00  0.00     0.329 C 
HETATM   19  N3  UNL     1      65.621 -70.391   9.432  1.00  0.00    -0.040 NA
HETATM   20  O4  UNL     1      63.565 -71.392   9.136  1.00  0.00    -0.251 OA
ATOM     21  H2  UNL     1      65.023 -69.438   7.036  1.00  0.00     0.164 HD
ENDBRANCH  16  17
ENDBRANCH  13  16
ENDBRANCH   2  12
BRANCH   1  22
HETATM   22  C2  UNL     1      61.281 -69.382   1.715  1.00  0.00     0.296 C 
HETATM   23  O2  UNL     1      62.145 -70.030   1.129  1.00  0.00    -0.259 OA
BRANCH  22  24
HETATM   24  O1  UNL     1      60.001 -69.972   1.614  1.00  0.00    -0.322 OA
HETATM   25  C1  UNL     1      58.839 -69.232   1.321  1.00  0.00     0.213 C 
ENDBRANCH  22  24
ENDBRANCH   1  22
TORSDOF 5
ENDMDL
MODEL 5
REMARK VINA RESULT: -7.574851474      4.459      8.102
REMARK  5 active torsions:
REMARK  status: ('A' for Active; 'I' for Inactive)
REMARK    1  A    between atoms: O1_2  and  C2_3 
REMARK    2  A    between atoms: C2_3  and  C3_5 
REMARK    3  A    between atoms: C4_6  and  N1_7 
REMARK       I    between atoms: N1_7  and  C5_9 
REMARK    4  A    between atoms: C5_9  and  C6_11 
REMARK    5  A    between atoms: C6_11  and  N2_12 
REMARK       I    between atoms: N2_12  and  C7_14 
ROOT
HETATM    1  C3  UNL     1      61.966 -66.580   1.674  1.00  0.00     0.088 A 
HETATM    2  C4  UNL     1      61.488 -67.289   0.617  1.00  0.00     0.096 A 
HETATM    3  S1  UNL     1      61.766 -68.944   1.146  1.00  0.00    -0.051 SA
HETATM    4  C8  UNL     1      62.476 -68.628   2.646  1.00  0.00     0.104 A 
HETATM    5  N4  UNL     1      63.029 -69.230   3.753  1.00  0.00    -0.293 N 
ATOM      6  H4  UNL     1      63.130 -70.232   3.921  1.00  0.00     0.187 HD
HETATM    7  N5  UNL     1      63.389 -68.283   4.529  1.00  0.00    -0.303 N 
ATOM      8  H5  UNL     1      63.835 -68.423   5.435  1.00  0.00     0.186 HD
HETATM    9  C9  UNL     1      63.102 -67.044   3.990  1.00  0.00     0.036 A 
HETATM   10  C10 UNL     1      63.451 -65.801   4.703  1.00  0.00     0.070 C 
HETATM   11  C11 UNL     1      62.494 -67.259   2.743  1.00  0.00     0.042 A 
ENDROOT
BRANCH   2  12
HETATM   12  N1  UNL     1      61.126 -66.998  -0.731  1.00  0.00    -0.319 N 
HETATM   13  C5  UNL     1      61.824 -66.332  -1.737  1.00  0.00     0.240 C 
HETATM   14  O3  UNL     1      62.988 -65.890  -1.601  1.00  0.00    -0.271 OA
ATOM     15  H1  UNL     1      60.202 -67.333  -1.004  1.00  0.00     0.169 HD
BRANCH  13  16
HETATM   16  C6  UNL     1      61.214 -66.094  -3.087  1.00  0.00     0.227 C 
BRANCH  16  17
HETATM   17  N2  UNL     1      61.193 -64.679  -3.338  1.00  0.00    -0.337 N 
HETATM   18  C7  UNL     1      60.016 -63.922  -3.192  1.00  0.00     0.329 C 
HETATM   19  N3  UNL     1      60.010 -62.539  -3.441  1.00  0.00    -0.040 NA
HETATM   20  O4  UNL     1      58.948 -64.493  -2.832  1.00  0.00    -0.251 OA
ATOM     21  H2  UNL     1      62.052 -64.212  -3.629  1.00  0.00     0.164 HD
ENDBRANCH  16  17
ENDBRANCH  13  16
ENDBRANCH   2  12
BRANCH   1  22
HETATM   22  C2  UNL     1      61.611 -65.129   1.781  1.00  0.00     0.296 C 
HETATM   23  O2  UNL     1      62.365 -64.184   1.567  1.00  0.00    -0.259 OA
BRANCH  22  24
HETATM   24  O1  UNL     1      60.320 -64.713   2.176  1.00  0.00    -0.322 OA
HETATM   25  C1  UNL     1      59.986 -64.425   3.514  1.00  0.00     0.213 C 
ENDBRANCH  22  24
ENDBRANCH   1  22
TORSDOF 5
ENDMDL
