MODEL 1
REMARK VINA RESULT: -7.946400531      0.000      0.000
REMARK  5 active torsions:
REMARK  status: ('A' for Active; 'I' for Inactive)
REMARK    1  A    between atoms: C2_2  and  C4_4 
REMARK    2  A    between atoms: C4_4  and  C5_5 
REMARK    3  A    between atoms: C4_4  and  C10_16 
REMARK    4  A    between atoms: C10_16  and  O3_17 
REMARK    5  A    between atoms: C10_16  and  C11_19 
ROOT
HETATM    1  C4  UNL     1      61.783 -67.656   4.133  1.00  0.00    -0.000 C 
ENDROOT
BRANCH   1   2
HETATM    2  C2  UNL     1      62.425 -66.828   5.098  1.00  0.00    -0.061 C 
HETATM    3  C1  UNL     1      61.859 -66.206   6.108  1.00  0.00     0.019 C 
HETATM    4  C3  UNL     1      63.922 -66.496   4.984  1.00  0.00     0.048 C 
ENDBRANCH   1   2
BRANCH   1   5
HETATM    5  C5  UNL     1      61.045 -67.165   2.972  1.00  0.00     0.064 A 
HETATM    6  C6  UNL     1      59.683 -67.318   2.820  1.00  0.00     0.026 A 
HETATM    7  C7  UNL     1      58.856 -67.971   3.807  1.00  0.00     0.069 C 
HETATM    8  N1  UNL     1      59.107 -66.839   1.685  1.00  0.00    -0.312 N 
HETATM    9  C8  UNL     1      59.751 -66.235   0.696  1.00  0.00     0.327 A 
ATOM     10  H1  UNL     1      58.099 -66.955   1.586  1.00  0.00     0.170 HD
HETATM   11  O1  UNL     1      59.152 -65.810  -0.331  1.00  0.00    -0.247 OA
HETATM   12  N2  UNL     1      61.062 -66.076   0.799  1.00  0.00    -0.275 N 
HETATM   13  C9  UNL     1      61.686 -66.535   1.908  1.00  0.00     0.262 A 
ATOM     14  H2  UNL     1      61.590 -65.618   0.056  1.00  0.00     0.173 HD
HETATM   15  O2  UNL     1      62.947 -66.338   1.873  1.00  0.00    -0.267 OA
ENDBRANCH   1   5
BRANCH   1  16
HETATM   16  C10 UNL     1      62.166 -69.135   4.053  1.00  0.00     0.211 C 
BRANCH  16  17
HETATM   17  O3  UNL     1      63.209 -69.214   3.081  1.00  0.00    -0.384 OA
ATOM     18  H3  UNL     1      64.019 -69.078   3.559  1.00  0.00     0.211 HD
ENDBRANCH  16  17
BRANCH  16  19
HETATM   19  C11 UNL     1      62.862 -69.614   5.282  1.00  0.00     0.103 A 
HETATM   20  N3  UNL     1      64.126 -70.029   5.247  1.00  0.00    -0.293 N 
HETATM   21  N4  UNL     1      64.680 -70.484   6.292  1.00  0.00    -0.279 N 
ATOM     22  H3  UNL     1      64.652 -69.981   4.374  1.00  0.00     0.187 HD
HETATM   23  C12 UNL     1      63.972 -70.537   7.420  1.00  0.00     0.158 A 
ATOM     24  H4  UNL     1      65.648 -70.803   6.271  1.00  0.00     0.189 HD
HETATM   25  N5  UNL     1      64.354 -70.963   8.598  1.00  0.00    -0.379 N 
HETATM   26  S1  UNL     1      62.459 -69.893   6.882  1.00  0.00    -0.035 SA
ATOM     27  H52 UNL     1      65.246 -71.342   8.915  1.00  0.00     0.158 HD
ATOM     28  H51 UNL     1      63.813 -71.004   9.461  1.00  0.00     0.158 HD
ENDBRANCH  16  19
ENDBRANCH   1  16
TORSDOF 5
ENDMDL
MODEL 2
REMARK VINA RESULT: -7.865880151      1.884      2.940
REMARK  5 active torsions:
REMARK  status: ('A' for Active; 'I' for Inactive)
REMARK    1  A    between atoms: C2_2  and  C4_4 
REMARK    2  A    between atoms: C4_4  and  C5_5 
REMARK    3  A    between atoms: C4_4  and  C10_16 
REMARK    4  A    between atoms: C10_16  and  O3_17 
REMARK    5  A    between atoms: C10_16  and  C11_19 
ROOT
HETATM    1  C4  UNL     1      61.090 -66.739   2.915  1.00  0.00    -0.000 C 
ENDROOT
BRANCH   1   2
HETATM    2  C2  UNL     1      59.871 -66.707   3.652  1.00  0.00    -0.061 C 
HETATM    3  C1  UNL     1      59.379 -65.690   4.325  1.00  0.00     0.019 C 
HETATM    4  C3  UNL     1      59.009 -67.970   3.809  1.00  0.00     0.048 C 
ENDBRANCH   1   2
BRANCH   1   5
HETATM    5  C5  UNL     1      61.189 -66.610   1.464  1.00  0.00     0.064 A 
HETATM    6  C6  UNL     1      61.116 -65.402   0.804  1.00  0.00     0.026 A 
HETATM    7  C7  UNL     1      60.946 -64.145   1.494  1.00  0.00     0.069 C 
HETATM    8  N1  UNL     1      61.198 -65.407  -0.553  1.00  0.00    -0.312 N 
HETATM    9  C8  UNL     1      61.338 -66.487  -1.307  1.00  0.00     0.327 A 
ATOM     10  H1  UNL     1      61.147 -64.506  -1.029  1.00  0.00     0.170 HD
HETATM   11  O1  UNL     1      61.413 -66.419  -2.566  1.00  0.00    -0.247 OA
HETATM   12  N2  UNL     1      61.404 -67.669  -0.713  1.00  0.00    -0.275 N 
HETATM   13  C9  UNL     1      61.327 -67.722   0.636  1.00  0.00     0.262 A 
ATOM     14  H2  UNL     1      61.510 -68.522  -1.263  1.00  0.00     0.173 HD
HETATM   15  O2  UNL     1      61.382 -68.918   1.080  1.00  0.00    -0.267 OA
ENDBRANCH   1   5
BRANCH   1  16
HETATM   16  C10 UNL     1      62.410 -66.522   3.657  1.00  0.00     0.211 C 
BRANCH  16  17
HETATM   17  O3  UNL     1      62.114 -65.615   4.720  1.00  0.00    -0.384 OA
ATOM     18  H3  UNL     1      62.792 -65.751   5.372  1.00  0.00     0.211 HD
ENDBRANCH  16  17
BRANCH  16  19
HETATM   19  C11 UNL     1      62.852 -67.733   4.408  1.00  0.00     0.103 A 
HETATM   20  N3  UNL     1      63.106 -68.881   3.786  1.00  0.00    -0.293 N 
HETATM   21  N4  UNL     1      63.427 -69.912   4.450  1.00  0.00    -0.279 N 
ATOM     22  H3  UNL     1      63.043 -68.932   2.769  1.00  0.00     0.187 HD
HETATM   23  C12 UNL     1      63.504 -69.820   5.777  1.00  0.00     0.158 A 
ATOM     24  H4  UNL     1      63.623 -70.794   3.979  1.00  0.00     0.189 HD
HETATM   25  N5  UNL     1      63.819 -70.754   6.638  1.00  0.00    -0.379 N 
HETATM   26  S1  UNL     1      63.083 -68.158   6.010  1.00  0.00    -0.035 SA
ATOM     27  H52 UNL     1      64.067 -71.734   6.501  1.00  0.00     0.158 HD
ATOM     28  H51 UNL     1      63.877 -70.684   7.654  1.00  0.00     0.158 HD
ENDBRANCH  16  19
ENDBRANCH   1  16
TORSDOF 5
ENDMDL
MODEL 3
REMARK VINA RESULT: -7.780151988      1.892      2.729
REMARK  5 active torsions:
REMARK  status: ('A' for Active; 'I' for Inactive)
REMARK    1  A    between atoms: C2_2  and  C4_4 
REMARK    2  A    between atoms: C4_4  and  C5_5 
REMARK    3  A    between atoms: C4_4  and  C10_16 
REMARK    4  A    between atoms: C10_16  and  O3_17 
REMARK    5  A    between atoms: C10_16  and  C11_19 
ROOT
HETATM    1  C4  UNL     1      61.054 -66.943   2.973  1.00  0.00    -0.000 C 
ENDROOT
BRANCH   1   2
HETATM    2  C2  UNL     1      59.845 -66.916   3.725  1.00  0.00    -0.061 C 
HETATM    3  C1  UNL     1      58.997 -67.906   3.897  1.00  0.00     0.019 C 
HETATM    4  C3  UNL     1      59.347 -65.614   4.375  1.00  0.00     0.048 C 
ENDBRANCH   1   2
BRANCH   1   5
HETATM    5  C5  UNL     1      61.133 -66.834   1.519  1.00  0.00     0.064 A 
HETATM    6  C6  UNL     1      61.325 -67.917   0.688  1.00  0.00     0.026 A 
HETATM    7  C7  UNL     1      61.454 -69.268   1.182  1.00  0.00     0.069 C 
HETATM    8  N1  UNL     1      61.405 -67.692  -0.651  1.00  0.00    -0.312 N 
HETATM    9  C8  UNL     1      61.319 -66.505  -1.234  1.00  0.00     0.327 A 
ATOM     10  H1  UNL     1      61.543 -68.502  -1.255  1.00  0.00     0.170 HD
HETATM   11  O1  UNL     1      61.398 -66.367  -2.486  1.00  0.00    -0.247 OA
HETATM   12  N2  UNL     1      61.144 -65.437  -0.470  1.00  0.00    -0.275 N 
HETATM   13  C9  UNL     1      61.058 -65.604   0.869  1.00  0.00     0.262 A 
ATOM     14  H2  UNL     1      61.076 -64.507  -0.884  1.00  0.00     0.173 HD
HETATM   15  O2  UNL     1      60.910 -64.497   1.489  1.00  0.00    -0.267 OA
ENDBRANCH   1   5
BRANCH   1  16
HETATM   16  C10 UNL     1      62.381 -66.698   3.694  1.00  0.00     0.211 C 
BRANCH  16  17
HETATM   17  O3  UNL     1      62.107 -65.709   4.687  1.00  0.00    -0.384 OA
ATOM     18  H3  UNL     1      62.804 -65.786   5.328  1.00  0.00     0.211 HD
ENDBRANCH  16  17
BRANCH  16  19
HETATM   19  C11 UNL     1      62.802 -67.858   4.532  1.00  0.00     0.103 A 
HETATM   20  N3  UNL     1      63.289 -68.969   3.984  1.00  0.00    -0.293 N 
HETATM   21  N4  UNL     1      63.588 -69.963   4.712  1.00  0.00    -0.279 N 
ATOM     22  H3  UNL     1      63.422 -69.021   2.974  1.00  0.00     0.187 HD
HETATM   23  C12 UNL     1      63.406 -69.870   6.028  1.00  0.00     0.158 A 
ATOM     24  H4  UNL     1      63.961 -70.816   4.297  1.00  0.00     0.189 HD
HETATM   25  N5  UNL     1      63.653 -70.770   6.946  1.00  0.00    -0.379 N 
HETATM   26  S1  UNL     1      62.775 -68.265   6.155  1.00  0.00    -0.035 SA
ATOM     27  H52 UNL     1      64.025 -71.717   6.872  1.00  0.00     0.158 HD
ATOM     28  H51 UNL     1      63.513 -70.700   7.954  1.00  0.00     0.158 HD
ENDBRANCH  16  19
ENDBRANCH   1  16
TORSDOF 5
ENDMDL
MODEL 4
REMARK VINA RESULT: -7.597176005      2.587      5.983
REMARK  5 active torsions:
REMARK  status: ('A' for Active; 'I' for Inactive)
REMARK    1  A    between atoms: C2_2  and  C4_4 
REMARK    2  A    between atoms: C4_4  and  C5_5 
REMARK    3  A    between atoms: C4_4  and  C10_16 
REMARK    4  A    between atoms: C10_16  and  O3_17 
REMARK    5  A    between atoms: C10_16  and  C11_19 
ROOT
HETATM    1  C4  UNL     1      62.066 -67.227   4.648  1.00  0.00    -0.000 C 
ENDROOT
BRANCH   1   2
HETATM    2  C2  UNL     1      62.765 -66.193   3.962  1.00  0.00    -0.061 C 
HETATM    3  C1  UNL     1      63.303 -65.116   4.489  1.00  0.00     0.019 C 
HETATM    4  C3  UNL     1      62.885 -66.202   2.429  1.00  0.00     0.048 C 
ENDBRANCH   1   2
BRANCH   1   5
HETATM    5  C5  UNL     1      62.665 -68.127   5.630  1.00  0.00     0.064 A 
HETATM    6  C6  UNL     1      62.830 -67.798   6.958  1.00  0.00     0.026 A 
HETATM    7  C7  UNL     1      62.411 -66.529   7.506  1.00  0.00     0.069 C 
HETATM    8  N1  UNL     1      63.422 -68.708   7.776  1.00  0.00    -0.312 N 
HETATM    9  C8  UNL     1      63.866 -69.899   7.401  1.00  0.00     0.327 A 
ATOM     10  H1  UNL     1      63.534 -68.454   8.758  1.00  0.00     0.170 HD
HETATM   11  O1  UNL     1      64.403 -70.700   8.216  1.00  0.00    -0.247 OA
HETATM   12  N2  UNL     1      63.735 -70.252   6.131  1.00  0.00    -0.275 N 
HETATM   13  C9  UNL     1      63.153 -69.382   5.274  1.00  0.00     0.262 A 
ATOM     14  H2  UNL     1      64.068 -71.160   5.807  1.00  0.00     0.173 HD
HETATM   15  O2  UNL     1      63.107 -69.834   4.080  1.00  0.00    -0.267 OA
ENDBRANCH   1   5
BRANCH   1  16
HETATM   16  C10 UNL     1      60.537 -67.197   4.675  1.00  0.00     0.211 C 
BRANCH  16  17
HETATM   17  O3  UNL     1      60.171 -65.836   4.444  1.00  0.00    -0.384 OA
ATOM     18  H3  UNL     1      60.562 -65.340   5.154  1.00  0.00     0.211 HD
ENDBRANCH  16  17
BRANCH  16  19
HETATM   19  C11 UNL     1      59.929 -67.877   3.494  1.00  0.00     0.103 A 
HETATM   20  N3  UNL     1      60.543 -68.887   2.883  1.00  0.00    -0.293 N 
HETATM   21  N4  UNL     1      60.034 -69.413   1.848  1.00  0.00    -0.279 N 
ATOM     22  H3  UNL     1      61.427 -69.241   3.249  1.00  0.00     0.187 HD
HETATM   23  C12 UNL     1      58.878 -68.935   1.389  1.00  0.00     0.158 A 
ATOM     24  H4  UNL     1      60.500 -70.187   1.376  1.00  0.00     0.189 HD
HETATM   25  N5  UNL     1      58.190 -69.335   0.350  1.00  0.00    -0.379 N 
HETATM   26  S1  UNL     1      58.570 -67.679   2.538  1.00  0.00    -0.035 SA
ATOM     27  H52 UNL     1      58.372 -70.076  -0.328  1.00  0.00     0.158 HD
ATOM     28  H51 UNL     1      57.306 -68.969  -0.002  1.00  0.00     0.158 HD
ENDBRANCH  16  19
ENDBRANCH   1  16
TORSDOF 5
ENDMDL
MODEL 5
REMARK VINA RESULT: -7.572583979      2.377      3.369
REMARK  5 active torsions:
REMARK  status: ('A' for Active; 'I' for Inactive)
REMARK    1  A    between atoms: C2_2  and  C4_4 
REMARK    2  A    between atoms: C4_4  and  C5_5 
REMARK    3  A    between atoms: C4_4  and  C10_16 
REMARK    4  A    between atoms: C10_16  and  O3_17 
REMARK    5  A    between atoms: C10_16  and  C11_19 
ROOT
HETATM    1  C4  UNL     1      61.247 -65.650   2.755  1.00  0.00    -0.000 C 
ENDROOT
BRANCH   1   2
HETATM    2  C2  UNL     1      60.858 -64.281   2.692  1.00  0.00    -0.061 C 
HETATM    3  C1  UNL     1      60.103 -63.632   3.550  1.00  0.00     0.019 C 
HETATM    4  C3  UNL     1      61.242 -63.405   1.488  1.00  0.00     0.048 C 
ENDBRANCH   1   2
BRANCH   1   5
HETATM    5  C5  UNL     1      60.477 -66.760   2.201  1.00  0.00     0.064 A 
HETATM    6  C6  UNL     1      60.673 -67.260   0.931  1.00  0.00     0.026 A 
HETATM    7  C7  UNL     1      61.673 -66.735   0.032  1.00  0.00     0.069 C 
HETATM    8  N1  UNL     1      59.880 -68.282   0.514  1.00  0.00    -0.312 N 
HETATM    9  C8  UNL     1      58.917 -68.845   1.231  1.00  0.00     0.327 A 
ATOM     10  H1  UNL     1      60.038 -68.646  -0.425  1.00  0.00     0.170 HD
HETATM   11  O1  UNL     1      58.219 -69.797   0.783  1.00  0.00    -0.247 OA
HETATM   12  N2  UNL     1      58.689 -68.389   2.453  1.00  0.00    -0.275 N 
HETATM   13  C9  UNL     1      59.450 -67.371   2.918  1.00  0.00     0.262 A 
ATOM     14  H2  UNL     1      57.955 -68.796   3.032  1.00  0.00     0.173 HD
HETATM   15  O2  UNL     1      59.116 -67.013   4.098  1.00  0.00    -0.267 OA
ENDBRANCH   1   5
BRANCH   1  16
HETATM   16  C10 UNL     1      62.703 -65.993   3.074  1.00  0.00     0.211 C 
BRANCH  16  17
HETATM   17  O3  UNL     1      63.173 -64.943   3.920  1.00  0.00    -0.384 OA
ATOM     18  H3  UNL     1      63.362 -65.351   4.757  1.00  0.00     0.211 HD
ENDBRANCH  16  17
BRANCH  16  19
HETATM   19  C11 UNL     1      62.830 -67.181   3.968  1.00  0.00     0.103 A 
HETATM   20  N3  UNL     1      63.253 -68.355   3.506  1.00  0.00    -0.293 N 
HETATM   21  N4  UNL     1      63.300 -69.364   4.272  1.00  0.00    -0.279 N 
ATOM     22  H3  UNL     1      63.541 -68.443   2.532  1.00  0.00     0.187 HD
HETATM   23  C12 UNL     1      62.919 -69.223   5.541  1.00  0.00     0.158 A 
ATOM     24  H4  UNL     1      63.623 -70.266   3.923  1.00  0.00     0.189 HD
HETATM   25  N5  UNL     1      62.896 -70.129   6.486  1.00  0.00    -0.379 N 
HETATM   26  S1  UNL     1      62.486 -67.549   5.564  1.00  0.00    -0.035 SA
ATOM     27  H52 UNL     1      63.151 -71.117   6.472  1.00  0.00     0.158 HD
ATOM     28  H51 UNL     1      62.604 -70.022   7.457  1.00  0.00     0.158 HD
ENDBRANCH  16  19
ENDBRANCH   1  16
TORSDOF 5
ENDMDL
