MODEL 1
REMARK VINA RESULT: -7.627887416      0.000      0.000
REMARK  5 active torsions:
REMARK  status: ('A' for Active; 'I' for Inactive)
REMARK    1  A    between atoms: N1_2  and  C3_4 
REMARK    2  A    between atoms: C3_4  and  C4_5 
REMARK    3  A    between atoms: C4_5  and  C5_6 
REMARK    4  A    between atoms: C5_6  and  N2_7 
REMARK    5  A    between atoms: C9_21  and  N7_22 
REMARK       I    between atoms: N7_22  and  C10_24 
REMARK       I    between atoms: C10_24  and  N8_25 
REMARK       I    between atoms: C10_24  and  N9_29 
ROOT
HETATM    1  N2  UNL     1      58.815   8.225  26.669  1.00  0.00    -0.293 N 
HETATM    2  C6  UNL     1      59.641   9.284  26.422  1.00  0.00     0.328 A 
HETATM    3  O1  UNL     1      59.331  10.483  26.180  1.00  0.00    -0.246 OA
HETATM    4  N3  UNL     1      60.899   8.832  26.478  1.00  0.00    -0.292 N 
ATOM      5  H3  UNL     1      61.731   9.403  26.332  1.00  0.00     0.172 HD
HETATM    6  C7  UNL     1      60.908   7.500  26.758  1.00  0.00     0.156 A 
HETATM    7  N4  UNL     1      61.903   6.608  26.915  1.00  0.00    -0.174 N 
ATOM      8  H4  UNL     1      62.875   6.908  26.823  1.00  0.00     0.186 HD
HETATM    9  C8  UNL     1      61.621   5.331  27.192  1.00  0.00     0.679 A 
HETATM   10  N5  UNL     1      62.585   4.462  27.347  1.00  0.00    -0.234 N 
ATOM     11  H51 UNL     1      62.370   3.487  27.558  1.00  0.00     0.174 HD
ATOM     12  H52 UNL     1      63.566   4.728  27.261  1.00  0.00     0.174 HD
HETATM   13  N6  UNL     1      60.334   4.983  27.304  1.00  0.00    -0.175 N 
ATOM     14  H6  UNL     1      60.132   4.006  27.516  1.00  0.00     0.186 HD
HETATM   15  C9  UNL     1      59.285   5.812  27.162  1.00  0.00     0.151 A 
HETATM   16  C11 UNL     1      59.577   7.152  26.871  1.00  0.00     0.128 A 
ENDROOT
BRANCH  15  17
HETATM   17  N7  UNL     1      58.095   5.413  27.292  1.00  0.00    -0.325 N 
HETATM   18  C10 UNL     1      57.450   4.697  28.323  1.00  0.00     0.481 C 
HETATM   19  N8  UNL     1      58.020   3.394  28.625  1.00  0.00    -0.033 N 
HETATM   20  N9  UNL     1      57.322   5.466  29.541  1.00  0.00    -0.033 N 
ATOM     21  H83 UNL     1      58.065   2.827  27.779  1.00  0.00     0.278 HD
ATOM     22  H82 UNL     1      59.015   3.486  28.832  1.00  0.00     0.278 HD
ATOM     23  H81 UNL     1      57.554   2.876  29.370  1.00  0.00     0.278 HD
ATOM     24  H93 UNL     1      58.229   5.815  29.850  1.00  0.00     0.278 HD
ATOM     25  H92 UNL     1      56.855   6.356  29.365  1.00  0.00     0.278 HD
ATOM     26  H91 UNL     1      56.856   4.949  30.286  1.00  0.00     0.278 HD
ATOM     27  H7  UNL     1      57.487   5.652  26.508  1.00  0.00     0.165 HD
ENDBRANCH  15  17
BRANCH   1  28
HETATM   28  C5  UNL     1      57.397   8.310  26.694  1.00  0.00     0.136 C 
BRANCH  28  29
HETATM   29  C4  UNL     1      56.756   8.634  25.360  1.00  0.00     0.050 C 
BRANCH  29  30
HETATM   30  C3  UNL     1      56.360   7.309  24.750  1.00  0.00     0.273 C 
BRANCH  30  31
HETATM   31  N1  UNL     1      55.165   6.733  25.305  1.00  0.00     0.080 N 
HETATM   32  C1  UNL     1      54.082   7.071  24.367  1.00  0.00     0.309 C 
HETATM   33  C2  UNL     1      55.189   5.296  25.409  1.00  0.00     0.309 C 
ENDBRANCH  30  31
ENDBRANCH  29  30
ENDBRANCH  28  29
ENDBRANCH   1  28
TORSDOF 5
ENDMDL
MODEL 2
REMARK VINA RESULT: -7.539560180      3.474      5.084
REMARK  5 active torsions:
REMARK  status: ('A' for Active; 'I' for Inactive)
REMARK    1  A    between atoms: N1_2  and  C3_4 
REMARK    2  A    between atoms: C3_4  and  C4_5 
REMARK    3  A    between atoms: C4_5  and  C5_6 
REMARK    4  A    between atoms: C5_6  and  N2_7 
REMARK    5  A    between atoms: C9_21  and  N7_22 
REMARK       I    between atoms: N7_22  and  C10_24 
REMARK       I    between atoms: C10_24  and  N8_25 
REMARK       I    between atoms: C10_24  and  N9_29 
ROOT
HETATM    1  N2  UNL     1      59.118   5.904  30.248  1.00  0.00    -0.293 N 
HETATM    2  C6  UNL     1      60.279   5.285  30.611  1.00  0.00     0.328 A 
HETATM    3  O1  UNL     1      60.501   4.555  31.616  1.00  0.00    -0.246 OA
HETATM    4  N3  UNL     1      61.199   5.587  29.687  1.00  0.00    -0.292 N 
ATOM      5  H3  UNL     1      62.165   5.263  29.699  1.00  0.00     0.172 HD
HETATM    6  C7  UNL     1      60.658   6.390  28.730  1.00  0.00     0.156 A 
HETATM    7  N4  UNL     1      61.165   6.950  27.617  1.00  0.00    -0.174 N 
ATOM      8  H4  UNL     1      62.142   6.793  27.367  1.00  0.00     0.186 HD
HETATM    9  C8  UNL     1      60.391   7.713  26.838  1.00  0.00     0.679 A 
HETATM   10  N5  UNL     1      60.879   8.258  25.755  1.00  0.00    -0.234 N 
ATOM     11  H51 UNL     1      60.289   8.840  25.161  1.00  0.00     0.174 HD
ATOM     12  H52 UNL     1      61.851   8.121  25.477  1.00  0.00     0.174 HD
HETATM   13  N6  UNL     1      59.116   7.892  27.204  1.00  0.00    -0.175 N 
ATOM     14  H6  UNL     1      58.536   8.476  26.601  1.00  0.00     0.186 HD
HETATM   15  C9  UNL     1      58.536   7.368  28.298  1.00  0.00     0.151 A 
HETATM   16  C11 UNL     1      59.345   6.568  29.117  1.00  0.00     0.128 A 
ENDROOT
BRANCH  15  17
HETATM   17  N7  UNL     1      57.322   7.573  28.574  1.00  0.00    -0.325 N 
HETATM   18  C10 UNL     1      56.139   7.364  27.833  1.00  0.00     0.481 C 
HETATM   19  N8  UNL     1      56.069   8.072  26.564  1.00  0.00    -0.033 N 
HETATM   20  N9  UNL     1      55.852   5.963  27.625  1.00  0.00    -0.033 N 
ATOM     21  H83 UNL     1      56.219   9.069  26.710  1.00  0.00     0.278 HD
ATOM     22  H82 UNL     1      56.885   7.849  25.993  1.00  0.00     0.278 HD
ATOM     23  H81 UNL     1      55.215   7.920  26.028  1.00  0.00     0.278 HD
ATOM     24  H93 UNL     1      56.644   5.487  27.193  1.00  0.00     0.278 HD
ATOM     25  H92 UNL     1      55.822   5.460  28.512  1.00  0.00     0.278 HD
ATOM     26  H91 UNL     1      54.998   5.811  27.089  1.00  0.00     0.278 HD
ATOM     27  H7  UNL     1      57.166   7.962  29.504  1.00  0.00     0.165 HD
ENDBRANCH  15  17
BRANCH   1  28
HETATM   28  C5  UNL     1      57.907   5.819  30.987  1.00  0.00     0.136 C 
BRANCH  28  29
HETATM   29  C4  UNL     1      57.882   6.634  32.263  1.00  0.00     0.050 C 
BRANCH  29  30
HETATM   30  C3  UNL     1      56.439   7.030  32.483  1.00  0.00     0.273 C 
BRANCH  30  31
HETATM   31  N1  UNL     1      56.029   8.203  31.761  1.00  0.00     0.080 N 
HETATM   32  C1  UNL     1      54.706   7.886  31.197  1.00  0.00     0.309 C 
HETATM   33  C2  UNL     1      55.859   9.377  32.579  1.00  0.00     0.309 C 
ENDBRANCH  30  31
ENDBRANCH  29  30
ENDBRANCH  28  29
ENDBRANCH   1  28
TORSDOF 5
ENDMDL
MODEL 3
REMARK VINA RESULT: -7.523719736      1.659      5.112
REMARK  5 active torsions:
REMARK  status: ('A' for Active; 'I' for Inactive)
REMARK    1  A    between atoms: N1_2  and  C3_4 
REMARK    2  A    between atoms: C3_4  and  C4_5 
REMARK    3  A    between atoms: C4_5  and  C5_6 
REMARK    4  A    between atoms: C5_6  and  N2_7 
REMARK    5  A    between atoms: C9_21  and  N7_22 
REMARK       I    between atoms: N7_22  and  C10_24 
REMARK       I    between atoms: C10_24  and  N8_25 
REMARK       I    between atoms: C10_24  and  N9_29 
ROOT
HETATM    1  N2  UNL     1      58.917   8.737  26.038  1.00  0.00    -0.293 N 
HETATM    2  C6  UNL     1      58.695   9.980  25.522  1.00  0.00     0.328 A 
HETATM    3  O1  UNL     1      59.446  10.994  25.561  1.00  0.00    -0.246 OA
HETATM    4  N3  UNL     1      57.493   9.962  24.934  1.00  0.00    -0.292 N 
ATOM      5  H3  UNL     1      57.063  10.756  24.463  1.00  0.00     0.172 HD
HETATM    6  C7  UNL     1      56.929   8.729  25.057  1.00  0.00     0.156 A 
HETATM    7  N4  UNL     1      55.756   8.218  24.643  1.00  0.00    -0.174 N 
ATOM      8  H4  UNL     1      55.099   8.805  24.127  1.00  0.00     0.186 HD
HETATM    9  C8  UNL     1      55.449   6.944  24.907  1.00  0.00     0.679 A 
HETATM   10  N5  UNL     1      54.310   6.444  24.505  1.00  0.00    -0.234 N 
ATOM     11  H51 UNL     1      54.076   5.471  24.707  1.00  0.00     0.174 HD
ATOM     12  H52 UNL     1      53.631   7.002  23.987  1.00  0.00     0.174 HD
HETATM   13  N6  UNL     1      56.340   6.212  25.586  1.00  0.00    -0.175 N 
ATOM     14  H6  UNL     1      56.094   5.241  25.781  1.00  0.00     0.186 HD
HETATM   15  C9  UNL     1      57.531   6.648  26.033  1.00  0.00     0.151 A 
HETATM   16  C11 UNL     1      57.856   7.984  25.758  1.00  0.00     0.128 A 
ENDROOT
BRANCH  15  17
HETATM   17  N7  UNL     1      58.325   5.895  26.660  1.00  0.00    -0.325 N 
HETATM   18  C10 UNL     1      58.240   5.281  27.928  1.00  0.00     0.481 C 
HETATM   19  N8  UNL     1      58.071   6.192  29.049  1.00  0.00    -0.033 N 
HETATM   20  N9  UNL     1      57.226   4.251  27.982  1.00  0.00    -0.033 N 
ATOM     21  H83 UNL     1      58.813   6.891  29.047  1.00  0.00     0.278 HD
ATOM     22  H82 UNL     1      57.260   6.792  28.894  1.00  0.00     0.278 HD
ATOM     23  H81 UNL     1      58.008   5.749  29.965  1.00  0.00     0.278 HD
ATOM     24  H93 UNL     1      56.319   4.615  27.689  1.00  0.00     0.278 HD
ATOM     25  H92 UNL     1      57.370   3.557  27.248  1.00  0.00     0.278 HD
ATOM     26  H91 UNL     1      57.164   3.808  28.898  1.00  0.00     0.278 HD
ATOM     27  H7  UNL     1      59.190   5.691  26.157  1.00  0.00     0.165 HD
ENDBRANCH  15  17
BRANCH   1  28
HETATM   28  C5  UNL     1      60.094   8.365  26.742  1.00  0.00     0.136 C 
BRANCH  28  29
HETATM   29  C4  UNL     1      60.233   8.982  28.118  1.00  0.00     0.050 C 
BRANCH  29  30
HETATM   30  C3  UNL     1      61.633   8.655  28.587  1.00  0.00     0.273 C 
BRANCH  30  31
HETATM   31  N1  UNL     1      61.936   7.250  28.618  1.00  0.00     0.080 N 
HETATM   32  C1  UNL     1      63.404   7.156  28.674  1.00  0.00     0.309 C 
HETATM   33  C2  UNL     1      61.432   6.557  29.776  1.00  0.00     0.309 C 
ENDBRANCH  30  31
ENDBRANCH  29  30
ENDBRANCH  28  29
ENDBRANCH   1  28
TORSDOF 5
ENDMDL
MODEL 4
REMARK VINA RESULT: -7.507367061      2.856      4.485
REMARK  5 active torsions:
REMARK  status: ('A' for Active; 'I' for Inactive)
REMARK    1  A    between atoms: N1_2  and  C3_4 
REMARK    2  A    between atoms: C3_4  and  C4_5 
REMARK    3  A    between atoms: C4_5  and  C5_6 
REMARK    4  A    between atoms: C5_6  and  N2_7 
REMARK    5  A    between atoms: C9_21  and  N7_22 
REMARK       I    between atoms: N7_22  and  C10_24 
REMARK       I    between atoms: C10_24  and  N8_25 
REMARK       I    between atoms: C10_24  and  N9_29 
ROOT
HETATM    1  N2  UNL     1      59.182   5.376  29.806  1.00  0.00    -0.293 N 
HETATM    2  C6  UNL     1      60.264   5.228  30.624  1.00  0.00     0.328 A 
HETATM    3  O1  UNL     1      60.424   4.420  31.580  1.00  0.00    -0.246 OA
HETATM    4  N3  UNL     1      61.184   6.120  30.236  1.00  0.00    -0.292 N 
ATOM      5  H3  UNL     1      62.099   6.239  30.669  1.00  0.00     0.172 HD
HETATM    6  C7  UNL     1      60.721   6.845  29.181  1.00  0.00     0.156 A 
HETATM    7  N4  UNL     1      61.259   7.838  28.451  1.00  0.00    -0.174 N 
ATOM      8  H4  UNL     1      62.198   8.176  28.664  1.00  0.00     0.186 HD
HETATM    9  C8  UNL     1      60.565   8.383  27.446  1.00  0.00     0.679 A 
HETATM   10  N5  UNL     1      61.085   9.347  26.734  1.00  0.00    -0.234 N 
ATOM     11  H51 UNL     1      60.555   9.764  25.968  1.00  0.00     0.174 HD
ATOM     12  H52 UNL     1      62.020   9.709  26.920  1.00  0.00     0.174 HD
HETATM   13  N6  UNL     1      59.338   7.909  27.202  1.00  0.00    -0.175 N 
ATOM     14  H6  UNL     1      58.818   8.333  26.433  1.00  0.00     0.186 HD
HETATM   15  C9  UNL     1      58.731   6.922  27.885  1.00  0.00     0.151 A 
HETATM   16  C11 UNL     1      59.455   6.347  28.938  1.00  0.00     0.128 A 
ENDROOT
BRANCH  15  17
HETATM   17  N7  UNL     1      57.572   6.519  27.589  1.00  0.00    -0.325 N 
HETATM   18  C10 UNL     1      56.304   7.127  27.710  1.00  0.00     0.481 C 
HETATM   19  N8  UNL     1      55.928   7.514  29.061  1.00  0.00    -0.033 N 
HETATM   20  N9  UNL     1      56.138   8.253  26.818  1.00  0.00    -0.033 N 
ATOM     21  H83 UNL     1      55.993   6.711  29.686  1.00  0.00     0.278 HD
ATOM     22  H82 UNL     1      56.646   8.115  29.466  1.00  0.00     0.278 HD
ATOM     23  H81 UNL     1      55.012   7.954  29.149  1.00  0.00     0.278 HD
ATOM     24  H93 UNL     1      56.885   8.935  26.946  1.00  0.00     0.278 HD
ATOM     25  H92 UNL     1      56.324   7.984  25.851  1.00  0.00     0.278 HD
ATOM     26  H91 UNL     1      55.222   8.693  26.906  1.00  0.00     0.278 HD
ATOM     27  H7  UNL     1      57.547   5.582  27.188  1.00  0.00     0.165 HD
ENDBRANCH  15  17
BRANCH   1  28
HETATM   28  C5  UNL     1      57.995   4.601  29.908  1.00  0.00     0.136 C 
BRANCH  28  29
HETATM   29  C4  UNL     1      57.975   3.353  29.051  1.00  0.00     0.050 C 
BRANCH  29  30
HETATM   30  C3  UNL     1      56.539   2.881  29.026  1.00  0.00     0.273 C 
BRANCH  30  31
HETATM   31  N1  UNL     1      55.572   3.930  28.851  1.00  0.00     0.080 N 
HETATM   32  C1  UNL     1      54.987   3.720  27.517  1.00  0.00     0.309 C 
HETATM   33  C2  UNL     1      54.480   3.898  29.791  1.00  0.00     0.309 C 
ENDBRANCH  30  31
ENDBRANCH  29  30
ENDBRANCH  28  29
ENDBRANCH   1  28
TORSDOF 5
ENDMDL
MODEL 5
REMARK VINA RESULT: -7.460805924      3.217      5.057
REMARK  5 active torsions:
REMARK  status: ('A' for Active; 'I' for Inactive)
REMARK    1  A    between atoms: N1_2  and  C3_4 
REMARK    2  A    between atoms: C3_4  and  C4_5 
REMARK    3  A    between atoms: C4_5  and  C5_6 
REMARK    4  A    between atoms: C5_6  and  N2_7 
REMARK    5  A    between atoms: C9_21  and  N7_22 
REMARK       I    between atoms: N7_22  and  C10_24 
REMARK       I    between atoms: C10_24  and  N8_25 
REMARK       I    between atoms: C10_24  and  N9_29 
ROOT
HETATM    1  N2  UNL     1      59.265   6.276  29.059  1.00  0.00    -0.293 N 
HETATM    2  C6  UNL     1      59.566   5.175  29.807  1.00  0.00     0.328 A 
HETATM    3  O1  UNL     1      58.785   4.294  30.260  1.00  0.00    -0.246 OA
HETATM    4  N3  UNL     1      60.891   5.172  29.999  1.00  0.00    -0.292 N 
ATOM      5  H3  UNL     1      61.402   4.465  30.526  1.00  0.00     0.172 HD
HETATM    6  C7  UNL     1      61.457   6.249  29.388  1.00  0.00     0.156 A 
HETATM    7  N4  UNL     1      62.728   6.679  29.293  1.00  0.00    -0.174 N 
ATOM      8  H4  UNL     1      63.479   6.152  29.739  1.00  0.00     0.186 HD
HETATM    9  C8  UNL     1      63.008   7.798  28.616  1.00  0.00     0.679 A 
HETATM   10  N5  UNL     1      64.242   8.218  28.520  1.00  0.00    -0.234 N 
ATOM     11  H51 UNL     1      64.456   9.072  28.003  1.00  0.00     0.174 HD
ATOM     12  H52 UNL     1      65.016   7.715  28.953  1.00  0.00     0.174 HD
HETATM   13  N6  UNL     1      61.992   8.458  28.047  1.00  0.00    -0.175 N 
ATOM     14  H6  UNL     1      62.219   9.309  27.533  1.00  0.00     0.186 HD
HETATM   15  C9  UNL     1      60.698   8.094  28.097  1.00  0.00     0.151 A 
HETATM   16  C11 UNL     1      60.401   6.922  28.806  1.00  0.00     0.128 A 
ENDROOT
BRANCH  15  17
HETATM   17  N7  UNL     1      59.794   8.763  27.526  1.00  0.00    -0.325 N 
HETATM   18  C10 UNL     1      59.526   9.015  26.163  1.00  0.00     0.481 C 
HETATM   19  N8  UNL     1      60.601   9.663  25.429  1.00  0.00    -0.033 N 
HETATM   20  N9  UNL     1      59.096   7.832  25.452  1.00  0.00    -0.033 N 
ATOM     21  H83 UNL     1      60.875  10.526  25.898  1.00  0.00     0.278 HD
ATOM     22  H82 UNL     1      61.464   9.127  25.524  1.00  0.00     0.278 HD
ATOM     23  H81 UNL     1      60.408   9.845  24.444  1.00  0.00     0.278 HD
ATOM     24  H93 UNL     1      59.770   7.075  25.558  1.00  0.00     0.278 HD
ATOM     25  H92 UNL     1      58.292   7.402  25.909  1.00  0.00     0.278 HD
ATOM     26  H91 UNL     1      58.903   8.014  24.467  1.00  0.00     0.278 HD
ATOM     27  H7  UNL     1      59.134   9.204  28.167  1.00  0.00     0.165 HD
ENDBRANCH  15  17
BRANCH   1  28
HETATM   28  C5  UNL     1      57.949   6.624  28.649  1.00  0.00     0.136 C 
BRANCH  28  29
HETATM   29  C4  UNL     1      57.210   7.544  29.597  1.00  0.00     0.050 C 
BRANCH  29  30
HETATM   30  C3  UNL     1      56.142   6.701  30.257  1.00  0.00     0.273 C 
BRANCH  30  31
HETATM   31  N1  UNL     1      55.919   7.004  31.644  1.00  0.00     0.080 N 
HETATM   32  C1  UNL     1      57.182   6.694  32.333  1.00  0.00     0.309 C 
HETATM   33  C2  UNL     1      55.631   8.390  31.912  1.00  0.00     0.309 C 
ENDBRANCH  30  31
ENDBRANCH  29  30
ENDBRANCH  28  29
ENDBRANCH   1  28
TORSDOF 5
ENDMDL
