MODEL 1
REMARK VINA RESULT: -7.556539198      0.000      0.000
REMARK  7 active torsions:
REMARK  status: ('A' for Active; 'I' for Inactive)
REMARK    1  A    between atoms: C3_3  and  C4_4 
REMARK    2  A    between atoms: C4_4  and  C5_5 
REMARK    3  A    between atoms: C6_8  and  S1_9 
REMARK    4  A    between atoms: S1_9  and  N2_12 
REMARK    5  A    between atoms: C9_17  and  C10_18 
REMARK    6  A    between atoms: C11_19  and  C12_20 
REMARK    7  A    between atoms: C12_20  and  N3_21 
ROOT
HETATM    1  C5  UNL     1      20.543 -12.966  21.234  1.00  0.00     0.034 A 
HETATM    2  N1  UNL     1      21.539 -13.360  22.032  1.00  0.00    -0.346 N 
ATOM      3  H1  UNL     1      22.466 -12.934  22.057  1.00  0.00     0.166 HD
HETATM    4  C6  UNL     1      21.155 -14.393  22.797  1.00  0.00     0.168 A 
HETATM    5  C8  UNL     1      19.855 -14.672  22.475  1.00  0.00     0.071 A 
HETATM    6 BR1  UNL     1      18.725 -16.042  23.215  1.00  0.00    -0.046 Br
HETATM    7  C9  UNL     1      19.477 -13.783  21.503  1.00  0.00     0.061 A 
ENDROOT
BRANCH   7   8
HETATM    8  C10 UNL     1      18.175 -13.709  20.854  1.00  0.00    -0.062 C 
HETATM    9  C11 UNL     1      17.093 -13.622  20.307  1.00  0.00    -0.073 C 
BRANCH   9  10
HETATM   10  C12 UNL     1      15.802 -13.531  19.628  1.00  0.00     0.331 C 
BRANCH  10  11
HETATM   11  N3  UNL     1      14.976 -12.617  20.348  1.00  0.00    -0.052 N 
HETATM   12  C13 UNL     1      13.715 -12.534  19.588  1.00  0.00     0.266 C 
HETATM   13  C14 UNL     1      12.944 -11.304  20.012  1.00  0.00     0.265 C 
HETATM   14  N4  UNL     1      13.294 -11.072  21.419  1.00  0.00    -0.066 N 
HETATM   15  C15 UNL     1      12.340 -10.172  21.993  1.00  0.00     0.272 C 
HETATM   16  C16 UNL     1      13.359 -12.348  22.098  1.00  0.00     0.265 C 
HETATM   17  C18 UNL     1      14.617 -10.474  21.388  1.00  0.00     0.265 C 
HETATM   18  C17 UNL     1      14.607 -13.095  21.665  1.00  0.00     0.266 C 
HETATM   19  C19 UNL     1      15.542 -11.302  20.498  1.00  0.00     0.266 C 
ENDBRANCH  10  11
ENDBRANCH   9  10
ENDBRANCH   7   8
BRANCH   1  20
HETATM   20  C4  UNL     1      20.495 -11.870  20.222  1.00  0.00     0.085 C 
BRANCH  20  21
HETATM   21  C3  UNL     1      21.171 -12.257  18.954  1.00  0.00    -0.025 C 
HETATM   22  C2  UNL     1      20.552 -12.320  17.795  1.00  0.00    -0.035 C 
HETATM   23  C1  UNL     1      19.098 -12.005  17.635  1.00  0.00     0.036 C 
ENDBRANCH  20  21
ENDBRANCH   1  20
BRANCH   4  24
HETATM   24  S1  UNL     1      22.064 -15.280  24.001  1.00  0.00     0.275 S 
HETATM   25  O1  UNL     1      23.477 -14.810  24.078  1.00  0.00    -0.199 OA
HETATM   26  O2  UNL     1      22.034 -16.729  23.601  1.00  0.00    -0.199 OA
BRANCH  24  27
HETATM   27  N2  UNL     1      21.310 -15.032  25.528  1.00  0.00    -0.319 N 
HETATM   28  C7  UNL     1      21.220 -13.621  25.793  1.00  0.00     0.159 C 
ATOM     29  H2  UNL     1      20.978 -15.770  26.149  1.00  0.00     0.171 HD
ENDBRANCH  24  27
ENDBRANCH   4  24
TORSDOF 7
ENDMDL
MODEL 2
REMARK VINA RESULT: -7.531639135      0.301      1.153
REMARK  7 active torsions:
REMARK  status: ('A' for Active; 'I' for Inactive)
REMARK    1  A    between atoms: C3_3  and  C4_4 
REMARK    2  A    between atoms: C4_4  and  C5_5 
REMARK    3  A    between atoms: C6_8  and  S1_9 
REMARK    4  A    between atoms: S1_9  and  N2_12 
REMARK    5  A    between atoms: C9_17  and  C10_18 
REMARK    6  A    between atoms: C11_19  and  C12_20 
REMARK    7  A    between atoms: C12_20  and  N3_21 
ROOT
HETATM    1  C5  UNL     1      20.491 -13.022  21.176  1.00  0.00     0.034 A 
HETATM    2  N1  UNL     1      21.480 -13.400  21.991  1.00  0.00    -0.346 N 
ATOM      3  H1  UNL     1      22.379 -12.924  22.072  1.00  0.00     0.166 HD
HETATM    4  C6  UNL     1      21.129 -14.489  22.691  1.00  0.00     0.168 A 
HETATM    5  C8  UNL     1      19.859 -14.824  22.306  1.00  0.00     0.071 A 
HETATM    6 BR1  UNL     1      18.784 -16.290  22.936  1.00  0.00    -0.046 Br
HETATM    7  C9  UNL     1      19.466 -13.910  21.364  1.00  0.00     0.061 A 
ENDROOT
BRANCH   7   8
HETATM    8  C10 UNL     1      18.185 -13.875  20.670  1.00  0.00    -0.062 C 
HETATM    9  C11 UNL     1      17.110 -13.827  20.106  1.00  0.00    -0.073 C 
BRANCH   9  10
HETATM   10  C12 UNL     1      15.829 -13.757  19.406  1.00  0.00     0.331 C 
BRANCH  10  11
HETATM   11  N3  UNL     1      15.056 -12.703  19.980  1.00  0.00    -0.052 N 
HETATM   12  C13 UNL     1      14.817 -13.099  21.380  1.00  0.00     0.266 C 
HETATM   13  C14 UNL     1      13.679 -12.284  21.953  1.00  0.00     0.265 C 
HETATM   14  N4  UNL     1      13.720 -10.990  21.262  1.00  0.00    -0.066 N 
HETATM   15  C15 UNL     1      12.933 -10.046  21.996  1.00  0.00     0.272 C 
HETATM   16  C16 UNL     1      15.102 -10.588  21.109  1.00  0.00     0.265 C 
HETATM   17  C18 UNL     1      13.143 -11.240  19.953  1.00  0.00     0.265 C 
HETATM   18  C17 UNL     1      15.769 -11.443  20.048  1.00  0.00     0.266 C 
HETATM   19  C19 UNL     1      13.800 -12.465  19.320  1.00  0.00     0.266 C 
ENDBRANCH  10  11
ENDBRANCH   9  10
ENDBRANCH   7   8
BRANCH   1  20
HETATM   20  C4  UNL     1      20.416 -11.881  20.217  1.00  0.00     0.085 C 
BRANCH  20  21
HETATM   21  C3  UNL     1      21.168 -12.160  18.963  1.00  0.00    -0.025 C 
HETATM   22  C2  UNL     1      20.598 -12.232  17.780  1.00  0.00    -0.035 C 
HETATM   23  C1  UNL     1      19.129 -12.037  17.574  1.00  0.00     0.036 C 
ENDBRANCH  20  21
ENDBRANCH   1  20
BRANCH   4  24
HETATM   24  S1  UNL     1      22.044 -15.384  23.884  1.00  0.00     0.275 S 
HETATM   25  O1  UNL     1      23.437 -14.867  24.008  1.00  0.00    -0.199 OA
HETATM   26  O2  UNL     1      22.076 -16.819  23.435  1.00  0.00    -0.199 OA
BRANCH  24  27
HETATM   27  N2  UNL     1      21.250 -15.216  25.401  1.00  0.00    -0.319 N 
HETATM   28  C7  UNL     1      21.103 -13.819  25.711  1.00  0.00     0.159 C 
ATOM     29  H2  UNL     1      20.932 -15.986  25.989  1.00  0.00     0.171 HD
ENDBRANCH  24  27
ENDBRANCH   4  24
TORSDOF 7
ENDMDL
MODEL 3
REMARK VINA RESULT: -7.487258363      1.744      2.299
REMARK  7 active torsions:
REMARK  status: ('A' for Active; 'I' for Inactive)
REMARK    1  A    between atoms: C3_3  and  C4_4 
REMARK    2  A    between atoms: C4_4  and  C5_5 
REMARK    3  A    between atoms: C6_8  and  S1_9 
REMARK    4  A    between atoms: S1_9  and  N2_12 
REMARK    5  A    between atoms: C9_17  and  C10_18 
REMARK    6  A    between atoms: C11_19  and  C12_20 
REMARK    7  A    between atoms: C12_20  and  N3_21 
ROOT
HETATM    1  C5  UNL     1      20.921 -13.799  21.803  1.00  0.00     0.034 A 
HETATM    2  N1  UNL     1      22.010 -13.668  22.566  1.00  0.00    -0.346 N 
ATOM      3  H1  UNL     1      22.915 -13.337  22.232  1.00  0.00     0.166 HD
HETATM    4  C6  UNL     1      21.750 -14.030  23.832  1.00  0.00     0.168 A 
HETATM    5  C8  UNL     1      20.436 -14.410  23.881  1.00  0.00     0.071 A 
HETATM    6 BR1  UNL     1      19.447 -15.037  25.408  1.00  0.00    -0.046 Br
HETATM    7  C9  UNL     1      19.924 -14.266  22.619  1.00  0.00     0.061 A 
ENDROOT
BRANCH   7   8
HETATM    8  C10 UNL     1      18.560 -14.557  22.197  1.00  0.00    -0.062 C 
HETATM    9  C11 UNL     1      17.420 -14.776  21.837  1.00  0.00    -0.073 C 
BRANCH   9  10
HETATM   10  C12 UNL     1      16.059 -15.054  21.383  1.00  0.00     0.331 C 
BRANCH  10  11
HETATM   11  N3  UNL     1      15.565 -13.900  20.703  1.00  0.00    -0.052 N 
HETATM   12  C13 UNL     1      14.129 -14.153  20.480  1.00  0.00     0.266 C 
HETATM   13  C14 UNL     1      13.605 -13.210  19.419  1.00  0.00     0.265 C 
HETATM   14  N4  UNL     1      14.413 -11.988  19.528  1.00  0.00    -0.066 N 
HETATM   15  C15 UNL     1      13.749 -10.929  18.831  1.00  0.00     0.272 C 
HETATM   16  C16 UNL     1      14.634 -11.702  20.930  1.00  0.00     0.265 C 
HETATM   17  C18 UNL     1      15.679 -12.312  18.896  1.00  0.00     0.265 C 
HETATM   18  C17 UNL     1      15.629 -12.694  21.503  1.00  0.00     0.266 C 
HETATM   19  C19 UNL     1      16.214 -13.632  19.446  1.00  0.00     0.266 C 
ENDBRANCH  10  11
ENDBRANCH   9  10
ENDBRANCH   7   8
BRANCH   1  20
HETATM   20  C4  UNL     1      20.723 -13.522  20.350  1.00  0.00     0.085 C 
BRANCH  20  21
HETATM   21  C3  UNL     1      21.236 -12.177  19.968  1.00  0.00    -0.025 C 
HETATM   22  C2  UNL     1      21.165 -11.698  18.746  1.00  0.00    -0.035 C 
HETATM   23  C1  UNL     1      20.557 -12.460  17.610  1.00  0.00     0.036 C 
ENDBRANCH  20  21
ENDBRANCH   1  20
BRANCH   4  24
HETATM   24  S1  UNL     1      22.814 -14.049  25.220  1.00  0.00     0.275 S 
HETATM   25  O1  UNL     1      22.896 -15.408  25.830  1.00  0.00    -0.199 OA
HETATM   26  O2  UNL     1      22.254 -13.079  26.223  1.00  0.00    -0.199 OA
BRANCH  24  27
HETATM   27  N2  UNL     1      24.384 -13.579  24.696  1.00  0.00    -0.319 N 
HETATM   28  C7  UNL     1      25.078 -14.727  24.175  1.00  0.00     0.159 C 
ATOM     29  H2  UNL     1      24.764 -12.634  24.746  1.00  0.00     0.171 HD
ENDBRANCH  24  27
ENDBRANCH   4  24
TORSDOF 7
ENDMDL
MODEL 4
REMARK VINA RESULT: -7.263733057      1.364      1.839
REMARK  7 active torsions:
REMARK  status: ('A' for Active; 'I' for Inactive)
REMARK    1  A    between atoms: C3_3  and  C4_4 
REMARK    2  A    between atoms: C4_4  and  C5_5 
REMARK    3  A    between atoms: C6_8  and  S1_9 
REMARK    4  A    between atoms: S1_9  and  N2_12 
REMARK    5  A    between atoms: C9_17  and  C10_18 
REMARK    6  A    between atoms: C11_19  and  C12_20 
REMARK    7  A    between atoms: C12_20  and  N3_21 
ROOT
HETATM    1  C5  UNL     1      20.430 -13.681  21.384  1.00  0.00     0.034 A 
HETATM    2  N1  UNL     1      21.568 -13.628  22.082  1.00  0.00    -0.346 N 
ATOM      3  H1  UNL     1      22.471 -13.351  21.698  1.00  0.00     0.166 HD
HETATM    4  C6  UNL     1      21.360 -13.988  23.358  1.00  0.00     0.168 A 
HETATM    5  C8  UNL     1      20.030 -14.285  23.482  1.00  0.00     0.071 A 
HETATM    6 BR1  UNL     1      19.094 -14.866  25.060  1.00  0.00    -0.046 Br
HETATM    7  C9  UNL     1      19.455 -14.094  22.254  1.00  0.00     0.061 A 
ENDROOT
BRANCH   7   8
HETATM    8  C10 UNL     1      18.053 -14.293  21.912  1.00  0.00    -0.062 C 
HETATM    9  C11 UNL     1      16.889 -14.454  21.602  1.00  0.00    -0.073 C 
BRANCH   9  10
HETATM   10  C12 UNL     1      15.492 -14.676  21.233  1.00  0.00     0.331 C 
BRANCH  10  11
HETATM   11  N3  UNL     1      14.891 -13.412  20.956  1.00  0.00    -0.052 N 
HETATM   12  C13 UNL     1      13.798 -13.266  21.935  1.00  0.00     0.266 C 
HETATM   13  C14 UNL     1      12.845 -12.184  21.477  1.00  0.00     0.265 C 
HETATM   14  N4  UNL     1      13.655 -11.226  20.716  1.00  0.00    -0.066 N 
HETATM   15  C15 UNL     1      12.919 -10.006  20.572  1.00  0.00     0.272 C 
HETATM   16  C16 UNL     1      14.925 -11.054  21.389  1.00  0.00     0.265 C 
HETATM   17  C18 UNL     1      13.875 -11.855  19.425  1.00  0.00     0.265 C 
HETATM   18  C17 UNL     1      15.779 -12.292  21.193  1.00  0.00     0.266 C 
HETATM   19  C19 UNL     1      14.369 -13.286  19.621  1.00  0.00     0.266 C 
ENDBRANCH  10  11
ENDBRANCH   9  10
ENDBRANCH   7   8
BRANCH   1  20
HETATM   20  C4  UNL     1      20.165 -13.374  19.948  1.00  0.00     0.085 C 
BRANCH  20  21
HETATM   21  C3  UNL     1      21.132 -12.380  19.406  1.00  0.00    -0.025 C 
HETATM   22  C2  UNL     1      21.029 -11.852  18.207  1.00  0.00    -0.035 C 
HETATM   23  C1  UNL     1      19.922 -12.198  17.261  1.00  0.00     0.036 C 
ENDBRANCH  20  21
ENDBRANCH   1  20
BRANCH   4  24
HETATM   24  S1  UNL     1      22.501 -14.092  24.681  1.00  0.00     0.275 S 
HETATM   25  O1  UNL     1      22.100 -13.217  25.820  1.00  0.00    -0.199 OA
HETATM   26  O2  UNL     1      23.837 -13.652  24.151  1.00  0.00    -0.199 OA
BRANCH  24  27
HETATM   27  N2  UNL     1      22.543 -15.725  25.221  1.00  0.00    -0.319 N 
HETATM   28  C7  UNL     1      22.926 -16.580  24.130  1.00  0.00     0.159 C 
ATOM     29  H2  UNL     1      22.331 -16.039  26.168  1.00  0.00     0.171 HD
ENDBRANCH  24  27
ENDBRANCH   4  24
TORSDOF 7
ENDMDL
MODEL 5
REMARK VINA RESULT: -7.260369563      1.322      2.051
REMARK  7 active torsions:
REMARK  status: ('A' for Active; 'I' for Inactive)
REMARK    1  A    between atoms: C3_3  and  C4_4 
REMARK    2  A    between atoms: C4_4  and  C5_5 
REMARK    3  A    between atoms: C6_8  and  S1_9 
REMARK    4  A    between atoms: S1_9  and  N2_12 
REMARK    5  A    between atoms: C9_17  and  C10_18 
REMARK    6  A    between atoms: C11_19  and  C12_20 
REMARK    7  A    between atoms: C12_20  and  N3_21 
ROOT
HETATM    1  C5  UNL     1      20.429 -12.993  21.652  1.00  0.00     0.034 A 
HETATM    2  N1  UNL     1      21.567 -13.455  22.177  1.00  0.00    -0.346 N 
ATOM      3  H1  UNL     1      22.501 -13.204  21.850  1.00  0.00     0.166 HD
HETATM    4  C6  UNL     1      21.316 -14.294  23.193  1.00  0.00     0.168 A 
HETATM    5  C8  UNL     1      19.956 -14.372  23.325  1.00  0.00     0.071 A 
HETATM    6 BR1  UNL     1      18.953 -15.408  24.599  1.00  0.00    -0.046 Br
HETATM    7  C9  UNL     1      19.408 -13.562  22.365  1.00  0.00     0.061 A 
ENDROOT
BRANCH   7   8
HETATM    8  C10 UNL     1      17.988 -13.337  22.127  1.00  0.00    -0.062 C 
HETATM    9  C11 UNL     1      16.810 -13.135  21.908  1.00  0.00    -0.073 C 
BRANCH   9  10
HETATM   10  C12 UNL     1      15.391 -12.919  21.636  1.00  0.00     0.331 C 
BRANCH  10  11
HETATM   11  N3  UNL     1      15.261 -12.372  20.324  1.00  0.00    -0.052 N 
HETATM   12  C13 UNL     1      14.706 -13.455  19.492  1.00  0.00     0.266 C 
HETATM   13  C14 UNL     1      14.918 -13.134  18.029  1.00  0.00     0.265 C 
HETATM   14  N4  UNL     1      14.895 -11.669  17.929  1.00  0.00    -0.066 N 
HETATM   15  C15 UNL     1      14.714 -11.300  16.557  1.00  0.00     0.272 C 
HETATM   16  C16 UNL     1      13.859 -11.160  18.801  1.00  0.00     0.265 C 
HETATM   17  C18 UNL     1      16.193 -11.235  18.416  1.00  0.00     0.265 C 
HETATM   18  C17 UNL     1      14.299 -11.291  20.248  1.00  0.00     0.266 C 
HETATM   19  C19 UNL     1      16.497 -11.904  19.754  1.00  0.00     0.266 C 
ENDBRANCH  10  11
ENDBRANCH   9  10
ENDBRANCH   7   8
BRANCH   1  20
HETATM   20  C4  UNL     1      20.204 -12.046  20.521  1.00  0.00     0.085 C 
BRANCH  20  21
HETATM   21  C3  UNL     1      21.232 -12.202  19.455  1.00  0.00    -0.025 C 
HETATM   22  C2  UNL     1      20.940 -12.267  18.174  1.00  0.00    -0.035 C 
HETATM   23  C1  UNL     1      19.538 -12.189  17.657  1.00  0.00     0.036 C 
ENDBRANCH  20  21
ENDBRANCH   1  20
BRANCH   4  24
HETATM   24  S1  UNL     1      22.437 -15.168  24.213  1.00  0.00     0.275 S 
HETATM   25  O1  UNL     1      23.853 -14.829  23.890  1.00  0.00    -0.199 OA
HETATM   26  O2  UNL     1      22.202 -16.634  23.977  1.00  0.00    -0.199 OA
BRANCH  24  27
HETATM   27  N2  UNL     1      22.120 -14.734  25.848  1.00  0.00    -0.319 N 
HETATM   28  C7  UNL     1      22.268 -13.312  26.002  1.00  0.00     0.159 C 
ATOM     29  H2  UNL     1      21.867 -15.385  26.592  1.00  0.00     0.171 HD
ENDBRANCH  24  27
ENDBRANCH   4  24
TORSDOF 7
ENDMDL
