MODEL 1
REMARK VINA RESULT: -7.753762350      0.000      0.000
REMARK  10 active torsions:
REMARK  status: ('A' for Active; 'I' for Inactive)
REMARK    1  A    between atoms: C3_3  and  C4_4 
REMARK    2  A    between atoms: C4_4  and  N1_5 
REMARK    3  A    between atoms: N1_5  and  C5_7 
REMARK    4  A    between atoms: C9_11  and  C10_12 
REMARK       I    between atoms: C10_12  and  N2_14 
REMARK    5  A    between atoms: C12_19  and  C13_20 
REMARK    6  A    between atoms: C13_20  and  C14_21 
REMARK    7  A    between atoms: N5_27  and  C20_28 
REMARK    8  A    between atoms: C20_28  and  C21_29 
REMARK    9  A    between atoms: C22_30  and  C23_31 
REMARK   10  A    between atoms: C23_31  and  N6_32 
ROOT
HETATM    1  C1  UNL     1      14.305 -11.255  12.549  1.00  0.00     0.112 C 
HETATM    2  C2  UNL     1      15.378 -11.667  13.456  1.00  0.00    -0.105 C 
HETATM    3  C3  UNL     1      16.287 -12.025  14.200  1.00  0.00    -0.062 C 
ENDROOT
BRANCH   3   4
HETATM    4  C4  UNL     1      17.332 -12.472  15.102  1.00  0.00     0.149 C 
BRANCH   4   5
HETATM    5  N1  UNL     1      16.935 -13.302  16.126  1.00  0.00    -0.381 N 
ATOM      6  H1  UNL     1      16.833 -14.293  15.907  1.00  0.00     0.160 HD
BRANCH   5   7
HETATM    7  C5  UNL     1      16.662 -12.910  17.432  1.00  0.00     0.060 A 
HETATM    8  C6  UNL     1      15.193 -13.026  17.872  1.00  0.00     0.042 A 
HETATM    9  C7  UNL     1      16.283 -13.743  18.569  1.00  0.00     0.050 A 
HETATM   10  C8  UNL     1      16.969 -13.140  19.764  1.00  0.00     0.212 C 
HETATM   11  C9  UNL     1      18.290 -13.891  20.081  1.00  0.00     0.120 C 
HETATM   12  N5  UNL     1      17.311 -11.812  19.463  1.00  0.00    -0.044 N 
HETATM   13  C12 UNL     1      19.360 -12.898  20.120  1.00  0.00     0.006 C 
HETATM   14  C16 UNL     1      19.961 -12.311  21.301  1.00  0.00    -0.005 C 
HETATM   15  C19 UNL     1      18.640 -11.569  19.904  1.00  0.00     0.202 C 
HETATM   16  C17 UNL     1      20.226 -13.000  22.568  1.00  0.00     0.011 C 
HETATM   17  C18 UNL     1      18.836 -11.261  21.353  1.00  0.00     0.039 C 
HETATM   18  C26 UNL     1      17.281 -11.647  18.018  1.00  0.00     0.270 C 
BRANCH  11  19
HETATM   19  C10 UNL     1      18.076 -14.808  21.198  1.00  0.00     0.230 C 
HETATM   20  O1  UNL     1      17.142 -14.447  22.018  1.00  0.00    -0.273 OA
HETATM   21  N2  UNL     1      18.678 -15.975  21.539  1.00  0.00    -0.303 N 
HETATM   22  C11 UNL     1      19.732 -16.583  21.635  1.00  0.00     0.203 C 
ATOM     23  H2  UNL     1      17.941 -16.612  21.840  1.00  0.00     0.171 HD
HETATM   24  N3  UNL     1      19.678 -17.948  22.114  1.00  0.00    -0.066 NA
HETATM   25  N4  UNL     1      21.023 -16.100  21.328  1.00  0.00    -0.066 NA
ENDBRANCH  11  19
BRANCH  13  26
HETATM   26  C13 UNL     1      20.378 -13.172  19.024  1.00  0.00     0.012 C 
BRANCH  26  27
HETATM   27  C14 UNL     1      21.143 -12.037  18.502  1.00  0.00    -0.004 C 
HETATM   28  C15 UNL     1      20.905 -12.013  16.972  1.00  0.00     0.005 C 
ENDBRANCH  26  27
ENDBRANCH  13  26
BRANCH  12  29
HETATM   29  C20 UNL     1      16.462 -10.792  20.031  1.00  0.00     0.332 C 
BRANCH  29  30
HETATM   30  C21 UNL     1      15.315 -11.281  20.761  1.00  0.00    -0.077 C 
HETATM   31  C22 UNL     1      14.367 -11.683  21.391  1.00  0.00    -0.075 C 
BRANCH  31  32
HETATM   32  C23 UNL     1      13.205 -12.185  22.136  1.00  0.00     0.364 C 
BRANCH  32  33
HETATM   33  N6  UNL     1      12.589 -11.144  22.939  1.00  0.00     0.090 N 
HETATM   34  C24 UNL     1      12.054 -10.163  21.997  1.00  0.00     0.310 C 
HETATM   35  C25 UNL     1      11.416 -11.769  23.567  1.00  0.00     0.310 C 
ENDBRANCH  32  33
ENDBRANCH  31  32
ENDBRANCH  29  30
ENDBRANCH  12  29
ENDBRANCH   5   7
ENDBRANCH   4   5
ENDBRANCH   3   4
TORSDOF 10
ENDMDL
MODEL 2
REMARK VINA RESULT: -7.690892380      2.777      6.901
REMARK  10 active torsions:
REMARK  status: ('A' for Active; 'I' for Inactive)
REMARK    1  A    between atoms: C3_3  and  C4_4 
REMARK    2  A    between atoms: C4_4  and  N1_5 
REMARK    3  A    between atoms: N1_5  and  C5_7 
REMARK    4  A    between atoms: C9_11  and  C10_12 
REMARK       I    between atoms: C10_12  and  N2_14 
REMARK    5  A    between atoms: C12_19  and  C13_20 
REMARK    6  A    between atoms: C13_20  and  C14_21 
REMARK    7  A    between atoms: N5_27  and  C20_28 
REMARK    8  A    between atoms: C20_28  and  C21_29 
REMARK    9  A    between atoms: C22_30  and  C23_31 
REMARK   10  A    between atoms: C23_31  and  N6_32 
ROOT
HETATM    1  C1  UNL     1      12.004  -7.879  24.930  1.00  0.00     0.112 C 
HETATM    2  C2  UNL     1      12.001  -8.993  23.980  1.00  0.00    -0.105 C 
HETATM    3  C3  UNL     1      12.004  -9.942  23.200  1.00  0.00    -0.062 C 
ENDROOT
BRANCH   3   4
HETATM    4  C4  UNL     1      12.044 -11.046  22.260  1.00  0.00     0.149 C 
BRANCH   4   5
HETATM    5  N1  UNL     1      12.517 -10.753  21.000  1.00  0.00    -0.381 N 
ATOM      6  H1  UNL     1      11.963 -10.111  20.433  1.00  0.00     0.160 HD
BRANCH   5   7
HETATM    7  C5  UNL     1      13.683 -11.255  20.433  1.00  0.00     0.060 A 
HETATM    8  C6  UNL     1      14.985 -10.542  20.837  1.00  0.00     0.042 A 
HETATM    9  C7  UNL     1      14.768 -11.984  21.084  1.00  0.00     0.050 A 
HETATM   10  C8  UNL     1      15.220 -13.017  20.089  1.00  0.00     0.212 C 
HETATM   11  C9  UNL     1      14.564 -14.393  20.385  1.00  0.00     0.120 C 
HETATM   12  N5  UNL     1      14.796 -12.625  18.810  1.00  0.00    -0.044 N 
HETATM   13  C12 UNL     1      13.905 -14.837  19.160  1.00  0.00     0.006 C 
HETATM   14  C16 UNL     1      14.402 -15.809  18.206  1.00  0.00    -0.005 C 
HETATM   15  C19 UNL     1      14.249 -13.754  18.141  1.00  0.00     0.202 C 
HETATM   16  C17 UNL     1      15.160 -17.022  18.525  1.00  0.00     0.011 C 
HETATM   17  C18 UNL     1      15.210 -14.703  17.500  1.00  0.00     0.039 C 
HETATM   18  C26 UNL     1      13.738 -11.638  18.959  1.00  0.00     0.270 C 
BRANCH  11  19
HETATM   19  C10 UNL     1      15.523 -15.254  21.076  1.00  0.00     0.230 C 
HETATM   20  O1  UNL     1      16.758 -15.061  20.737  1.00  0.00    -0.273 OA
HETATM   21  N2  UNL     1      15.359 -16.222  22.012  1.00  0.00    -0.303 N 
HETATM   22  C11 UNL     1      14.696 -17.180  22.376  1.00  0.00     0.203 C 
ATOM     23  H2  UNL     1      16.101 -16.096  22.700  1.00  0.00     0.171 HD
HETATM   24  N3  UNL     1      15.095 -17.846  23.597  1.00  0.00    -0.066 NA
HETATM   25  N4  UNL     1      13.565 -17.724  21.730  1.00  0.00    -0.066 NA
ENDBRANCH  11  19
BRANCH  13  26
HETATM   26  C13 UNL     1      12.404 -14.951  19.377  1.00  0.00     0.012 C 
BRANCH  26  27
HETATM   27  C14 UNL     1      11.634 -15.754  18.424  1.00  0.00    -0.004 C 
HETATM   28  C15 UNL     1      11.026 -16.929  19.230  1.00  0.00     0.005 C 
ENDBRANCH  26  27
ENDBRANCH  13  26
BRANCH  12  29
HETATM   29  C20 UNL     1      15.805 -12.049  17.954  1.00  0.00     0.332 C 
BRANCH  29  30
HETATM   30  C21 UNL     1      17.166 -12.218  18.406  1.00  0.00    -0.077 C 
HETATM   31  C22 UNL     1      18.307 -12.377  18.769  1.00  0.00    -0.075 C 
BRANCH  31  32
HETATM   32  C23 UNL     1      19.689 -12.555  19.232  1.00  0.00     0.364 C 
BRANCH  32  33
HETATM   33  N6  UNL     1      20.018 -11.644  20.313  1.00  0.00     0.090 N 
HETATM   34  C24 UNL     1      19.150 -12.004  21.431  1.00  0.00     0.310 C 
HETATM   35  C25 UNL     1      21.379 -12.004  20.737  1.00  0.00     0.310 C 
ENDBRANCH  32  33
ENDBRANCH  31  32
ENDBRANCH  29  30
ENDBRANCH  12  29
ENDBRANCH   5   7
ENDBRANCH   4   5
ENDBRANCH   3   4
TORSDOF 10
ENDMDL
MODEL 3
REMARK VINA RESULT: -7.373916117      2.716      6.423
REMARK  10 active torsions:
REMARK  status: ('A' for Active; 'I' for Inactive)
REMARK    1  A    between atoms: C3_3  and  C4_4 
REMARK    2  A    between atoms: C4_4  and  N1_5 
REMARK    3  A    between atoms: N1_5  and  C5_7 
REMARK    4  A    between atoms: C9_11  and  C10_12 
REMARK       I    between atoms: C10_12  and  N2_14 
REMARK    5  A    between atoms: C12_19  and  C13_20 
REMARK    6  A    between atoms: C13_20  and  C14_21 
REMARK    7  A    between atoms: N5_27  and  C20_28 
REMARK    8  A    between atoms: C20_28  and  C21_29 
REMARK    9  A    between atoms: C22_30  and  C23_31 
REMARK   10  A    between atoms: C23_31  and  N6_32 
ROOT
HETATM    1  C1  UNL     1      21.007 -11.989  17.225  1.00  0.00     0.112 C 
HETATM    2  C2  UNL     1      20.992 -12.147  18.680  1.00  0.00    -0.105 C 
HETATM    3  C3  UNL     1      21.002 -12.286  19.900  1.00  0.00    -0.062 C 
ENDROOT
BRANCH   3   4
HETATM    4  C4  UNL     1      20.987 -12.485  21.337  1.00  0.00     0.149 C 
BRANCH   4   5
HETATM    5  N1  UNL     1      19.749 -12.467  21.939  1.00  0.00    -0.381 N 
ATOM      6  H1  UNL     1      19.501 -11.631  22.468  1.00  0.00     0.160 HD
BRANCH   5   7
HETATM    7  C5  UNL     1      18.806 -13.488  21.890  1.00  0.00     0.060 A 
HETATM    8  C6  UNL     1      18.710 -14.371  23.145  1.00  0.00     0.042 A 
HETATM    9  C7  UNL     1      17.554 -13.604  22.632  1.00  0.00     0.050 A 
HETATM   10  C8  UNL     1      16.571 -14.227  21.679  1.00  0.00     0.212 C 
HETATM   11  C9  UNL     1      15.686 -13.141  21.009  1.00  0.00     0.120 C 
HETATM   12  N5  UNL     1      17.283 -14.868  20.654  1.00  0.00    -0.044 N 
HETATM   13  C12 UNL     1      15.795 -13.317  19.564  1.00  0.00     0.006 C 
HETATM   14  C16 UNL     1      14.837 -13.965  18.691  1.00  0.00    -0.005 C 
HETATM   15  C19 UNL     1      16.679 -14.552  19.407  1.00  0.00     0.202 C 
HETATM   16  C17 UNL     1      13.378 -13.909  18.817  1.00  0.00     0.011 C 
HETATM   17  C18 UNL     1      15.467 -15.333  19.015  1.00  0.00     0.039 C 
HETATM   18  C26 UNL     1      18.640 -14.344  20.640  1.00  0.00     0.270 C 
BRANCH  11  19
HETATM   19  C10 UNL     1      14.380 -13.101  21.665  1.00  0.00     0.230 C 
HETATM   20  O1  UNL     1      13.964 -14.246  22.102  1.00  0.00    -0.273 OA
HETATM   21  N2  UNL     1      13.518 -12.081  21.901  1.00  0.00    -0.303 N 
HETATM   22  C11 UNL     1      12.988 -11.075  21.456  1.00  0.00     0.203 C 
ATOM     23  H2  UNL     1      13.163 -12.207  22.849  1.00  0.00     0.171 HD
HETATM   24  N3  UNL     1      12.064 -10.368  22.315  1.00  0.00    -0.066 NA
HETATM   25  N4  UNL     1      13.176 -10.513  20.175  1.00  0.00    -0.066 NA
ENDBRANCH  11  19
BRANCH  13  26
HETATM   26  C13 UNL     1      16.425 -12.088  18.926  1.00  0.00     0.012 C 
BRANCH  26  27
HETATM   27  C14 UNL     1      17.336 -12.295  17.799  1.00  0.00    -0.004 C 
HETATM   28  C15 UNL     1      16.938 -11.260  16.716  1.00  0.00     0.005 C 
ENDBRANCH  26  27
ENDBRANCH  13  26
BRANCH  12  29
HETATM   29  C20 UNL     1      17.378 -16.305  20.748  1.00  0.00     0.332 C 
BRANCH  29  30
HETATM   30  C21 UNL     1      16.681 -16.897  21.867  1.00  0.00    -0.077 C 
HETATM   31  C22 UNL     1      16.087 -17.405  22.787  1.00  0.00    -0.075 C 
BRANCH  31  32
HETATM   32  C23 UNL     1      15.372 -18.004  23.921  1.00  0.00     0.364 C 
BRANCH  32  33
HETATM   33  N6  UNL     1      15.164 -19.429  23.736  1.00  0.00     0.090 N 
HETATM   34  C24 UNL     1      14.631 -19.933  25.000  1.00  0.00     0.310 C 
HETATM   35  C25 UNL     1      14.065 -19.548  22.768  1.00  0.00     0.310 C 
ENDBRANCH  32  33
ENDBRANCH  31  32
ENDBRANCH  29  30
ENDBRANCH  12  29
ENDBRANCH   5   7
ENDBRANCH   4   5
ENDBRANCH   3   4
TORSDOF 10
ENDMDL
MODEL 4
REMARK VINA RESULT: -7.372514088      2.623      4.527
REMARK  10 active torsions:
REMARK  status: ('A' for Active; 'I' for Inactive)
REMARK    1  A    between atoms: C3_3  and  C4_4 
REMARK    2  A    between atoms: C4_4  and  N1_5 
REMARK    3  A    between atoms: N1_5  and  C5_7 
REMARK    4  A    between atoms: C9_11  and  C10_12 
REMARK       I    between atoms: C10_12  and  N2_14 
REMARK    5  A    between atoms: C12_19  and  C13_20 
REMARK    6  A    between atoms: C13_20  and  C14_21 
REMARK    7  A    between atoms: N5_27  and  C20_28 
REMARK    8  A    between atoms: C20_28  and  C21_29 
REMARK    9  A    between atoms: C22_30  and  C23_31 
REMARK   10  A    between atoms: C23_31  and  N6_32 
ROOT
HETATM    1  C1  UNL     1      21.006 -12.751  20.000  1.00  0.00     0.112 C 
HETATM    2  C2  UNL     1      19.983 -12.473  18.990  1.00  0.00    -0.105 C 
HETATM    3  C3  UNL     1      19.125 -12.262  18.137  1.00  0.00    -0.062 C 
ENDROOT
BRANCH   3   4
HETATM    4  C4  UNL     1      18.141 -11.989  17.107  1.00  0.00     0.149 C 
BRANCH   4   5
HETATM    5  N1  UNL     1      17.042 -11.257  17.496  1.00  0.00    -0.381 N 
ATOM      6  H1  UNL     1      17.127 -10.241  17.470  1.00  0.00     0.160 HD
BRANCH   5   7
HETATM    7  C5  UNL     1      15.826 -11.780  17.923  1.00  0.00     0.060 A 
HETATM    8  C6  UNL     1      14.634 -11.559  16.977  1.00  0.00     0.042 A 
HETATM    9  C7  UNL     1      15.083 -12.911  17.374  1.00  0.00     0.050 A 
HETATM   10  C8  UNL     1      14.476 -13.613  18.558  1.00  0.00     0.212 C 
HETATM   11  C9  UNL     1      15.347 -14.824  18.989  1.00  0.00     0.120 C 
HETATM   12  N5  UNL     1      14.444 -12.721  19.641  1.00  0.00    -0.044 N 
HETATM   13  C12 UNL     1      15.652 -14.661  20.408  1.00  0.00     0.006 C 
HETATM   14  C16 UNL     1      15.007 -15.331  21.520  1.00  0.00    -0.005 C 
HETATM   15  C19 UNL     1      14.891 -13.400  20.808  1.00  0.00     0.202 C 
HETATM   16  C17 UNL     1      14.530 -16.717  21.534  1.00  0.00     0.011 C 
HETATM   17  C18 UNL     1      13.900 -14.260  21.523  1.00  0.00     0.039 C 
HETATM   18  C26 UNL     1      15.374 -11.636  19.371  1.00  0.00     0.270 C 
BRANCH  11  19
HETATM   19  C10 UNL     1      14.750 -16.060  18.486  1.00  0.00     0.230 C 
HETATM   20  O1  UNL     1      13.461 -16.024  18.368  1.00  0.00    -0.273 OA
HETATM   21  N2  UNL     1      15.299 -17.244  18.117  1.00  0.00    -0.303 N 
HETATM   22  C11 UNL     1      16.125 -18.105  18.376  1.00  0.00     0.203 C 
ATOM     23  H2  UNL     1      14.820 -17.540  17.267  1.00  0.00     0.171 HD
HETATM   24  N3  UNL     1      16.214 -19.239  17.483  1.00  0.00    -0.066 NA
HETATM   25  N4  UNL     1      17.020 -18.121  19.468  1.00  0.00    -0.066 NA
ENDBRANCH  11  19
BRANCH  13  26
HETATM   26  C13 UNL     1      17.151 -14.505  20.613  1.00  0.00     0.012 C 
BRANCH  26  27
HETATM   27  C14 UNL     1      17.607 -13.522  21.598  1.00  0.00    -0.004 C 
HETATM   28  C15 UNL     1      18.476 -14.295  22.621  1.00  0.00     0.005 C 
ENDBRANCH  26  27
ENDBRANCH  13  26
BRANCH  12  29
HETATM   29  C20 UNL     1      13.163 -12.127  19.939  1.00  0.00     0.332 C 
BRANCH  29  30
HETATM   30  C21 UNL     1      13.166 -11.164  21.016  1.00  0.00    -0.077 C 
HETATM   31  C22 UNL     1      13.160 -10.375  21.930  1.00  0.00    -0.075 C 
BRANCH  31  32
HETATM   32  C23 UNL     1      13.155  -9.397  23.025  1.00  0.00     0.364 C 
BRANCH  32  33
HETATM   33  N6  UNL     1      11.851  -9.301  23.656  1.00  0.00     0.090 N 
HETATM   34  C24 UNL     1      11.674 -10.533  24.421  1.00  0.00     0.310 C 
HETATM   35  C25 UNL     1      11.970  -8.230  24.656  1.00  0.00     0.310 C 
ENDBRANCH  32  33
ENDBRANCH  31  32
ENDBRANCH  29  30
ENDBRANCH  12  29
ENDBRANCH   5   7
ENDBRANCH   4   5
ENDBRANCH   3   4
TORSDOF 10
ENDMDL
MODEL 5
REMARK VINA RESULT: -7.320283428      2.487      7.114
REMARK  10 active torsions:
REMARK  status: ('A' for Active; 'I' for Inactive)
REMARK    1  A    between atoms: C3_3  and  C4_4 
REMARK    2  A    between atoms: C4_4  and  N1_5 
REMARK    3  A    between atoms: N1_5  and  C5_7 
REMARK    4  A    between atoms: C9_11  and  C10_12 
REMARK       I    between atoms: C10_12  and  N2_14 
REMARK    5  A    between atoms: C12_19  and  C13_20 
REMARK    6  A    between atoms: C13_20  and  C14_21 
REMARK    7  A    between atoms: N5_27  and  C20_28 
REMARK    8  A    between atoms: C20_28  and  C21_29 
REMARK    9  A    between atoms: C22_30  and  C23_31 
REMARK   10  A    between atoms: C23_31  and  N6_32 
ROOT
HETATM    1  C1  UNL     1      20.962 -11.999  16.921  1.00  0.00     0.112 C 
HETATM    2  C2  UNL     1      20.928 -12.511  18.292  1.00  0.00    -0.105 C 
HETATM    3  C3  UNL     1      20.918 -12.928  19.447  1.00  0.00    -0.062 C 
ENDROOT
BRANCH   3   4
HETATM    4  C4  UNL     1      20.918 -13.460  20.797  1.00  0.00     0.149 C 
BRANCH   4   5
HETATM    5  N1  UNL     1      19.867 -13.077  21.600  1.00  0.00    -0.381 N 
ATOM      6  H1  UNL     1      19.911 -12.143  22.009  1.00  0.00     0.160 HD
BRANCH   5   7
HETATM    7  C5  UNL     1      18.751 -13.849  21.902  1.00  0.00     0.060 A 
HETATM    8  C6  UNL     1      18.469 -14.062  23.399  1.00  0.00     0.042 A 
HETATM    9  C7  UNL     1      17.487 -13.424  22.496  1.00  0.00     0.050 A 
HETATM   10  C8  UNL     1      16.421 -14.236  21.811  1.00  0.00     0.212 C 
HETATM   11  C9  UNL     1      15.767 -13.429  20.657  1.00  0.00     0.120 C 
HETATM   12  N5  UNL     1      17.019 -15.368  21.236  1.00  0.00    -0.044 N 
HETATM   13  C12 UNL     1      15.866 -14.238  19.445  1.00  0.00     0.006 C 
HETATM   14  C16 UNL     1      14.819 -15.041  18.846  1.00  0.00    -0.005 C 
HETATM   15  C19 UNL     1      16.506 -15.540  19.921  1.00  0.00     0.202 C 
HETATM   16  C17 UNL     1      13.394 -14.702  18.792  1.00  0.00     0.011 C 
HETATM   17  C18 UNL     1      15.176 -16.209  19.786  1.00  0.00     0.039 C 
HETATM   18  C26 UNL     1      18.450 -15.129  21.130  1.00  0.00     0.270 C 
BRANCH  11  19
HETATM   19  C10 UNL     1      14.480 -12.896  21.100  1.00  0.00     0.230 C 
HETATM   20  O1  UNL     1      13.817 -13.680  21.888  1.00  0.00    -0.273 OA
HETATM   21  N2  UNL     1      13.848 -11.725  20.838  1.00  0.00    -0.303 N 
HETATM   22  C11 UNL     1      13.558 -10.895  19.991  1.00  0.00     0.203 C 
ATOM     23  H2  UNL     1      13.447 -11.402  21.719  1.00  0.00     0.171 HD
HETATM   24  N3  UNL     1      12.780  -9.750  20.413  1.00  0.00    -0.066 NA
HETATM   25  N4  UNL     1      13.900 -10.924  18.622  1.00  0.00    -0.066 NA
ENDBRANCH  11  19
BRANCH  13  26
HETATM   26  C13 UNL     1      16.726 -13.534  18.407  1.00  0.00     0.012 C 
BRANCH  26  27
HETATM   27  C14 UNL     1      17.196 -12.181  18.712  1.00  0.00    -0.004 C 
HETATM   28  C15 UNL     1      17.236 -11.416  17.366  1.00  0.00     0.005 C 
ENDBRANCH  26  27
ENDBRANCH  13  26
BRANCH  12  29
HETATM   29  C20 UNL     1      16.841 -16.611  21.946  1.00  0.00     0.332 C 
BRANCH  29  30
HETATM   30  C21 UNL     1      17.938 -17.546  21.838  1.00  0.00    -0.077 C 
HETATM   31  C22 UNL     1      18.842 -18.342  21.759  1.00  0.00    -0.075 C 
BRANCH  31  32
HETATM   32  C23 UNL     1      19.958 -19.291  21.657  1.00  0.00     0.364 C 
BRANCH  32  33
HETATM   33  N6  UNL     1      21.112 -18.699  21.004  1.00  0.00     0.090 N 
HETATM   34  C24 UNL     1      21.610 -17.667  21.910  1.00  0.00     0.310 C 
HETATM   35  C25 UNL     1      22.143 -19.746  20.992  1.00  0.00     0.310 C 
ENDBRANCH  32  33
ENDBRANCH  31  32
ENDBRANCH  29  30
ENDBRANCH  12  29
ENDBRANCH   5   7
ENDBRANCH   4   5
ENDBRANCH   3   4
TORSDOF 10
ENDMDL
