MODEL 1
REMARK VINA RESULT: -7.784635959      0.000      0.000
REMARK  2 active torsions:
REMARK  status: ('A' for Active; 'I' for Inactive)
REMARK    1  A    between atoms: C13_16  and  C14_17 
REMARK    2  A    between atoms: C14_17  and  N1_18 
ROOT
HETATM    1  C1  UNL     1     -22.671  35.982  -2.414  1.00  0.00     0.051 C 
HETATM    2  C2  UNL     1     -23.508  34.763  -2.065  1.00  0.00     0.087 C 
HETATM    3  C3  UNL     1     -23.976  34.810  -0.630  1.00  0.00     0.045 C 
HETATM    4  C4  UNL     1     -25.404  34.378  -0.559  1.00  0.00     0.041 C 
HETATM    5  C5  UNL     1     -26.319  35.307  -1.320  1.00  0.00     0.174 C 
HETATM    6  F1  UNL     1     -27.607  34.826  -1.180  1.00  0.00    -0.249 F 
HETATM    7  C6  UNL     1     -25.918  35.438  -2.767  1.00  0.00     0.074 C 
HETATM    8  C7  UNL     1     -24.622  34.683  -3.025  1.00  0.00    -0.039 C 
HETATM    9  C8  UNL     1     -24.245  33.895  -4.021  1.00  0.00     0.082 C 
HETATM   10  C9  UNL     1     -22.858  33.449  -3.710  1.00  0.00     0.336 C 
HETATM   11  O1  UNL     1     -22.773  32.103  -4.063  1.00  0.00    -0.164 OA
HETATM   12  O2  UNL     1     -22.359  32.210  -5.328  1.00  0.00    -0.195 OA
HETATM   13  C10 UNL     1     -21.254  33.072  -5.131  1.00  0.00     0.204 C 
HETATM   14  C11 UNL     1     -20.788  33.539  -6.461  1.00  0.00     0.072 C 
HETATM   15  C12 UNL     1     -19.462  34.215  -6.354  1.00  0.00     0.012 C 
HETATM   16  C13 UNL     1     -18.455  33.203  -5.814  1.00  0.00     0.019 C 
HETATM   17  C15 UNL     1     -18.854  32.752  -4.445  1.00  0.00    -0.037 C 
HETATM   18  C16 UNL     1     -18.588  33.843  -3.404  1.00  0.00     0.015 C 
HETATM   19  C17 UNL     1     -17.976  31.560  -4.063  1.00  0.00     0.015 C 
HETATM   20  C18 UNL     1     -20.267  32.339  -4.316  1.00  0.00     0.081 C 
HETATM   21  O3  UNL     1     -21.892  34.113  -4.420  1.00  0.00    -0.288 OA
HETATM   22  O4  UNL     1     -22.753  33.629  -2.324  1.00  0.00    -0.312 OA
ENDROOT
BRANCH  16  23
HETATM   23  C14 UNL     1     -17.120  33.908  -5.789  1.00  0.00     0.234 C 
BRANCH  23  24
HETATM   24  N1  UNL     1     -16.951  34.870  -6.826  1.00  0.00    -0.079 N 
ATOM     25  H13 UNL     1     -15.963  34.979  -7.055  1.00  0.00     0.274 HD
ATOM     26  H12 UNL     1     -17.294  34.503  -7.714  1.00  0.00     0.274 HD
ATOM     27  H11 UNL     1     -17.375  35.775  -6.625  1.00  0.00     0.274 HD
ENDBRANCH  23  24
ENDBRANCH  16  23
TORSDOF 2
ENDMDL
MODEL 2
REMARK VINA RESULT: -7.711644686      1.607      1.896
REMARK  2 active torsions:
REMARK  status: ('A' for Active; 'I' for Inactive)
REMARK    1  A    between atoms: C13_16  and  C14_17 
REMARK    2  A    between atoms: C14_17  and  N1_18 
ROOT
HETATM    1  C1  UNL     1     -24.566  36.192  -4.225  1.00  0.00     0.051 C 
HETATM    2  C2  UNL     1     -25.261  35.226  -3.280  1.00  0.00     0.087 C 
HETATM    3  C3  UNL     1     -25.996  35.963  -2.186  1.00  0.00     0.045 C 
HETATM    4  C4  UNL     1     -27.330  35.326  -1.970  1.00  0.00     0.041 C 
HETATM    5  C5  UNL     1     -28.211  35.420  -3.191  1.00  0.00     0.174 C 
HETATM    6  F1  UNL     1     -29.416  34.816  -2.881  1.00  0.00    -0.249 F 
HETATM    7  C6  UNL     1     -27.566  34.802  -4.405  1.00  0.00     0.074 C 
HETATM    8  C7  UNL     1     -26.146  34.362  -4.079  1.00  0.00    -0.039 C 
HETATM    9  C8  UNL     1     -25.472  33.265  -4.389  1.00  0.00     0.082 C 
HETATM   10  C9  UNL     1     -24.119  33.410  -3.783  1.00  0.00     0.336 C 
HETATM   11  O1  UNL     1     -23.767  32.164  -3.265  1.00  0.00    -0.164 OA
HETATM   12  O2  UNL     1     -23.140  31.634  -4.318  1.00  0.00    -0.195 OA
HETATM   13  C10 UNL     1     -22.234  32.686  -4.594  1.00  0.00     0.204 C 
HETATM   14  C11 UNL     1     -21.598  32.416  -5.909  1.00  0.00     0.072 C 
HETATM   15  C12 UNL     1     -20.434  33.322  -6.133  1.00  0.00     0.012 C 
HETATM   16  C13 UNL     1     -19.409  33.059  -5.033  1.00  0.00     0.019 C 
HETATM   17  C15 UNL     1     -19.990  33.379  -3.693  1.00  0.00    -0.037 C 
HETATM   18  C16 UNL     1     -20.094  34.893  -3.482  1.00  0.00     0.015 C 
HETATM   19  C17 UNL     1     -19.033  32.855  -2.623  1.00  0.00     0.015 C 
HETATM   20  C18 UNL     1     -21.323  32.795  -3.440  1.00  0.00     0.081 C 
HETATM   21  O3  UNL     1     -23.146  33.763  -4.681  1.00  0.00    -0.288 OA
HETATM   22  O4  UNL     1     -24.309  34.358  -2.767  1.00  0.00    -0.312 OA
ENDROOT
BRANCH  16  23
HETATM   23  C14 UNL     1     -18.224  33.944  -5.340  1.00  0.00     0.234 C 
BRANCH  23  24
HETATM   24  N1  UNL     1     -16.991  33.242  -5.463  1.00  0.00    -0.079 N 
ATOM     25  H13 UNL     1     -16.947  32.476  -4.790  1.00  0.00     0.274 HD
ATOM     26  H12 UNL     1     -16.968  32.708  -6.332  1.00  0.00     0.274 HD
ATOM     27  H11 UNL     1     -16.165  33.834  -5.386  1.00  0.00     0.274 HD
ENDBRANCH  23  24
ENDBRANCH  16  23
TORSDOF 2
ENDMDL
MODEL 3
REMARK VINA RESULT: -7.677004115      3.828      6.991
REMARK  2 active torsions:
REMARK  status: ('A' for Active; 'I' for Inactive)
REMARK    1  A    between atoms: C13_16  and  C14_17 
REMARK    2  A    between atoms: C14_17  and  N1_18 
ROOT
HETATM    1  C1  UNL     1     -21.471  35.245  -4.503  1.00  0.00     0.051 C 
HETATM    2  C2  UNL     1     -21.083  33.809  -4.194  1.00  0.00     0.087 C 
HETATM    3  C3  UNL     1     -20.028  33.307  -5.152  1.00  0.00     0.045 C 
HETATM    4  C4  UNL     1     -19.000  32.532  -4.395  1.00  0.00     0.041 C 
HETATM    5  C5  UNL     1     -18.268  33.386  -3.389  1.00  0.00     0.174 C 
HETATM    6  F1  UNL     1     -17.339  32.580  -2.758  1.00  0.00    -0.249 F 
HETATM    7  C6  UNL     1     -19.208  34.039  -2.408  1.00  0.00     0.074 C 
HETATM    8  C7  UNL     1     -20.652  33.744  -2.788  1.00  0.00    -0.039 C 
HETATM    9  C8  UNL     1     -21.704  33.409  -2.055  1.00  0.00     0.082 C 
HETATM   10  C9  UNL     1     -22.847  33.251  -2.997  1.00  0.00     0.336 C 
HETATM   11  O1  UNL     1     -23.572  32.137  -2.576  1.00  0.00    -0.164 OA
HETATM   12  O2  UNL     1     -24.449  32.717  -1.752  1.00  0.00    -0.195 OA
HETATM   13  C10 UNL     1     -24.935  33.728  -2.616  1.00  0.00     0.204 C 
HETATM   14  C11 UNL     1     -25.751  34.672  -1.810  1.00  0.00     0.072 C 
HETATM   15  C12 UNL     1     -26.526  35.592  -2.692  1.00  0.00     0.012 C 
HETATM   16  C13 UNL     1     -27.464  34.750  -3.552  1.00  0.00     0.019 C 
HETATM   17  C15 UNL     1     -26.679  33.827  -4.427  1.00  0.00    -0.037 C 
HETATM   18  C16 UNL     1     -26.015  34.587  -5.579  1.00  0.00     0.015 C 
HETATM   19  C17 UNL     1     -27.651  32.833  -5.064  1.00  0.00     0.015 C 
HETATM   20  C18 UNL     1     -25.629  33.055  -3.730  1.00  0.00     0.081 C 
HETATM   21  O3  UNL     1     -23.710  34.316  -3.003  1.00  0.00    -0.288 OA
HETATM   22  O4  UNL     1     -22.229  33.029  -4.236  1.00  0.00    -0.312 OA
ENDROOT
BRANCH  16  23
HETATM   23  C14 UNL     1     -28.273  35.725  -4.374  1.00  0.00     0.234 C 
BRANCH  23  24
HETATM   24  N1  UNL     1     -29.421  36.237  -3.704  1.00  0.00    -0.079 N 
ATOM     25  H13 UNL     1     -29.671  37.155  -4.073  1.00  0.00     0.274 HD
ATOM     26  H12 UNL     1     -30.254  35.712  -3.968  1.00  0.00     0.274 HD
ATOM     27  H11 UNL     1     -29.327  36.273  -2.689  1.00  0.00     0.274 HD
ENDBRANCH  23  24
ENDBRANCH  16  23
TORSDOF 2
ENDMDL
MODEL 4
REMARK VINA RESULT: -7.468201234      1.722      2.984
REMARK  2 active torsions:
REMARK  status: ('A' for Active; 'I' for Inactive)
REMARK    1  A    between atoms: C13_16  and  C14_17 
REMARK    2  A    between atoms: C14_17  and  N1_18 
ROOT
HETATM    1  C1  UNL     1     -24.041  32.570  -3.274  1.00  0.00     0.051 C 
HETATM    2  C2  UNL     1     -24.411  34.000  -3.630  1.00  0.00     0.087 C 
HETATM    3  C3  UNL     1     -25.699  34.054  -4.418  1.00  0.00     0.045 C 
HETATM    4  C4  UNL     1     -26.539  35.182  -3.917  1.00  0.00     0.041 C 
HETATM    5  C5  UNL     1     -26.947  34.993  -2.476  1.00  0.00     0.174 C 
HETATM    6  F1  UNL     1     -27.726  36.078  -2.120  1.00  0.00    -0.249 F 
HETATM    7  C6  UNL     1     -25.757  34.828  -1.567  1.00  0.00     0.074 C 
HETATM    8  C7  UNL     1     -24.474  34.780  -2.383  1.00  0.00    -0.039 C 
HETATM    9  C8  UNL     1     -23.289  35.342  -2.195  1.00  0.00     0.082 C 
HETATM   10  C9  UNL     1     -22.432  34.924  -3.340  1.00  0.00     0.336 C 
HETATM   11  O1  UNL     1     -21.681  36.037  -3.716  1.00  0.00    -0.164 OA
HETATM   12  O2  UNL     1     -20.596  35.865  -2.957  1.00  0.00    -0.195 OA
HETATM   13  C10 UNL     1     -20.294  34.525  -3.298  1.00  0.00     0.204 C 
HETATM   14  C11 UNL     1     -19.253  34.032  -2.360  1.00  0.00     0.072 C 
HETATM   15  C12 UNL     1     -18.681  32.738  -2.831  1.00  0.00     0.012 C 
HETATM   16  C13 UNL     1     -18.036  32.971  -4.195  1.00  0.00     0.019 C 
HETATM   17  C15 UNL     1     -19.064  33.409  -5.189  1.00  0.00    -0.037 C 
HETATM   18  C16 UNL     1     -19.959  32.240  -5.612  1.00  0.00     0.015 C 
HETATM   19  C17 UNL     1     -18.337  33.880  -6.449  1.00  0.00     0.015 C 
HETATM   20  C18 UNL     1     -19.941  34.506  -4.730  1.00  0.00     0.081 C 
HETATM   21  O3  UNL     1     -21.545  33.926  -3.030  1.00  0.00    -0.288 OA
HETATM   22  O4  UNL     1     -23.354  34.562  -4.331  1.00  0.00    -0.312 OA
ENDROOT
BRANCH  16  23
HETATM   23  C14 UNL     1     -17.413  31.655  -4.599  1.00  0.00     0.234 C 
BRANCH  23  24
HETATM   24  N1  UNL     1     -16.725  30.991  -3.543  1.00  0.00    -0.079 N 
ATOM     25  H13 UNL     1     -16.610  30.000  -3.759  1.00  0.00     0.274 HD
ATOM     26  H12 UNL     1     -15.746  31.277  -3.518  1.00  0.00     0.274 HD
ATOM     27  H11 UNL     1     -17.157  31.110  -2.627  1.00  0.00     0.274 HD
ENDBRANCH  23  24
ENDBRANCH  16  23
TORSDOF 2
ENDMDL
MODEL 5
REMARK VINA RESULT: -7.296743601      2.188      3.483
REMARK  2 active torsions:
REMARK  status: ('A' for Active; 'I' for Inactive)
REMARK    1  A    between atoms: C13_16  and  C14_17 
REMARK    2  A    between atoms: C14_17  and  N1_18 
ROOT
HETATM    1  C1  UNL     1     -23.805  32.265  -4.547  1.00  0.00     0.051 C 
HETATM    2  C2  UNL     1     -24.079  33.688  -5.003  1.00  0.00     0.087 C 
HETATM    3  C3  UNL     1     -25.019  33.714  -6.186  1.00  0.00     0.045 C 
HETATM    4  C4  UNL     1     -26.018  34.808  -6.000  1.00  0.00     0.041 C 
HETATM    5  C5  UNL     1     -26.890  34.585  -4.788  1.00  0.00     0.174 C 
HETATM    6  F1  UNL     1     -27.780  35.640  -4.718  1.00  0.00    -0.249 F 
HETATM    7  C6  UNL     1     -26.080  34.444  -3.525  1.00  0.00     0.074 C 
HETATM    8  C7  UNL     1     -24.593  34.447  -3.850  1.00  0.00    -0.039 C 
HETATM    9  C8  UNL     1     -23.565  35.042  -3.264  1.00  0.00     0.082 C 
HETATM   10  C9  UNL     1     -22.353  34.668  -4.046  1.00  0.00     0.336 C 
HETATM   11  O1  UNL     1     -21.557  35.810  -4.137  1.00  0.00    -0.164 OA
HETATM   12  O2  UNL     1     -20.794  35.659  -3.051  1.00  0.00    -0.195 OA
HETATM   13  C10 UNL     1     -20.347  34.334  -3.273  1.00  0.00     0.204 C 
HETATM   14  C11 UNL     1     -19.676  33.859  -2.036  1.00  0.00     0.072 C 
HETATM   15  C12 UNL     1     -18.933  32.590  -2.286  1.00  0.00     0.012 C 
HETATM   16  C13 UNL     1     -17.867  32.864  -3.344  1.00  0.00     0.019 C 
HETATM   17  C15 UNL     1     -18.505  33.285  -4.629  1.00  0.00    -0.037 C 
HETATM   18  C16 UNL     1     -19.160  32.096  -5.338  1.00  0.00     0.015 C 
HETATM   19  C17 UNL     1     -17.406  33.798  -5.560  1.00  0.00     0.015 C 
HETATM   20  C18 UNL     1     -19.523  34.348  -4.496  1.00  0.00     0.081 C 
HETATM   21  O3  UNL     1     -21.593  33.693  -3.454  1.00  0.00    -0.288 OA
HETATM   22  O4  UNL     1     -22.866  34.293  -5.295  1.00  0.00    -0.312 OA
ENDROOT
BRANCH  16  23
HETATM   23  C14 UNL     1     -17.099  31.575  -3.514  1.00  0.00     0.234 C 
BRANCH  23  24
HETATM   24  N1  UNL     1     -17.383  30.595  -2.519  1.00  0.00    -0.079 N 
ATOM     25  H13 UNL     1     -17.928  31.004  -1.759  1.00  0.00     0.274 HD
ATOM     26  H12 UNL     1     -18.059  29.916  -2.869  1.00  0.00     0.274 HD
ATOM     27  H11 UNL     1     -16.557  30.122  -2.154  1.00  0.00     0.274 HD
ENDBRANCH  23  24
ENDBRANCH  16  23
TORSDOF 2
ENDMDL
