MODEL 1
REMARK VINA RESULT: -7.872834933      0.000      0.000
REMARK  3 active torsions:
REMARK  status: ('A' for Active; 'I' for Inactive)
REMARK    1  A    between atoms: C8_10  and  O1_11 
REMARK    2  A    between atoms: C8_10  and  C9_13 
REMARK    3  A    between atoms: C10_14  and  C11_15 
ROOT
HETATM    1  N1  UNL     1     -16.892  33.599  -6.081  1.00  0.00    -0.191 NA
HETATM    2  C1  UNL     1     -17.670  33.598  -5.192  1.00  0.00     0.100 C 
HETATM    3  C2  UNL     1     -18.594  33.618  -4.100  1.00  0.00     0.058 A 
HETATM    4  C3  UNL     1     -18.247  33.996  -2.830  1.00  0.00     0.026 A 
HETATM    5  C4  UNL     1     -19.135  34.025  -1.778  1.00  0.00     0.047 A 
HETATM    6  C5  UNL     1     -20.433  33.652  -2.032  1.00  0.00     0.150 A 
HETATM    7  F1  UNL     1     -21.363  33.661  -1.026  1.00  0.00    -0.203 F 
HETATM    8  C6  UNL     1     -20.849  33.254  -3.318  1.00  0.00     0.128 A 
HETATM    9  C7  UNL     1     -19.927  33.239  -4.342  1.00  0.00     0.048 A 
HETATM   10  C8  UNL     1     -20.342  32.833  -5.669  1.00  0.00     0.176 C 
HETATM   11  C17 UNL     1     -21.586  31.991  -5.765  1.00  0.00     0.219 C 
HETATM   12  C18 UNL     1     -22.136  31.928  -7.097  1.00  0.00     0.076 C 
HETATM   13  N2  UNL     1     -22.577  31.863  -8.163  1.00  0.00    -0.196 NA
HETATM   14  C19 UNL     1     -22.590  32.496  -4.767  1.00  0.00     0.140 C 
HETATM   15  N3  UNL     1     -23.817  32.541  -5.142  1.00  0.00    -0.382 N 
ATOM     16  H31 UNL     1     -24.499  32.884  -4.464  1.00  0.00     0.158 HD
ATOM     17  H32 UNL     1     -24.120  32.252  -6.071  1.00  0.00     0.158 HD
HETATM   18  O2  UNL     1     -22.178  32.889  -3.504  1.00  0.00    -0.293 OA
ENDROOT
BRANCH  10  19
HETATM   19  O1  UNL     1     -19.338  31.907  -6.098  1.00  0.00    -0.371 OA
ATOM     20  H1  UNL     1     -19.390  31.188  -5.480  1.00  0.00     0.212 HD
ENDBRANCH  10  19
BRANCH  10  21
HETATM   21  C9  UNL     1     -20.329  33.934  -6.621  1.00  0.00    -0.056 C 
HETATM   22  C10 UNL     1     -20.334  34.845  -7.426  1.00  0.00    -0.064 C 
BRANCH  22  23
HETATM   23  C11 UNL     1     -20.335  35.898  -8.383  1.00  0.00     0.017 A 
HETATM   24  C12 UNL     1     -21.106  35.778  -9.520  1.00  0.00     0.020 A 
HETATM   25  C13 UNL     1     -21.146  36.773 -10.486  1.00  0.00     0.001 A 
HETATM   26  C14 UNL     1     -20.405  37.923 -10.332  1.00  0.00     0.000 A 
HETATM   27  C15 UNL     1     -19.634  38.062  -9.212  1.00  0.00     0.001 A 
HETATM   28  C16 UNL     1     -19.598  37.058  -8.242  1.00  0.00     0.020 A 
ENDBRANCH  22  23
ENDBRANCH  10  21
TORSDOF 3
ENDMDL
MODEL 2
REMARK VINA RESULT: -7.631216870      2.727      6.475
REMARK  3 active torsions:
REMARK  status: ('A' for Active; 'I' for Inactive)
REMARK    1  A    between atoms: C8_10  and  O1_11 
REMARK    2  A    between atoms: C8_10  and  C9_13 
REMARK    3  A    between atoms: C10_14  and  C11_15 
ROOT
HETATM    1  N1  UNL     1     -23.578  32.102  -7.276  1.00  0.00    -0.191 NA
HETATM    2  C1  UNL     1     -22.785  32.932  -7.555  1.00  0.00     0.100 C 
HETATM    3  C2  UNL     1     -21.848  33.955  -7.905  1.00  0.00     0.058 A 
HETATM    4  C3  UNL     1     -22.079  34.878  -8.891  1.00  0.00     0.026 A 
HETATM    5  C4  UNL     1     -21.184  35.870  -9.225  1.00  0.00     0.047 A 
HETATM    6  C5  UNL     1     -20.003  35.922  -8.525  1.00  0.00     0.150 A 
HETATM    7  F1  UNL     1     -19.072  36.886  -8.812  1.00  0.00    -0.203 F 
HETATM    8  C6  UNL     1     -19.710  35.000  -7.500  1.00  0.00     0.128 A 
HETATM    9  C7  UNL     1     -20.634  34.023  -7.198  1.00  0.00     0.048 A 
HETATM   10  C8  UNL     1     -20.346  33.070  -6.147  1.00  0.00     0.176 C 
HETATM   11  C17 UNL     1     -18.898  32.873  -5.784  1.00  0.00     0.219 C 
HETATM   12  C18 UNL     1     -18.707  32.205  -4.521  1.00  0.00     0.076 C 
HETATM   13  N2  UNL     1     -18.546  31.661  -3.514  1.00  0.00    -0.196 NA
HETATM   14  C19 UNL     1     -18.204  34.205  -5.825  1.00  0.00     0.140 C 
HETATM   15  N3  UNL     1     -17.349  34.450  -4.899  1.00  0.00    -0.382 N 
ATOM     16  H31 UNL     1     -16.878  35.354  -4.926  1.00  0.00     0.158 HD
ATOM     17  H32 UNL     1     -17.135  33.783  -4.158  1.00  0.00     0.158 HD
HETATM   18  O2  UNL     1     -18.495  35.111  -6.832  1.00  0.00    -0.293 OA
ENDROOT
BRANCH  10  19
HETATM   19  O1  UNL     1     -20.674  31.795  -6.709  1.00  0.00    -0.371 OA
ATOM     20  H1  UNL     1     -19.844  31.339  -6.780  1.00  0.00     0.212 HD
ENDBRANCH  10  19
BRANCH  10  21
HETATM   21  C9  UNL     1     -21.202  33.246  -4.982  1.00  0.00    -0.056 C 
HETATM   22  C10 UNL     1     -21.932  33.392  -4.022  1.00  0.00    -0.064 C 
BRANCH  22  23
HETATM   23  C11 UNL     1     -22.793  33.584  -2.905  1.00  0.00     0.017 A 
HETATM   24  C12 UNL     1     -23.773  32.651  -2.638  1.00  0.00     0.020 A 
HETATM   25  C13 UNL     1     -24.639  32.786  -1.563  1.00  0.00     0.001 A 
HETATM   26  C14 UNL     1     -24.541  33.872  -0.722  1.00  0.00     0.000 A 
HETATM   27  C15 UNL     1     -23.576  34.809  -0.970  1.00  0.00     0.001 A 
HETATM   28  C16 UNL     1     -22.707  34.667  -2.052  1.00  0.00     0.020 A 
ENDBRANCH  22  23
ENDBRANCH  10  21
TORSDOF 3
ENDMDL
MODEL 3
REMARK VINA RESULT: -7.587574038      3.205      4.511
REMARK  3 active torsions:
REMARK  status: ('A' for Active; 'I' for Inactive)
REMARK    1  A    between atoms: C8_10  and  O1_11 
REMARK    2  A    between atoms: C8_10  and  C9_13 
REMARK    3  A    between atoms: C10_14  and  C11_15 
ROOT
HETATM    1  N1  UNL     1     -21.182  33.029  -1.885  1.00  0.00    -0.191 NA
HETATM    2  C1  UNL     1     -22.251  33.531  -1.853  1.00  0.00     0.100 C 
HETATM    3  C2  UNL     1     -23.534  34.161  -1.794  1.00  0.00     0.058 A 
HETATM    4  C3  UNL     1     -23.918  34.989  -0.772  1.00  0.00     0.026 A 
HETATM    5  C4  UNL     1     -25.148  35.604  -0.716  1.00  0.00     0.047 A 
HETATM    6  C5  UNL     1     -26.025  35.365  -1.746  1.00  0.00     0.150 A 
HETATM    7  F1  UNL     1     -27.265  35.949  -1.747  1.00  0.00    -0.203 F 
HETATM    8  C6  UNL     1     -25.687  34.523  -2.825  1.00  0.00     0.128 A 
HETATM    9  C7  UNL     1     -24.445  33.927  -2.840  1.00  0.00     0.048 A 
HETATM   10  C8  UNL     1     -24.084  33.060  -3.943  1.00  0.00     0.176 C 
HETATM   11  C17 UNL     1     -25.215  32.463  -4.738  1.00  0.00     0.219 C 
HETATM   12  C18 UNL     1     -24.801  31.920  -6.008  1.00  0.00     0.076 C 
HETATM   13  N2  UNL     1     -24.476  31.473  -7.023  1.00  0.00    -0.196 NA
HETATM   14  C19 UNL     1     -26.294  33.496  -4.894  1.00  0.00     0.140 C 
HETATM   15  N3  UNL     1     -26.878  33.567  -6.035  1.00  0.00    -0.382 N 
ATOM     16  H31 UNL     1     -27.611  34.268  -6.142  1.00  0.00     0.158 HD
ATOM     17  H32 UNL     1     -26.636  32.957  -6.816  1.00  0.00     0.158 HD
HETATM   18  O2  UNL     1     -26.624  34.324  -3.833  1.00  0.00    -0.293 OA
ENDROOT
BRANCH  10  19
HETATM   19  O1  UNL     1     -23.525  31.896  -3.325  1.00  0.00    -0.371 OA
ATOM     20  H1  UNL     1     -22.586  32.042  -3.337  1.00  0.00     0.212 HD
ENDBRANCH  10  19
BRANCH  10  21
HETATM   21  C9  UNL     1     -23.041  33.629  -4.784  1.00  0.00    -0.056 C 
HETATM   22  C10 UNL     1     -22.168  34.086  -5.495  1.00  0.00    -0.064 C 
BRANCH  22  23
HETATM   23  C11 UNL     1     -21.131  34.607  -6.319  1.00  0.00     0.017 A 
HETATM   24  C12 UNL     1     -19.819  34.494  -5.910  1.00  0.00     0.020 A 
HETATM   25  C13 UNL     1     -18.769  34.984  -6.673  1.00  0.00     0.001 A 
HETATM   26  C14 UNL     1     -19.014  35.604  -7.877  1.00  0.00     0.000 A 
HETATM   27  C15 UNL     1     -20.308  35.727  -8.302  1.00  0.00     0.001 A 
HETATM   28  C16 UNL     1     -21.361  35.232  -7.530  1.00  0.00     0.020 A 
ENDBRANCH  22  23
ENDBRANCH  10  21
TORSDOF 3
ENDMDL
MODEL 4
REMARK VINA RESULT: -7.502228305      3.012      6.400
REMARK  3 active torsions:
REMARK  status: ('A' for Active; 'I' for Inactive)
REMARK    1  A    between atoms: C8_10  and  O1_11 
REMARK    2  A    between atoms: C8_10  and  C9_13 
REMARK    3  A    between atoms: C10_14  and  C11_15 
ROOT
HETATM    1  N1  UNL     1     -23.801  32.178  -6.522  1.00  0.00    -0.191 NA
HETATM    2  C1  UNL     1     -22.881  32.847  -6.843  1.00  0.00     0.100 C 
HETATM    3  C2  UNL     1     -21.787  33.674  -7.249  1.00  0.00     0.058 A 
HETATM    4  C3  UNL     1     -21.790  34.405  -8.409  1.00  0.00     0.026 A 
HETATM    5  C4  UNL     1     -20.743  35.209  -8.800  1.00  0.00     0.047 A 
HETATM    6  C5  UNL     1     -19.646  35.270  -7.974  1.00  0.00     0.150 A 
HETATM    7  F1  UNL     1     -18.572  36.053  -8.309  1.00  0.00    -0.203 F 
HETATM    8  C6  UNL     1     -19.586  34.541  -6.769  1.00  0.00     0.128 A 
HETATM    9  C7  UNL     1     -20.657  33.748  -6.416  1.00  0.00     0.048 A 
HETATM   10  C8  UNL     1     -20.608  32.995  -5.181  1.00  0.00     0.176 C 
HETATM   11  C17 UNL     1     -19.246  32.718  -4.604  1.00  0.00     0.219 C 
HETATM   12  C18 UNL     1     -19.279  32.295  -3.226  1.00  0.00     0.076 C 
HETATM   13  N2  UNL     1     -19.298  31.945  -2.125  1.00  0.00    -0.196 NA
HETATM   14  C19 UNL     1     -18.383  33.934  -4.797  1.00  0.00     0.140 C 
HETATM   15  N3  UNL     1     -17.608  34.262  -3.828  1.00  0.00    -0.382 N 
ATOM     16  H31 UNL     1     -17.022  35.087  -3.959  1.00  0.00     0.158 HD
ATOM     17  H32 UNL     1     -17.562  33.735  -2.957  1.00  0.00     0.158 HD
HETATM   18  O2  UNL     1     -18.445  34.650  -5.982  1.00  0.00    -0.293 OA
ENDROOT
BRANCH  10  19
HETATM   19  O1  UNL     1     -21.039  31.677  -5.539  1.00  0.00    -0.371 OA
ATOM     20  H1  UNL     1     -21.828  31.810  -6.051  1.00  0.00     0.212 HD
ENDBRANCH  10  19
BRANCH  10  21
HETATM   21  C9  UNL     1     -21.553  33.487  -4.188  1.00  0.00    -0.056 C 
HETATM   22  C10 UNL     1     -22.354  33.882  -3.364  1.00  0.00    -0.064 C 
BRANCH  22  23
HETATM   23  C11 UNL     1     -23.305  34.350  -2.415  1.00  0.00     0.017 A 
HETATM   24  C12 UNL     1     -24.606  34.576  -2.814  1.00  0.00     0.020 A 
HETATM   25  C13 UNL     1     -25.575  35.030  -1.932  1.00  0.00     0.001 A 
HETATM   26  C14 UNL     1     -25.259  35.271  -0.614  1.00  0.00     0.000 A 
HETATM   27  C15 UNL     1     -23.975  35.054  -0.197  1.00  0.00     0.001 A 
HETATM   28  C16 UNL     1     -23.004  34.595  -1.089  1.00  0.00     0.020 A 
ENDBRANCH  22  23
ENDBRANCH  10  21
TORSDOF 3
ENDMDL
MODEL 5
REMARK VINA RESULT: -7.416488910      2.746      5.636
REMARK  3 active torsions:
REMARK  status: ('A' for Active; 'I' for Inactive)
REMARK    1  A    between atoms: C8_10  and  O1_11 
REMARK    2  A    between atoms: C8_10  and  C9_13 
REMARK    3  A    between atoms: C10_14  and  C11_15 
ROOT
HETATM    1  N1  UNL     1     -22.677  33.999  -1.396  1.00  0.00    -0.191 NA
HETATM    2  C1  UNL     1     -21.642  33.730  -1.896  1.00  0.00     0.100 C 
HETATM    3  C2  UNL     1     -20.383  33.381  -2.481  1.00  0.00     0.058 A 
HETATM    4  C3  UNL     1     -19.375  32.771  -1.782  1.00  0.00     0.026 A 
HETATM    5  C4  UNL     1     -18.166  32.426  -2.343  1.00  0.00     0.047 A 
HETATM    6  C5  UNL     1     -17.976  32.716  -3.672  1.00  0.00     0.150 A 
HETATM    7  F1  UNL     1     -16.793  32.397  -4.286  1.00  0.00    -0.203 F 
HETATM    8  C6  UNL     1     -18.976  33.343  -4.442  1.00  0.00     0.128 A 
HETATM    9  C7  UNL     1     -20.172  33.671  -3.840  1.00  0.00     0.048 A 
HETATM   10  C8  UNL     1     -21.208  34.315  -4.620  1.00  0.00     0.176 C 
HETATM   11  C17 UNL     1     -20.774  35.032  -5.871  1.00  0.00     0.219 C 
HETATM   12  C18 UNL     1     -21.861  35.330  -6.770  1.00  0.00     0.076 C 
HETATM   13  N2  UNL     1     -22.728  35.583  -7.492  1.00  0.00    -0.196 NA
HETATM   14  C19 UNL     1     -19.697  34.225  -6.541  1.00  0.00     0.140 C 
HETATM   15  N3  UNL     1     -19.737  34.142  -7.822  1.00  0.00    -0.382 N 
ATOM     16  H31 UNL     1     -19.007  33.595  -8.277  1.00  0.00     0.158 HD
ATOM     17  H32 UNL     1     -20.459  34.597  -8.380  1.00  0.00     0.158 HD
HETATM   18  O2  UNL     1     -18.716  33.608  -5.782  1.00  0.00    -0.293 OA
ENDROOT
BRANCH  10  19
HETATM   19  O1  UNL     1     -21.653  35.407  -3.807  1.00  0.00    -0.371 OA
ATOM     20  H1  UNL     1     -22.553  35.196  -3.591  1.00  0.00     0.212 HD
ENDBRANCH  10  19
BRANCH  10  21
HETATM   21  C9  UNL     1     -22.363  33.456  -4.834  1.00  0.00    -0.056 C 
HETATM   22  C10 UNL     1     -23.334  32.742  -4.993  1.00  0.00    -0.064 C 
BRANCH  22  23
HETATM   23  C11 UNL     1     -24.463  31.893  -5.164  1.00  0.00     0.017 A 
HETATM   24  C12 UNL     1     -25.189  31.500  -4.059  1.00  0.00     0.020 A 
HETATM   25  C13 UNL     1     -26.298  30.674  -4.168  1.00  0.00     0.001 A 
HETATM   26  C14 UNL     1     -26.709  30.217  -5.400  1.00  0.00     0.000 A 
HETATM   27  C15 UNL     1     -26.003  30.595  -6.508  1.00  0.00     0.001 A 
HETATM   28  C16 UNL     1     -24.888  31.427  -6.394  1.00  0.00     0.020 A 
ENDBRANCH  22  23
ENDBRANCH  10  21
TORSDOF 3
ENDMDL
