MODEL 1
REMARK VINA RESULT: -7.302754709      0.000      0.000
REMARK  10 active torsions:
REMARK  status: ('A' for Active; 'I' for Inactive)
REMARK    1  A    between atoms: N2_4  and  C3_6 
REMARK    2  A    between atoms: C3_6  and  C4_7 
REMARK    3  A    between atoms: C4_7  and  C5_8 
REMARK    4  A    between atoms: C5_8  and  C6_9 
REMARK    5  A    between atoms: C6_9  and  C7_10 
REMARK    6  A    between atoms: C7_10  and  N3_12 
REMARK    7  A    between atoms: C10_15  and  N4_16 
REMARK    8  A    between atoms: N4_16  and  C11_18 
REMARK    9  A    between atoms: C11_18  and  N5_20 
REMARK   10  A    between atoms: N5_20  and  C12_22 
ROOT
HETATM    1  N3  UNL     1     -13.497  36.452  17.752  1.00  0.00    -0.375 N 
HETATM    2  C8  UNL     1     -12.611  36.041  18.791  1.00  0.00     0.125 C 
HETATM    3  C9  UNL     1     -11.177  36.535  18.601  1.00  0.00     0.045 C 
HETATM    4  C10 UNL     1     -11.138  37.937  18.084  1.00  0.00     0.087 C 
HETATM    5  C16 UNL     1     -12.520  38.565  18.281  1.00  0.00     0.045 C 
HETATM    6  C17 UNL     1     -13.416  37.831  17.267  1.00  0.00     0.125 C 
ENDROOT
BRANCH   4   7
HETATM    7  N4  UNL     1     -10.113  38.768  18.625  1.00  0.00    -0.362 N 
ATOM      8  H4  UNL     1     -10.353  39.750  18.760  1.00  0.00     0.162 HD
BRANCH   7   9
HETATM    9  C11 UNL     1      -8.808  38.389  18.994  1.00  0.00     0.173 C 
HETATM   10  S2  UNL     1      -8.341  38.601  20.539  1.00  0.00    -0.041 SA
BRANCH   9  11
HETATM   11  N5  UNL     1      -7.918  37.828  18.087  1.00  0.00    -0.318 N 
ATOM     12  H5  UNL     1      -7.814  36.815  18.156  1.00  0.00     0.170 HD
BRANCH  11  13
HETATM   13  C12 UNL     1      -7.208  38.384  17.179  1.00  0.00     0.129 A 
HETATM   14  N6  UNL     1      -7.399  39.671  16.737  1.00  0.00    -0.285 N 
HETATM   15  N7  UNL     1      -6.527  39.956  15.811  1.00  0.00    -0.310 N 
ATOM     16  H6  UNL     1      -8.117  40.308  17.083  1.00  0.00     0.188 HD
HETATM   17  C13 UNL     1      -5.726  38.921  15.580  1.00  0.00     0.117 A 
ATOM     18  H7  UNL     1      -6.468  40.853  15.329  1.00  0.00     0.186 HD
HETATM   19  C14 UNL     1      -6.148  37.919  16.441  1.00  0.00     0.000 A 
HETATM   20  C15 UNL     1      -5.499  36.597  16.485  1.00  0.00     0.054 C 
ENDBRANCH  11  13
ENDBRANCH   9  11
ENDBRANCH   7   9
ENDBRANCH   4   7
BRANCH   1  21
HETATM   21  C7  UNL     1     -14.467  35.606  17.149  1.00  0.00     0.075 C 
HETATM   22  S1  UNL     1     -16.054  35.818  17.396  1.00  0.00    -0.066 SA
BRANCH  21  23
HETATM   23  C6  UNL     1     -13.989  34.544  16.255  1.00  0.00     0.069 C 
BRANCH  23  24
HETATM   24  C5  UNL     1     -14.921  34.122  15.176  1.00  0.00     0.008 C 
BRANCH  24  25
HETATM   25  C4  UNL     1     -14.380  32.992  14.360  1.00  0.00     0.020 C 
BRANCH  25  26
HETATM   26  C3  UNL     1     -14.055  33.508  12.951  1.00  0.00     0.120 C 
BRANCH  26  27
HETATM   27  N2  UNL     1     -12.604  33.532  12.890  1.00  0.00    -0.382 N 
HETATM   28  C2  UNL     1     -12.025  33.991  11.845  1.00  0.00     0.085 C 
HETATM   29  C1  UNL     1     -12.857  34.485  10.720  1.00  0.00     0.085 C 
HETATM   30  N1  UNL     1     -10.587  34.029  11.752  1.00  0.00    -0.088 NA
ATOM     31  H2  UNL     1     -12.051  33.186  13.674  1.00  0.00     0.160 HD
ENDBRANCH  26  27
ENDBRANCH  25  26
ENDBRANCH  24  25
ENDBRANCH  23  24
ENDBRANCH  21  23
ENDBRANCH   1  21
TORSDOF 10
ENDMDL
MODEL 2
REMARK VINA RESULT: -7.286524516      6.386      7.942
REMARK  10 active torsions:
REMARK  status: ('A' for Active; 'I' for Inactive)
REMARK    1  A    between atoms: N2_4  and  C3_6 
REMARK    2  A    between atoms: C3_6  and  C4_7 
REMARK    3  A    between atoms: C4_7  and  C5_8 
REMARK    4  A    between atoms: C5_8  and  C6_9 
REMARK    5  A    between atoms: C6_9  and  C7_10 
REMARK    6  A    between atoms: C7_10  and  N3_12 
REMARK    7  A    between atoms: C10_15  and  N4_16 
REMARK    8  A    between atoms: N4_16  and  C11_18 
REMARK    9  A    between atoms: C11_18  and  N5_20 
REMARK   10  A    between atoms: N5_20  and  C12_22 
ROOT
HETATM    1  N3  UNL     1     -13.358  42.286  16.229  1.00  0.00    -0.375 N 
HETATM    2  C8  UNL     1     -13.220  40.991  15.650  1.00  0.00     0.125 C 
HETATM    3  C9  UNL     1     -11.810  40.414  15.773  1.00  0.00     0.045 C 
HETATM    4  C10 UNL     1     -11.201  40.717  17.105  1.00  0.00     0.087 C 
HETATM    5  C16 UNL     1     -12.315  41.159  18.057  1.00  0.00     0.045 C 
HETATM    6  C17 UNL     1     -12.735  42.542  17.529  1.00  0.00     0.125 C 
ENDROOT
BRANCH   4   7
HETATM    7  N4  UNL     1     -10.417  39.674  17.678  1.00  0.00    -0.362 N 
ATOM      8  H4  UNL     1     -10.787  38.728  17.584  1.00  0.00     0.162 HD
BRANCH   7   9
HETATM    9  C11 UNL     1      -9.191  39.798  18.360  1.00  0.00     0.173 C 
HETATM   10  S2  UNL     1      -9.133  40.714  19.704  1.00  0.00    -0.041 SA
BRANCH   9  11
HETATM   11  N5  UNL     1      -8.039  39.151  17.929  1.00  0.00    -0.318 N 
ATOM     12  H5  UNL     1      -7.611  38.531  18.617  1.00  0.00     0.170 HD
BRANCH  11  13
HETATM   13  C12 UNL     1      -7.431  39.213  16.805  1.00  0.00     0.129 A 
HETATM   14  N6  UNL     1      -7.637  40.205  15.876  1.00  0.00    -0.285 N 
HETATM   15  N7  UNL     1      -6.879  40.001  14.836  1.00  0.00    -0.310 N 
ATOM     16  H6  UNL     1      -8.286  40.984  15.986  1.00  0.00     0.188 HD
HETATM   17  C13 UNL     1      -6.146  38.904  14.990  1.00  0.00     0.117 A 
ATOM     18  H7  UNL     1      -6.853  40.604  14.013  1.00  0.00     0.186 HD
HETATM   19  C14 UNL     1      -6.487  38.396  16.235  1.00  0.00     0.000 A 
HETATM   20  C15 UNL     1      -5.879  37.168  16.775  1.00  0.00     0.054 C 
ENDBRANCH  11  13
ENDBRANCH   9  11
ENDBRANCH   7   9
ENDBRANCH   4   7
BRANCH   1  21
HETATM   21  C7  UNL     1     -14.069  43.358  15.625  1.00  0.00     0.075 C 
HETATM   22  S1  UNL     1     -14.749  44.534  16.507  1.00  0.00    -0.066 SA
BRANCH  21  23
HETATM   23  C6  UNL     1     -14.140  43.394  14.158  1.00  0.00     0.069 C 
BRANCH  23  24
HETATM   24  C5  UNL     1     -15.243  44.199  13.571  1.00  0.00     0.008 C 
BRANCH  24  25
HETATM   25  C4  UNL     1     -14.850  44.861  12.290  1.00  0.00     0.020 C 
BRANCH  25  26
HETATM   26  C3  UNL     1     -15.938  45.871  11.898  1.00  0.00     0.120 C 
BRANCH  26  27
HETATM   27  N2  UNL     1     -15.215  47.086  11.567  1.00  0.00    -0.382 N 
HETATM   28  C2  UNL     1     -15.387  48.136  12.278  1.00  0.00     0.085 C 
HETATM   29  C1  UNL     1     -16.328  48.082  13.424  1.00  0.00     0.085 C 
HETATM   30  N1  UNL     1     -14.685  49.358  11.976  1.00  0.00    -0.088 NA
ATOM     31  H2  UNL     1     -14.574  47.103  10.774  1.00  0.00     0.160 HD
ENDBRANCH  26  27
ENDBRANCH  25  26
ENDBRANCH  24  25
ENDBRANCH  23  24
ENDBRANCH  21  23
ENDBRANCH   1  21
TORSDOF 10
ENDMDL
MODEL 3
REMARK VINA RESULT: -7.088919941      1.440      1.606
REMARK  10 active torsions:
REMARK  status: ('A' for Active; 'I' for Inactive)
REMARK    1  A    between atoms: N2_4  and  C3_6 
REMARK    2  A    between atoms: C3_6  and  C4_7 
REMARK    3  A    between atoms: C4_7  and  C5_8 
REMARK    4  A    between atoms: C5_8  and  C6_9 
REMARK    5  A    between atoms: C6_9  and  C7_10 
REMARK    6  A    between atoms: C7_10  and  N3_12 
REMARK    7  A    between atoms: C10_15  and  N4_16 
REMARK    8  A    between atoms: N4_16  and  C11_18 
REMARK    9  A    between atoms: C11_18  and  N5_20 
REMARK   10  A    between atoms: N5_20  and  C12_22 
ROOT
HETATM    1  N3  UNL     1     -13.452  36.500  17.779  1.00  0.00    -0.375 N 
HETATM    2  C8  UNL     1     -12.560  36.080  18.809  1.00  0.00     0.125 C 
HETATM    3  C9  UNL     1     -11.131  36.586  18.622  1.00  0.00     0.045 C 
HETATM    4  C10 UNL     1     -11.102  37.996  18.125  1.00  0.00     0.087 C 
HETATM    5  C16 UNL     1     -12.488  38.612  18.335  1.00  0.00     0.045 C 
HETATM    6  C17 UNL     1     -13.382  37.887  17.314  1.00  0.00     0.125 C 
ENDROOT
BRANCH   4   7
HETATM    7  N4  UNL     1     -10.081  38.826  18.674  1.00  0.00    -0.362 N 
ATOM      8  H4  UNL     1     -10.325  39.805  18.819  1.00  0.00     0.162 HD
BRANCH   7   9
HETATM    9  C11 UNL     1      -8.774  38.449  19.040  1.00  0.00     0.173 C 
HETATM   10  S2  UNL     1      -8.302  38.665  20.583  1.00  0.00    -0.041 SA
BRANCH   9  11
HETATM   11  N5  UNL     1      -7.886  37.886  18.132  1.00  0.00    -0.318 N 
ATOM     12  H5  UNL     1      -7.680  36.899  18.286  1.00  0.00     0.170 HD
BRANCH  11  13
HETATM   13  C12 UNL     1      -7.287  38.414  17.132  1.00  0.00     0.129 A 
HETATM   14  N6  UNL     1      -7.621  39.634  16.595  1.00  0.00    -0.285 N 
HETATM   15  N7  UNL     1      -6.837  39.905  15.589  1.00  0.00    -0.310 N 
ATOM     16  H6  UNL     1      -8.369  40.238  16.934  1.00  0.00     0.188 HD
HETATM   17  C13 UNL     1      -5.963  38.924  15.392  1.00  0.00     0.117 A 
ATOM     18  H7  UNL     1      -6.889  40.756  15.029  1.00  0.00     0.186 HD
HETATM   19  C14 UNL     1      -6.238  37.973  16.364  1.00  0.00     0.000 A 
HETATM   20  C15 UNL     1      -5.472  36.720  16.475  1.00  0.00     0.054 C 
ENDBRANCH  11  13
ENDBRANCH   9  11
ENDBRANCH   7   9
ENDBRANCH   4   7
BRANCH   1  21
HETATM   21  C7  UNL     1     -14.419  35.656  17.168  1.00  0.00     0.075 C 
HETATM   22  S1  UNL     1     -16.008  35.887  17.381  1.00  0.00    -0.066 SA
BRANCH  21  23
HETATM   23  C6  UNL     1     -13.934  34.579  16.295  1.00  0.00     0.069 C 
BRANCH  23  24
HETATM   24  C5  UNL     1     -14.959  33.892  15.465  1.00  0.00     0.008 C 
BRANCH  24  25
HETATM   25  C4  UNL     1     -14.376  33.261  14.242  1.00  0.00     0.020 C 
BRANCH  25  26
HETATM   26  C3  UNL     1     -14.234  31.751  14.480  1.00  0.00     0.120 C 
BRANCH  26  27
HETATM   27  N2  UNL     1     -12.802  31.516  14.539  1.00  0.00    -0.382 N 
HETATM   28  C2  UNL     1     -12.257  30.727  13.692  1.00  0.00     0.085 C 
HETATM   29  C1  UNL     1     -13.110  30.068  12.671  1.00  0.00     0.085 C 
HETATM   30  N1  UNL     1     -10.839  30.473  13.723  1.00  0.00    -0.088 NA
ATOM     31  H2  UNL     1     -12.234  31.978  15.250  1.00  0.00     0.160 HD
ENDBRANCH  26  27
ENDBRANCH  25  26
ENDBRANCH  24  25
ENDBRANCH  23  24
ENDBRANCH  21  23
ENDBRANCH   1  21
TORSDOF 10
ENDMDL
MODEL 4
REMARK VINA RESULT: -7.022331227      2.128      2.772
REMARK  10 active torsions:
REMARK  status: ('A' for Active; 'I' for Inactive)
REMARK    1  A    between atoms: N2_4  and  C3_6 
REMARK    2  A    between atoms: C3_6  and  C4_7 
REMARK    3  A    between atoms: C4_7  and  C5_8 
REMARK    4  A    between atoms: C5_8  and  C6_9 
REMARK    5  A    between atoms: C6_9  and  C7_10 
REMARK    6  A    between atoms: C7_10  and  N3_12 
REMARK    7  A    between atoms: C10_15  and  N4_16 
REMARK    8  A    between atoms: N4_16  and  C11_18 
REMARK    9  A    between atoms: C11_18  and  N5_20 
REMARK   10  A    between atoms: N5_20  and  C12_22 
ROOT
HETATM    1  N3  UNL     1     -13.934  37.190  18.353  1.00  0.00    -0.375 N 
HETATM    2  C8  UNL     1     -13.367  38.026  17.345  1.00  0.00     0.125 C 
HETATM    3  C9  UNL     1     -11.993  38.582  17.716  1.00  0.00     0.045 C 
HETATM    4  C10 UNL     1     -11.152  37.562  18.415  1.00  0.00     0.087 C 
HETATM    5  C16 UNL     1     -11.776  36.183  18.190  1.00  0.00     0.045 C 
HETATM    6  C17 UNL     1     -13.071  36.214  19.021  1.00  0.00     0.125 C 
ENDROOT
BRANCH   4   7
HETATM    7  N4  UNL     1      -9.767  37.563  18.075  1.00  0.00    -0.362 N 
ATOM      8  H4  UNL     1      -9.495  36.970  17.292  1.00  0.00     0.162 HD
BRANCH   7   9
HETATM    9  C11 UNL     1      -8.732  38.289  18.696  1.00  0.00     0.173 C 
HETATM   10  S2  UNL     1      -9.052  39.075  20.085  1.00  0.00    -0.041 SA
BRANCH   9  11
HETATM   11  N5  UNL     1      -7.448  38.340  18.168  1.00  0.00    -0.318 N 
ATOM     12  H5  UNL     1      -6.705  38.072  18.815  1.00  0.00     0.170 HD
BRANCH  11  13
HETATM   13  C12 UNL     1      -7.051  38.670  16.998  1.00  0.00     0.129 A 
HETATM   14  N6  UNL     1      -7.464  39.805  16.341  1.00  0.00    -0.285 N 
HETATM   15  N7  UNL     1      -6.892  39.873  15.172  1.00  0.00    -0.310 N 
ATOM     16  H6  UNL     1      -8.120  40.491  16.713  1.00  0.00     0.188 HD
HETATM   17  C13 UNL     1      -6.091  38.830  14.974  1.00  0.00     0.117 A 
ATOM     18  H7  UNL     1      -7.039  40.625  14.498  1.00  0.00     0.186 HD
HETATM   19  C14 UNL     1      -6.183  38.062  16.125  1.00  0.00     0.000 A 
HETATM   20  C15 UNL     1      -5.432  36.806  16.293  1.00  0.00     0.054 C 
ENDBRANCH  11  13
ENDBRANCH   9  11
ENDBRANCH   7   9
ENDBRANCH   4   7
BRANCH   1  21
HETATM   21  C7  UNL     1     -15.295  37.240  18.757  1.00  0.00     0.075 C 
HETATM   22  S1  UNL     1     -15.723  37.670  20.258  1.00  0.00    -0.066 SA
BRANCH  21  23
HETATM   23  C6  UNL     1     -16.320  36.924  17.753  1.00  0.00     0.069 C 
BRANCH  23  24
HETATM   24  C5  UNL     1     -16.591  35.481  17.520  1.00  0.00     0.008 C 
BRANCH  24  25
HETATM   25  C4  UNL     1     -16.308  35.065  16.112  1.00  0.00     0.020 C 
BRANCH  25  26
HETATM   26  C3  UNL     1     -14.851  34.593  16.016  1.00  0.00     0.120 C 
BRANCH  26  27
HETATM   27  N2  UNL     1     -14.868  33.229  16.515  1.00  0.00    -0.382 N 
HETATM   28  C2  UNL     1     -14.470  32.276  15.760  1.00  0.00     0.085 C 
HETATM   29  C1  UNL     1     -14.001  32.593  14.388  1.00  0.00     0.085 C 
HETATM   30  N1  UNL     1     -14.474  30.912  16.225  1.00  0.00    -0.088 NA
ATOM     31  H2  UNL     1     -15.195  33.032  17.461  1.00  0.00     0.160 HD
ENDBRANCH  26  27
ENDBRANCH  25  26
ENDBRANCH  24  25
ENDBRANCH  23  24
ENDBRANCH  21  23
ENDBRANCH   1  21
TORSDOF 10
ENDMDL
MODEL 5
REMARK VINA RESULT: -6.971414777      5.127      6.589
REMARK  10 active torsions:
REMARK  status: ('A' for Active; 'I' for Inactive)
REMARK    1  A    between atoms: N2_4  and  C3_6 
REMARK    2  A    between atoms: C3_6  and  C4_7 
REMARK    3  A    between atoms: C4_7  and  C5_8 
REMARK    4  A    between atoms: C5_8  and  C6_9 
REMARK    5  A    between atoms: C6_9  and  C7_10 
REMARK    6  A    between atoms: C7_10  and  N3_12 
REMARK    7  A    between atoms: C10_15  and  N4_16 
REMARK    8  A    between atoms: N4_16  and  C11_18 
REMARK    9  A    between atoms: C11_18  and  N5_20 
REMARK   10  A    between atoms: N5_20  and  C12_22 
ROOT
HETATM    1  N3  UNL     1     -13.362  42.111  16.170  1.00  0.00    -0.375 N 
HETATM    2  C8  UNL     1     -13.206  40.789  15.660  1.00  0.00     0.125 C 
HETATM    3  C9  UNL     1     -11.784  40.246  15.796  1.00  0.00     0.045 C 
HETATM    4  C10 UNL     1     -11.165  40.632  17.101  1.00  0.00     0.087 C 
HETATM    5  C16 UNL     1     -12.276  41.105  18.043  1.00  0.00     0.045 C 
HETATM    6  C17 UNL     1     -12.729  42.449  17.446  1.00  0.00     0.125 C 
ENDROOT
BRANCH   4   7
HETATM    7  N4  UNL     1     -10.355  39.636  17.720  1.00  0.00    -0.362 N 
ATOM      8  H4  UNL     1     -10.712  38.682  17.691  1.00  0.00     0.162 HD
BRANCH   7   9
HETATM    9  C11 UNL     1      -9.117  39.818  18.367  1.00  0.00     0.173 C 
HETATM   10  S2  UNL     1      -9.058  40.762  19.692  1.00  0.00    -0.041 SA
BRANCH   9  11
HETATM   11  N5  UNL     1      -7.953  39.205  17.919  1.00  0.00    -0.318 N 
ATOM     12  H5  UNL     1      -7.475  38.629  18.612  1.00  0.00     0.170 HD
BRANCH  11  13
HETATM   13  C12 UNL     1      -7.387  39.251  16.773  1.00  0.00     0.129 A 
HETATM   14  N6  UNL     1      -7.641  40.220  15.831  1.00  0.00    -0.285 N 
HETATM   15  N7  UNL     1      -6.918  40.005  14.768  1.00  0.00    -0.310 N 
ATOM     16  H6  UNL     1      -8.297  40.992  15.947  1.00  0.00     0.188 HD
HETATM   17  C13 UNL     1      -6.163  38.921  14.919  1.00  0.00     0.117 A 
ATOM     18  H7  UNL     1      -6.931  40.589  13.932  1.00  0.00     0.186 HD
HETATM   19  C14 UNL     1      -6.452  38.436  16.186  1.00  0.00     0.000 A 
HETATM   20  C15 UNL     1      -5.806  37.229  16.730  1.00  0.00     0.054 C 
ENDBRANCH  11  13
ENDBRANCH   9  11
ENDBRANCH   7   9
ENDBRANCH   4   7
BRANCH   1  21
HETATM   21  C7  UNL     1     -14.100  43.135  15.518  1.00  0.00     0.075 C 
HETATM   22  S1  UNL     1     -14.765  44.362  16.341  1.00  0.00    -0.066 SA
BRANCH  21  23
HETATM   23  C6  UNL     1     -14.215  43.073  14.055  1.00  0.00     0.069 C 
BRANCH  23  24
HETATM   24  C5  UNL     1     -14.592  44.337  13.369  1.00  0.00     0.008 C 
BRANCH  24  25
HETATM   25  C4  UNL     1     -15.651  44.133  12.334  1.00  0.00     0.020 C 
BRANCH  25  26
HETATM   26  C3  UNL     1     -17.013  44.015  13.032  1.00  0.00     0.120 C 
BRANCH  26  27
HETATM   27  N2  UNL     1     -17.583  42.777  12.530  1.00  0.00    -0.382 N 
HETATM   28  C2  UNL     1     -17.944  41.868  13.355  1.00  0.00     0.085 C 
HETATM   29  C1  UNL     1     -17.768  42.106  14.810  1.00  0.00     0.085 C 
HETATM   30  N1  UNL     1     -18.512  40.628  12.889  1.00  0.00    -0.088 NA
ATOM     31  H2  UNL     1     -17.694  42.633  11.526  1.00  0.00     0.160 HD
ENDBRANCH  26  27
ENDBRANCH  25  26
ENDBRANCH  24  25
ENDBRANCH  23  24
ENDBRANCH  21  23
ENDBRANCH   1  21
TORSDOF 10
ENDMDL
