MODEL 1
REMARK VINA RESULT: -7.080202078      0.000      0.000
REMARK  9 active torsions:
REMARK  status: ('A' for Active; 'I' for Inactive)
REMARK    1  A    between atoms: C6_6  and  C7_7 
REMARK    2  A    between atoms: C7_7  and  N1_8 
REMARK    3  A    between atoms: N1_8  and  N2_9 
REMARK    4  A    between atoms: N2_9  and  C8_11 
REMARK    5  A    between atoms: C8_11  and  C9_12 
REMARK    6  A    between atoms: C12_17  and  C13_18 
REMARK    7  A    between atoms: C13_18  and  C14_19 
REMARK    8  A    between atoms: C14_19  and  C15_20 
REMARK    9  A    between atoms: C15_20  and  C17_22 
REMARK       I    between atoms: N4_26  and  C21_27 
ROOT
HETATM    1  C1  UNL     1     -12.386  40.047  16.715  1.00  0.00     0.016 C 
HETATM    2  C2  UNL     1     -11.456  40.422  17.655  1.00  0.00    -0.065 C 
HETATM    3  C3  UNL     1     -11.651  41.591  18.479  1.00  0.00     0.040 C 
HETATM    4  C4  UNL     1     -10.718  41.698  19.650  1.00  0.00     0.039 C 
HETATM    5  C5  UNL     1      -9.366  41.103  19.403  1.00  0.00    -0.066 C 
HETATM    6  C6  UNL     1      -8.473  41.362  20.330  1.00  0.00     0.037 C 
HETATM    7  C10 UNL     1      -9.064  40.301  18.241  1.00  0.00     0.013 C 
HETATM    8  C11 UNL     1      -8.510  41.247  17.175  1.00  0.00     0.023 C 
HETATM    9  C12 UNL     1      -8.098  39.131  18.493  1.00  0.00     0.045 C 
HETATM   10  C19 UNL     1      -9.063  38.100  19.048  1.00  0.00     0.092 C 
HETATM   11  C20 UNL     1      -9.102  38.078  20.561  1.00  0.00     0.033 C 
HETATM   12  N4  UNL     1     -10.384  38.399  18.550  1.00  0.00    -0.341 N 
HETATM   13  C21 UNL     1     -11.574  37.701  18.846  1.00  0.00     0.185 C 
HETATM   14  N5  UNL     1     -12.529  38.279  19.547  1.00  0.00    -0.374 N 
ATOM     15  H51 UNL     1     -13.389  37.774  19.761  1.00  0.00     0.158 HD
ATOM     16  H52 UNL     1     -12.336  39.235  19.845  1.00  0.00     0.158 HD
HETATM   17  N6  UNL     1     -11.840  36.379  18.435  1.00  0.00    -0.064 NA
HETATM   18  C22 UNL     1     -10.262  39.546  17.709  1.00  0.00     0.129 C 
ENDROOT
BRANCH   6  19
HETATM   19  C7  UNL     1      -8.768  42.162  21.506  1.00  0.00     0.209 C 
BRANCH  19  20
HETATM   20  N1  UNL     1      -8.738  41.688  22.661  1.00  0.00    -0.343 NA
BRANCH  20  21
HETATM   21  N2  UNL     1      -8.975  41.170  23.769  1.00  0.00    -0.264 N 
ATOM     22  H2  UNL     1      -8.224  40.928  24.414  1.00  0.00     0.195 HD
BRANCH  21  23
HETATM   23  C8  UNL     1     -10.357  40.927  24.099  1.00  0.00     0.253 C 
BRANCH  23  24
HETATM   24  C9  UNL     1     -10.769  39.637  23.493  1.00  0.00     0.251 C 
HETATM   25  N3  UNL     1     -11.692  39.575  22.421  1.00  0.00    -0.061 NA
HETATM   26  O1  UNL     1     -10.262  38.576  23.973  1.00  0.00    -0.275 OA
ENDBRANCH  23  24
ENDBRANCH  21  23
ENDBRANCH  20  21
ENDBRANCH  19  20
ENDBRANCH   6  19
BRANCH   9  27
HETATM   27  C13 UNL     1      -7.483  38.763  17.195  1.00  0.00    -0.019 C 
BRANCH  27  28
HETATM   28  C14 UNL     1      -6.541  37.697  17.022  1.00  0.00    -0.001 C 
BRANCH  28  29
HETATM   29  C15 UNL     1      -5.559  37.383  16.237  1.00  0.00    -0.084 C 
HETATM   30  C16 UNL     1      -5.008  38.166  15.127  1.00  0.00     0.043 C 
BRANCH  29  31
HETATM   31  C17 UNL     1      -4.870  36.039  16.481  1.00  0.00     0.029 C 
HETATM   32  C18 UNL     1      -3.487  36.040  15.925  1.00  0.00     0.010 C 
ENDBRANCH  29  31
ENDBRANCH  28  29
ENDBRANCH  27  28
ENDBRANCH   9  27
TORSDOF 9
ENDMDL
MODEL 2
REMARK VINA RESULT: -6.966604821      2.845      5.064
REMARK  9 active torsions:
REMARK  status: ('A' for Active; 'I' for Inactive)
REMARK    1  A    between atoms: C6_6  and  C7_7 
REMARK    2  A    between atoms: C7_7  and  N1_8 
REMARK    3  A    between atoms: N1_8  and  N2_9 
REMARK    4  A    between atoms: N2_9  and  C8_11 
REMARK    5  A    between atoms: C8_11  and  C9_12 
REMARK    6  A    between atoms: C12_17  and  C13_18 
REMARK    7  A    between atoms: C13_18  and  C14_19 
REMARK    8  A    between atoms: C14_19  and  C15_20 
REMARK    9  A    between atoms: C15_20  and  C17_22 
REMARK       I    between atoms: N4_26  and  C21_27 
ROOT
HETATM    1  C1  UNL     1      -9.935  39.487  22.362  1.00  0.00     0.016 C 
HETATM    2  C2  UNL     1     -10.438  39.387  21.086  1.00  0.00    -0.065 C 
HETATM    3  C3  UNL     1     -11.859  39.309  20.845  1.00  0.00     0.040 C 
HETATM    4  C4  UNL     1     -12.266  39.512  19.414  1.00  0.00     0.039 C 
HETATM    5  C5  UNL     1     -11.253  39.030  18.422  1.00  0.00    -0.066 C 
HETATM    6  C6  UNL     1     -11.668  39.009  17.177  1.00  0.00     0.037 C 
HETATM    7  C10 UNL     1      -9.919  38.623  18.800  1.00  0.00     0.013 C 
HETATM    8  C11 UNL     1      -9.962  37.114  19.039  1.00  0.00     0.023 C 
HETATM    9  C12 UNL     1      -8.819  38.990  17.790  1.00  0.00     0.045 C 
HETATM   10  C19 UNL     1      -8.569  40.436  18.176  1.00  0.00     0.092 C 
HETATM   11  C20 UNL     1      -9.343  41.420  17.325  1.00  0.00     0.033 C 
HETATM   12  N4  UNL     1      -8.953  40.611  19.557  1.00  0.00    -0.341 N 
HETATM   13  C21 UNL     1      -8.906  41.810  20.299  1.00  0.00     0.185 C 
HETATM   14  N5  UNL     1     -10.019  42.388  20.703  1.00  0.00    -0.374 N 
ATOM     15  H51 UNL     1      -9.985  43.254  21.239  1.00  0.00     0.158 HD
ATOM     16  H52 UNL     1     -10.881  41.910  20.440  1.00  0.00     0.158 HD
HETATM   17  N6  UNL     1      -7.715  42.470  20.662  1.00  0.00    -0.064 NA
HETATM   18  C22 UNL     1      -9.402  39.340  20.027  1.00  0.00     0.129 C 
ENDROOT
BRANCH   6  19
HETATM   19  C7  UNL     1     -13.003  39.421  16.785  1.00  0.00     0.209 C 
BRANCH  19  20
HETATM   20  N1  UNL     1     -13.222  40.489  16.177  1.00  0.00    -0.343 NA
BRANCH  20  21
HETATM   21  N2  UNL     1     -13.458  41.661  15.823  1.00  0.00    -0.264 N 
ATOM     22  H2  UNL     1     -13.221  41.992  14.888  1.00  0.00     0.195 HD
BRANCH  21  23
HETATM   23  C8  UNL     1     -14.078  42.529  16.792  1.00  0.00     0.253 C 
BRANCH  23  24
HETATM   24  C9  UNL     1     -13.055  43.472  17.308  1.00  0.00     0.251 C 
HETATM   25  N3  UNL     1     -12.209  43.137  18.393  1.00  0.00    -0.061 NA
HETATM   26  O1  UNL     1     -12.963  44.603  16.739  1.00  0.00    -0.275 OA
ENDBRANCH  23  24
ENDBRANCH  21  23
ENDBRANCH  20  21
ENDBRANCH  19  20
ENDBRANCH   6  19
BRANCH   9  27
HETATM   27  C13 UNL     1      -7.669  38.084  18.024  1.00  0.00    -0.019 C 
BRANCH  27  28
HETATM   28  C14 UNL     1      -6.696  37.742  17.029  1.00  0.00    -0.001 C 
BRANCH  28  29
HETATM   29  C15 UNL     1      -6.148  38.271  15.980  1.00  0.00    -0.084 C 
HETATM   30  C16 UNL     1      -6.590  39.452  15.233  1.00  0.00     0.043 C 
BRANCH  29  31
HETATM   31  C17 UNL     1      -4.882  37.604  15.440  1.00  0.00     0.029 C 
HETATM   32  C18 UNL     1      -4.621  36.313  16.137  1.00  0.00     0.010 C 
ENDBRANCH  29  31
ENDBRANCH  28  29
ENDBRANCH  27  28
ENDBRANCH   9  27
TORSDOF 9
ENDMDL
MODEL 3
REMARK VINA RESULT: -6.956366658      1.543      1.771
REMARK  9 active torsions:
REMARK  status: ('A' for Active; 'I' for Inactive)
REMARK    1  A    between atoms: C6_6  and  C7_7 
REMARK    2  A    between atoms: C7_7  and  N1_8 
REMARK    3  A    between atoms: N1_8  and  N2_9 
REMARK    4  A    between atoms: N2_9  and  C8_11 
REMARK    5  A    between atoms: C8_11  and  C9_12 
REMARK    6  A    between atoms: C12_17  and  C13_18 
REMARK    7  A    between atoms: C13_18  and  C14_19 
REMARK    8  A    between atoms: C14_19  and  C15_20 
REMARK    9  A    between atoms: C15_20  and  C17_22 
REMARK       I    between atoms: N4_26  and  C21_27 
ROOT
HETATM    1  C1  UNL     1     -12.842  41.771  17.853  1.00  0.00     0.016 C 
HETATM    2  C2  UNL     1     -11.787  41.591  18.715  1.00  0.00    -0.065 C 
HETATM    3  C3  UNL     1     -11.775  42.203  20.023  1.00  0.00     0.040 C 
HETATM    4  C4  UNL     1     -10.722  41.676  20.955  1.00  0.00     0.039 C 
HETATM    5  C5  UNL     1      -9.470  41.229  20.262  1.00  0.00    -0.066 C 
HETATM    6  C6  UNL     1      -8.466  40.957  21.063  1.00  0.00     0.037 C 
HETATM    7  C10 UNL     1      -9.374  41.100  18.827  1.00  0.00     0.013 C 
HETATM    8  C11 UNL     1      -8.836  42.427  18.293  1.00  0.00     0.023 C 
HETATM    9  C12 UNL     1      -8.513  39.921  18.339  1.00  0.00     0.045 C 
HETATM   10  C19 UNL     1      -9.519  38.790  18.449  1.00  0.00     0.092 C 
HETATM   11  C20 UNL     1      -9.407  38.021  19.747  1.00  0.00     0.033 C 
HETATM   12  N4  UNL     1     -10.846  39.350  18.350  1.00  0.00    -0.341 N 
HETATM   13  C21 UNL     1     -12.066  38.645  18.432  1.00  0.00     0.185 C 
HETATM   14  N5  UNL     1     -12.879  38.836  19.451  1.00  0.00    -0.374 N 
ATOM     15  H51 UNL     1     -13.760  38.326  19.510  1.00  0.00     0.158 HD
ATOM     16  H52 UNL     1     -12.558  39.509  20.147  1.00  0.00     0.158 HD
HETATM   17  N6  UNL     1     -12.508  37.714  17.470  1.00  0.00    -0.064 NA
HETATM   18  C22 UNL     1     -10.691  40.757  18.168  1.00  0.00     0.129 C 
ENDROOT
BRANCH   6  19
HETATM   19  C7  UNL     1      -8.555  41.077  22.507  1.00  0.00     0.209 C 
BRANCH  19  20
HETATM   20  N1  UNL     1      -8.747  40.092  23.249  1.00  0.00    -0.343 NA
BRANCH  20  21
HETATM   21  N2  UNL     1      -8.870  38.965  23.767  1.00  0.00    -0.264 N 
ATOM     22  H2  UNL     1      -8.656  38.115  23.247  1.00  0.00     0.195 HD
BRANCH  21  23
HETATM   23  C8  UNL     1      -9.329  38.915  25.132  1.00  0.00     0.253 C 
BRANCH  23  24
HETATM   24  C9  UNL     1     -10.494  37.999  25.207  1.00  0.00     0.251 C 
HETATM   25  N3  UNL     1     -10.370  36.669  25.679  1.00  0.00    -0.061 NA
HETATM   26  O1  UNL     1     -11.618  38.449  24.828  1.00  0.00    -0.275 OA
ENDBRANCH  23  24
ENDBRANCH  21  23
ENDBRANCH  20  21
ENDBRANCH  19  20
ENDBRANCH   6  19
BRANCH   9  27
HETATM   27  C13 UNL     1      -8.075  40.223  16.955  1.00  0.00    -0.019 C 
BRANCH  27  28
HETATM   28  C14 UNL     1      -6.852  39.753  16.376  1.00  0.00    -0.001 C 
BRANCH  28  29
HETATM   29  C15 UNL     1      -6.366  38.658  15.882  1.00  0.00    -0.084 C 
HETATM   30  C16 UNL     1      -5.850  38.433  14.528  1.00  0.00     0.043 C 
BRANCH  29  31
HETATM   31  C17 UNL     1      -6.307  37.439  16.804  1.00  0.00     0.029 C 
HETATM   32  C18 UNL     1      -5.137  36.577  16.474  1.00  0.00     0.010 C 
ENDBRANCH  29  31
ENDBRANCH  28  29
ENDBRANCH  27  28
ENDBRANCH   9  27
TORSDOF 9
ENDMDL
MODEL 4
REMARK VINA RESULT: -6.938359035      3.297      5.644
REMARK  9 active torsions:
REMARK  status: ('A' for Active; 'I' for Inactive)
REMARK    1  A    between atoms: C6_6  and  C7_7 
REMARK    2  A    between atoms: C7_7  and  N1_8 
REMARK    3  A    between atoms: N1_8  and  N2_9 
REMARK    4  A    between atoms: N2_9  and  C8_11 
REMARK    5  A    between atoms: C8_11  and  C9_12 
REMARK    6  A    between atoms: C12_17  and  C13_18 
REMARK    7  A    between atoms: C13_18  and  C14_19 
REMARK    8  A    between atoms: C14_19  and  C15_20 
REMARK    9  A    between atoms: C15_20  and  C17_22 
REMARK       I    between atoms: N4_26  and  C21_27 
ROOT
HETATM    1  C1  UNL     1      -9.898  39.523  22.430  1.00  0.00     0.016 C 
HETATM    2  C2  UNL     1     -10.417  39.424  21.161  1.00  0.00    -0.065 C 
HETATM    3  C3  UNL     1     -11.841  39.345  20.938  1.00  0.00     0.040 C 
HETATM    4  C4  UNL     1     -12.267  39.548  19.512  1.00  0.00     0.039 C 
HETATM    5  C5  UNL     1     -11.266  39.067  18.507  1.00  0.00    -0.066 C 
HETATM    6  C6  UNL     1     -11.697  39.047  17.267  1.00  0.00     0.037 C 
HETATM    7  C10 UNL     1      -9.927  38.661  18.868  1.00  0.00     0.013 C 
HETATM    8  C11 UNL     1      -9.966  37.151  19.106  1.00  0.00     0.023 C 
HETATM    9  C12 UNL     1      -8.840  39.029  17.844  1.00  0.00     0.045 C 
HETATM   10  C19 UNL     1      -8.586  40.475  18.228  1.00  0.00     0.092 C 
HETATM   11  C20 UNL     1      -9.371  41.458  17.387  1.00  0.00     0.033 C 
HETATM   12  N4  UNL     1      -8.952  40.648  19.613  1.00  0.00    -0.341 N 
HETATM   13  C21 UNL     1      -8.897  41.847  20.356  1.00  0.00     0.185 C 
HETATM   14  N5  UNL     1     -10.005  42.424  20.774  1.00  0.00    -0.374 N 
ATOM     15  H51 UNL     1      -9.964  43.291  21.310  1.00  0.00     0.158 HD
ATOM     16  H52 UNL     1     -10.870  41.946  20.521  1.00  0.00     0.158 HD
HETATM   17  N6  UNL     1      -7.701  42.508  20.704  1.00  0.00    -0.064 NA
HETATM   18  C22 UNL     1      -9.395  39.378  20.089  1.00  0.00     0.129 C 
ENDROOT
BRANCH   6  19
HETATM   19  C7  UNL     1     -13.037  39.458  16.893  1.00  0.00     0.209 C 
BRANCH  19  20
HETATM   20  N1  UNL     1     -13.251  40.384  16.083  1.00  0.00    -0.343 NA
BRANCH  20  21
HETATM   21  N2  UNL     1     -13.192  41.300  15.239  1.00  0.00    -0.264 N 
ATOM     22  H2  UNL     1     -12.335  41.490  14.719  1.00  0.00     0.195 HD
BRANCH  21  23
HETATM   23  C8  UNL     1     -14.386  42.078  15.028  1.00  0.00     0.253 C 
BRANCH  23  24
HETATM   24  C9  UNL     1     -13.991  43.460  14.658  1.00  0.00     0.251 C 
HETATM   25  N3  UNL     1     -14.434  44.068  13.459  1.00  0.00    -0.061 NA
HETATM   26  O1  UNL     1     -13.234  44.087  15.461  1.00  0.00    -0.275 OA
ENDBRANCH  23  24
ENDBRANCH  21  23
ENDBRANCH  20  21
ENDBRANCH  19  20
ENDBRANCH   6  19
BRANCH   9  27
HETATM   27  C13 UNL     1      -7.686  38.123  18.063  1.00  0.00    -0.019 C 
BRANCH  27  28
HETATM   28  C14 UNL     1      -6.764  37.731  17.040  1.00  0.00    -0.001 C 
BRANCH  28  29
HETATM   29  C15 UNL     1      -6.174  38.250  16.008  1.00  0.00    -0.084 C 
HETATM   30  C16 UNL     1      -6.595  39.414  15.223  1.00  0.00     0.043 C 
BRANCH  29  31
HETATM   31  C17 UNL     1      -4.879  37.588  15.536  1.00  0.00     0.029 C 
HETATM   32  C18 UNL     1      -4.725  36.231  16.131  1.00  0.00     0.010 C 
ENDBRANCH  29  31
ENDBRANCH  28  29
ENDBRANCH  27  28
ENDBRANCH   9  27
TORSDOF 9
ENDMDL
MODEL 5
REMARK VINA RESULT: -6.916818778      2.172      4.930
REMARK  9 active torsions:
REMARK  status: ('A' for Active; 'I' for Inactive)
REMARK    1  A    between atoms: C6_6  and  C7_7 
REMARK    2  A    between atoms: C7_7  and  N1_8 
REMARK    3  A    between atoms: N1_8  and  N2_9 
REMARK    4  A    between atoms: N2_9  and  C8_11 
REMARK    5  A    between atoms: C8_11  and  C9_12 
REMARK    6  A    between atoms: C12_17  and  C13_18 
REMARK    7  A    between atoms: C13_18  and  C14_19 
REMARK    8  A    between atoms: C14_19  and  C15_20 
REMARK    9  A    between atoms: C15_20  and  C17_22 
REMARK       I    between atoms: N4_26  and  C21_27 
ROOT
HETATM    1  C1  UNL     1      -9.767  39.488  22.542  1.00  0.00     0.016 C 
HETATM    2  C2  UNL     1     -10.329  39.404  21.289  1.00  0.00    -0.065 C 
HETATM    3  C3  UNL     1     -11.759  39.314  21.114  1.00  0.00     0.040 C 
HETATM    4  C4  UNL     1     -12.235  39.535  19.707  1.00  0.00     0.039 C 
HETATM    5  C5  UNL     1     -11.264  39.080  18.661  1.00  0.00    -0.066 C 
HETATM    6  C6  UNL     1     -11.737  39.075  17.436  1.00  0.00     0.037 C 
HETATM    7  C10 UNL     1      -9.910  38.683  18.969  1.00  0.00     0.013 C 
HETATM    8  C11 UNL     1      -9.926  37.169  19.184  1.00  0.00     0.023 C 
HETATM    9  C12 UNL     1      -8.862  39.078  17.915  1.00  0.00     0.045 C 
HETATM   10  C19 UNL     1      -8.610  40.520  18.313  1.00  0.00     0.092 C 
HETATM   11  C20 UNL     1      -9.433  41.508  17.515  1.00  0.00     0.033 C 
HETATM   12  N4  UNL     1      -8.929  40.668  19.713  1.00  0.00    -0.341 N 
HETATM   13  C21 UNL     1      -8.860  41.855  20.472  1.00  0.00     0.185 C 
HETATM   14  N5  UNL     1      -9.959  42.414  20.937  1.00  0.00    -0.374 N 
ATOM     15  H51 UNL     1      -9.908  43.272  21.486  1.00  0.00     0.158 HD
ATOM     16  H52 UNL     1     -10.827  41.931  20.707  1.00  0.00     0.158 HD
HETATM   17  N6  UNL     1      -7.660  42.522  20.790  1.00  0.00    -0.064 NA
HETATM   18  C22 UNL     1      -9.343  39.385  20.182  1.00  0.00     0.129 C 
ENDROOT
BRANCH   6  19
HETATM   19  C7  UNL     1     -13.094  39.479  17.115  1.00  0.00     0.209 C 
BRANCH  19  20
HETATM   20  N1  UNL     1     -14.049  38.675  17.115  1.00  0.00    -0.343 NA
BRANCH  20  21
HETATM   21  N2  UNL     1     -14.945  37.851  17.382  1.00  0.00    -0.264 N 
ATOM     22  H2  UNL     1     -15.741  37.710  16.761  1.00  0.00     0.195 HD
BRANCH  21  23
HETATM   23  C8  UNL     1     -14.808  37.105  18.608  1.00  0.00     0.253 C 
BRANCH  23  24
HETATM   24  C9  UNL     1     -13.805  36.033  18.402  1.00  0.00     0.251 C 
HETATM   25  N3  UNL     1     -13.698  35.335  17.174  1.00  0.00    -0.061 NA
HETATM   26  O1  UNL     1     -13.036  35.755  19.373  1.00  0.00    -0.275 OA
ENDBRANCH  23  24
ENDBRANCH  21  23
ENDBRANCH  20  21
ENDBRANCH  19  20
ENDBRANCH   6  19
BRANCH   9  27
HETATM   27  C13 UNL     1      -7.693  38.180  18.079  1.00  0.00    -0.019 C 
BRANCH  27  28
HETATM   28  C14 UNL     1      -6.818  37.793  17.014  1.00  0.00    -0.001 C 
BRANCH  28  29
HETATM   29  C15 UNL     1      -6.228  38.331  15.992  1.00  0.00    -0.084 C 
HETATM   30  C16 UNL     1      -6.670  39.485  15.204  1.00  0.00     0.043 C 
BRANCH  29  31
HETATM   31  C17 UNL     1      -4.908  37.708  15.538  1.00  0.00     0.029 C 
HETATM   32  C18 UNL     1      -4.694  36.381  16.181  1.00  0.00     0.010 C 
ENDBRANCH  29  31
ENDBRANCH  28  29
ENDBRANCH  27  28
ENDBRANCH   9  27
TORSDOF 9
ENDMDL
