MODEL 1
REMARK VINA RESULT: -5.214190142      0.000      0.000
REMARK  6 active torsions:
REMARK  status: ('A' for Active; 'I' for Inactive)
REMARK    1  A    between atoms: N1_2  and  C2_4 
REMARK    2  A    between atoms: C3_7  and  S1_8 
REMARK    3  A    between atoms: C5_12  and  N4_13 
REMARK    4  A    between atoms: N4_13  and  C6_15 
REMARK    5  A    between atoms: C6_15  and  C8_17 
REMARK    6  A    between atoms: C8_17  and  N5_18 
ROOT
HETATM    1  C2  UNL     1      30.917  32.551  48.329  1.00  0.00     0.694 A 
HETATM    2  N2  UNL     1      30.931  33.888  48.446  1.00  0.00    -0.169 N 
ATOM      3  H2  UNL     1      30.943  34.312  49.373  1.00  0.00     0.186 HD
HETATM    4  C3  UNL     1      30.931  34.666  47.368  1.00  0.00     0.174 A 
HETATM    5  N3  UNL     1      30.915  34.075  46.159  1.00  0.00    -0.169 N 
ATOM      6  H3  UNL     1      30.914  34.667  45.328  1.00  0.00     0.186 HD
HETATM    7  C5  UNL     1      30.901  32.747  45.999  1.00  0.00     0.695 A 
HETATM    8  N6  UNL     1      30.902  31.993  47.113  1.00  0.00    -0.022 N 
ATOM      9  H6  UNL     1      30.891  30.977  47.030  1.00  0.00     0.203 HD
ENDROOT
BRANCH   7  10
HETATM   10  N4  UNL     1      30.885  32.146  44.879  1.00  0.00    -0.220 N 
ATOM     11  H4  UNL     1      31.283  32.642  44.082  1.00  0.00     0.178 HD
BRANCH  10  12
HETATM   12  C6  UNL     1      30.360  30.835  44.635  1.00  0.00     0.120 C 
HETATM   13  C7  UNL     1      29.143  30.943  43.777  1.00  0.00     0.034 C 
BRANCH  12  14
HETATM   14  C8  UNL     1      31.397  29.882  44.089  1.00  0.00     0.254 C 
BRANCH  14  15
HETATM   15  N5  UNL     1      31.578  28.826  45.083  1.00  0.00    -0.077 N 
ATOM     16  H53 UNL     1      30.882  28.854  45.828  1.00  0.00     0.274 HD
ATOM     17  H52 UNL     1      31.352  27.898  44.727  1.00  0.00     0.274 HD
ATOM     18  H51 UNL     1      32.535  28.898  45.428  1.00  0.00     0.274 HD
ENDBRANCH  14  15
ENDBRANCH  12  14
ENDBRANCH  10  12
ENDBRANCH   7  10
BRANCH   4  19
HETATM   19  S1  UNL     1      30.950  36.445  47.417  1.00  0.00    -0.097 SA
HETATM   20  C4  UNL     1      32.249  37.149  46.401  1.00  0.00     0.099 C 
ENDBRANCH   4  19
BRANCH   1  21
HETATM   21  N1  UNL     1      30.917  31.802  49.378  1.00  0.00    -0.230 N 
HETATM   22  C1  UNL     1      29.693  31.263  49.888  1.00  0.00     0.165 C 
ATOM     23  H1  UNL     1      31.797  31.591  49.848  1.00  0.00     0.177 HD
ENDBRANCH   1  21
TORSDOF 6
ENDMDL
MODEL 2
REMARK VINA RESULT: -5.165781775      3.162      5.640
REMARK  6 active torsions:
REMARK  status: ('A' for Active; 'I' for Inactive)
REMARK    1  A    between atoms: N1_2  and  C2_4 
REMARK    2  A    between atoms: C3_7  and  S1_8 
REMARK    3  A    between atoms: C5_12  and  N4_13 
REMARK    4  A    between atoms: N4_13  and  C6_15 
REMARK    5  A    between atoms: C6_15  and  C8_17 
REMARK    6  A    between atoms: C8_17  and  N5_18 
ROOT
HETATM    1  C2  UNL     1      30.807  33.859  48.131  1.00  0.00     0.694 A 
HETATM    2  N2  UNL     1      29.826  34.269  48.949  1.00  0.00    -0.169 N 
ATOM      3  H2  UNL     1      29.387  33.602  49.583  1.00  0.00     0.186 HD
HETATM    4  C3  UNL     1      29.418  35.535  48.943  1.00  0.00     0.174 A 
HETATM    5  N3  UNL     1      30.017  36.390  48.094  1.00  0.00    -0.169 N 
ATOM      6  H3  UNL     1      29.708  37.362  48.083  1.00  0.00     0.186 HD
HETATM    7  C5  UNL     1      30.999  36.022  47.263  1.00  0.00     0.695 A 
HETATM    8  N6  UNL     1      31.384  34.733  47.298  1.00  0.00    -0.022 N 
ATOM      9  H6  UNL     1      32.129  34.416  46.678  1.00  0.00     0.203 HD
ENDROOT
BRANCH   7  10
HETATM   10  N4  UNL     1      31.592  36.793  46.445  1.00  0.00    -0.220 N 
ATOM     11  H4  UNL     1      31.411  36.644  45.453  1.00  0.00     0.178 HD
BRANCH  10  12
HETATM   12  C6  UNL     1      32.491  37.855  46.791  1.00  0.00     0.120 C 
HETATM   13  C7  UNL     1      33.504  38.016  45.706  1.00  0.00     0.034 C 
BRANCH  12  14
HETATM   14  C8  UNL     1      31.775  39.138  47.140  1.00  0.00     0.254 C 
BRANCH  14  15
HETATM   15  N5  UNL     1      32.770  40.207  47.119  1.00  0.00    -0.077 N 
ATOM     16  H53 UNL     1      32.973  40.582  48.046  1.00  0.00     0.274 HD
ATOM     17  H52 UNL     1      33.710  39.875  46.903  1.00  0.00     0.274 HD
ATOM     18  H51 UNL     1      32.438  40.915  46.465  1.00  0.00     0.274 HD
ENDBRANCH  14  15
ENDBRANCH  12  14
ENDBRANCH  10  12
ENDBRANCH   7  10
BRANCH   4  19
HETATM   19  S1  UNL     1      28.127  36.176  49.987  1.00  0.00    -0.097 SA
HETATM   20  C4  UNL     1      27.214  37.511  49.211  1.00  0.00     0.099 C 
ENDBRANCH   4  19
BRANCH   1  21
HETATM   21  N1  UNL     1      31.198  32.631  48.142  1.00  0.00    -0.230 N 
HETATM   22  C1  UNL     1      30.811  31.754  49.205  1.00  0.00     0.165 C 
ATOM     23  H1  UNL     1      31.788  32.281  47.387  1.00  0.00     0.177 HD
ENDBRANCH   1  21
TORSDOF 6
ENDMDL
MODEL 3
REMARK VINA RESULT: -5.123878564      3.096      6.047
REMARK  6 active torsions:
REMARK  status: ('A' for Active; 'I' for Inactive)
REMARK    1  A    between atoms: N1_2  and  C2_4 
REMARK    2  A    between atoms: C3_7  and  S1_8 
REMARK    3  A    between atoms: C5_12  and  N4_13 
REMARK    4  A    between atoms: N4_13  and  C6_15 
REMARK    5  A    between atoms: C6_15  and  C8_17 
REMARK    6  A    between atoms: C8_17  and  N5_18 
ROOT
HETATM    1  C2  UNL     1      29.192  35.383  48.176  1.00  0.00     0.694 A 
HETATM    2  N2  UNL     1      29.517  34.264  47.512  1.00  0.00    -0.169 N 
ATOM      3  H2  UNL     1      28.868  33.477  47.503  1.00  0.00     0.186 HD
HETATM    4  C3  UNL     1      30.674  34.168  46.864  1.00  0.00     0.174 A 
HETATM    5  N3  UNL     1      31.509  35.223  46.895  1.00  0.00    -0.169 N 
ATOM      6  H3  UNL     1      32.399  35.155  46.402  1.00  0.00     0.186 HD
HETATM    7  C5  UNL     1      31.222  36.357  47.546  1.00  0.00     0.695 A 
HETATM    8  N6  UNL     1      30.042  36.416  48.189  1.00  0.00    -0.022 N 
ATOM      9  H6  UNL     1      29.791  37.265  48.695  1.00  0.00     0.203 HD
ENDROOT
BRANCH   7  10
HETATM   10  N4  UNL     1      31.978  37.377  47.603  1.00  0.00    -0.220 N 
ATOM     11  H4  UNL     1      32.511  37.511  48.462  1.00  0.00     0.178 HD
BRANCH  10  12
HETATM   12  C6  UNL     1      32.150  38.356  46.570  1.00  0.00     0.120 C 
HETATM   13  C7  UNL     1      32.124  39.721  47.175  1.00  0.00     0.034 C 
BRANCH  12  14
HETATM   14  C8  UNL     1      33.371  38.099  45.718  1.00  0.00     0.254 C 
BRANCH  14  15
HETATM   15  N5  UNL     1      33.701  39.355  45.047  1.00  0.00    -0.077 N 
ATOM     16  H53 UNL     1      33.106  40.131  45.338  1.00  0.00     0.274 HD
ATOM     17  H52 UNL     1      34.591  39.749  45.351  1.00  0.00     0.274 HD
ATOM     18  H51 UNL     1      33.665  39.178  44.043  1.00  0.00     0.274 HD
ENDBRANCH  14  15
ENDBRANCH  12  14
ENDBRANCH  10  12
ENDBRANCH   7  10
BRANCH   4  19
HETATM   19  S1  UNL     1      31.197  32.729  45.955  1.00  0.00    -0.097 SA
HETATM   20  C4  UNL     1      31.244  31.252  46.971  1.00  0.00     0.099 C 
ENDBRANCH   4  19
BRANCH   1  21
HETATM   21  N1  UNL     1      28.068  35.471  48.802  1.00  0.00    -0.230 N 
HETATM   22  C1  UNL     1      27.634  36.722  49.345  1.00  0.00     0.165 C 
ATOM     23  H1  UNL     1      27.484  34.642  48.911  1.00  0.00     0.177 HD
ENDBRANCH   1  21
TORSDOF 6
ENDMDL
MODEL 4
REMARK VINA RESULT: -5.121793761      2.340      3.475
REMARK  6 active torsions:
REMARK  status: ('A' for Active; 'I' for Inactive)
REMARK    1  A    between atoms: N1_2  and  C2_4 
REMARK    2  A    between atoms: C3_7  and  S1_8 
REMARK    3  A    between atoms: C5_12  and  N4_13 
REMARK    4  A    between atoms: N4_13  and  C6_15 
REMARK    5  A    between atoms: C6_15  and  C8_17 
REMARK    6  A    between atoms: C8_17  and  N5_18 
ROOT
HETATM    1  C2  UNL     1      29.453  36.287  48.417  1.00  0.00     0.694 A 
HETATM    2  N2  UNL     1      30.424  37.106  47.987  1.00  0.00    -0.169 N 
ATOM      3  H2  UNL     1      30.456  38.069  48.322  1.00  0.00     0.186 HD
HETATM    4  C3  UNL     1      31.347  36.679  47.131  1.00  0.00     0.174 A 
HETATM    5  N3  UNL     1      31.277  35.402  46.708  1.00  0.00    -0.169 N 
ATOM      6  H3  UNL     1      31.981  35.068  46.050  1.00  0.00     0.186 HD
HETATM    7  C5  UNL     1      30.326  34.554  47.113  1.00  0.00     0.695 A 
HETATM    8  N6  UNL     1      29.410  35.023  47.980  1.00  0.00    -0.022 N 
ATOM      9  H6  UNL     1      28.670  34.405  48.309  1.00  0.00     0.203 HD
ENDROOT
BRANCH   7  10
HETATM   10  N4  UNL     1      30.220  33.343  46.741  1.00  0.00    -0.220 N 
ATOM     11  H4  UNL     1      29.280  32.951  46.700  1.00  0.00     0.178 HD
BRANCH  10  12
HETATM   12  C6  UNL     1      31.303  32.478  46.374  1.00  0.00     0.120 C 
HETATM   13  C7  UNL     1      31.279  31.263  47.241  1.00  0.00     0.034 C 
BRANCH  12  14
HETATM   14  C8  UNL     1      31.324  32.162  44.897  1.00  0.00     0.254 C 
BRANCH  14  15
HETATM   15  N5  UNL     1      32.643  31.610  44.593  1.00  0.00    -0.077 N 
ATOM     16  H53 UNL     1      33.332  31.799  45.320  1.00  0.00     0.274 HD
ATOM     17  H52 UNL     1      32.672  30.592  44.645  1.00  0.00     0.274 HD
ATOM     18  H51 UNL     1      32.916  31.970  43.679  1.00  0.00     0.274 HD
ENDBRANCH  14  15
ENDBRANCH  12  14
ENDBRANCH  10  12
ENDBRANCH   7  10
BRANCH   4  19
HETATM   19  S1  UNL     1      32.674  37.685  46.502  1.00  0.00    -0.097 SA
HETATM   20  C4  UNL     1      32.491  39.415  46.936  1.00  0.00     0.099 C 
ENDBRANCH   4  19
BRANCH   1  21
HETATM   21  N1  UNL     1      28.561  36.708  49.248  1.00  0.00    -0.230 N 
HETATM   22  C1  UNL     1      27.587  37.675  48.842  1.00  0.00     0.165 C 
ATOM     23  H1  UNL     1      28.550  36.349  50.203  1.00  0.00     0.177 HD
ENDBRANCH   1  21
TORSDOF 6
ENDMDL
MODEL 5
REMARK VINA RESULT: -5.096805242      2.850      5.939
REMARK  6 active torsions:
REMARK  status: ('A' for Active; 'I' for Inactive)
REMARK    1  A    between atoms: N1_2  and  C2_4 
REMARK    2  A    between atoms: C3_7  and  S1_8 
REMARK    3  A    between atoms: C5_12  and  N4_13 
REMARK    4  A    between atoms: N4_13  and  C6_15 
REMARK    5  A    between atoms: C6_15  and  C8_17 
REMARK    6  A    between atoms: C8_17  and  N5_18 
ROOT
HETATM    1  C2  UNL     1      30.762  34.215  46.831  1.00  0.00     0.694 A 
HETATM    2  N2  UNL     1      29.572  34.228  47.450  1.00  0.00    -0.169 N 
ATOM      3  H2  UNL     1      28.967  33.408  47.394  1.00  0.00     0.186 HD
HETATM    4  C3  UNL     1      29.171  35.293  48.136  1.00  0.00     0.174 A 
HETATM    5  N3  UNL     1      29.993  36.358  48.191  1.00  0.00    -0.169 N 
ATOM      6  H3  UNL     1      29.691  37.180  48.714  1.00  0.00     0.186 HD
HETATM    7  C5  UNL     1      31.187  36.386  47.589  1.00  0.00     0.695 A 
HETATM    8  N6  UNL     1      31.558  35.289  46.904  1.00  0.00    -0.022 N 
ATOM      9  H6  UNL     1      32.461  35.275  46.432  1.00  0.00     0.203 HD
ENDROOT
BRANCH   7  10
HETATM   10  N4  UNL     1      31.994  37.367  47.613  1.00  0.00    -0.220 N 
ATOM     11  H4  UNL     1      32.585  37.462  48.439  1.00  0.00     0.178 HD
BRANCH  10  12
HETATM   12  C6  UNL     1      32.152  38.354  46.584  1.00  0.00     0.120 C 
HETATM   13  C7  UNL     1      32.079  39.716  47.191  1.00  0.00     0.034 C 
BRANCH  12  14
HETATM   14  C8  UNL     1      33.390  38.134  45.747  1.00  0.00     0.254 C 
BRANCH  14  15
HETATM   15  N5  UNL     1      33.653  39.380  45.030  1.00  0.00    -0.077 N 
ATOM     16  H53 UNL     1      34.063  39.231  44.108  1.00  0.00     0.274 HD
ATOM     17  H52 UNL     1      32.803  39.851  44.722  1.00  0.00     0.274 HD
ATOM     18  H51 UNL     1      34.232  39.960  45.637  1.00  0.00     0.274 HD
ENDBRANCH  14  15
ENDBRANCH  12  14
ENDBRANCH  10  12
ENDBRANCH   7  10
BRANCH   4  19
HETATM   19  S1  UNL     1      27.614  35.408  48.990  1.00  0.00    -0.097 SA
HETATM   20  C4  UNL     1      27.778  36.113  50.631  1.00  0.00     0.099 C 
ENDBRANCH   4  19
BRANCH   1  21
HETATM   21  N1  UNL     1      31.146  33.178  46.168  1.00  0.00    -0.230 N 
HETATM   22  C1  UNL     1      30.420  32.745  45.013  1.00  0.00     0.165 C 
ATOM     23  H1  UNL     1      31.972  32.662  46.469  1.00  0.00     0.177 HD
ENDBRANCH   1  21
TORSDOF 6
ENDMDL
