MODEL 1
REMARK VINA RESULT: -6.660658943      0.000      0.000
REMARK  5 active torsions:
REMARK  status: ('A' for Active; 'I' for Inactive)
REMARK    1  A    between atoms: O1_2  and  C2_3 
REMARK    2  A    between atoms: C3_6  and  N2_7 
REMARK       I    between atoms: N2_7  and  C4_8 
REMARK    3  A    between atoms: C4_8  and  C5_10 
REMARK    4  A    between atoms: C5_10  and  N3_12 
REMARK       I    between atoms: N3_12  and  C7_14 
REMARK    5  A    between atoms: C8_19  and  N7_20 
ROOT
HETATM    1  C2  UNL     1     -15.564  -8.159  -4.773  1.00  0.00     0.241 A 
HETATM    2  N1  UNL     1     -14.257  -8.182  -4.958  1.00  0.00    -0.281 N 
ATOM      3  H1  UNL     1     -13.705  -7.449  -4.510  1.00  0.00     0.173 HD
HETATM    4  C3  UNL     1     -13.579  -9.116  -5.709  1.00  0.00     0.280 A 
HETATM    5  N6  UNL     1     -14.321 -10.103  -6.317  1.00  0.00    -0.149 N 
ATOM      6  H6  UNL     1     -13.881 -10.825  -6.888  1.00  0.00     0.188 HD
HETATM    7  C8  UNL     1     -15.643 -10.076  -6.126  1.00  0.00     0.682 A 
HETATM    8  N8  UNL     1     -16.263  -9.158  -5.393  1.00  0.00    -0.155 N 
ATOM      9  H8  UNL     1     -17.277  -9.200  -5.290  1.00  0.00     0.188 HD
ENDROOT
BRANCH   4  10
HETATM   10  N2  UNL     1     -12.384  -9.117  -5.782  1.00  0.00    -0.332 NA
HETATM   11  C4  UNL     1     -11.070  -9.014  -5.903  1.00  0.00     0.317 C 
HETATM   12  O2  UNL     1     -10.556  -8.043  -6.552  1.00  0.00    -0.255 OA
BRANCH  11  13
HETATM   13  C5  UNL     1     -10.077 -10.016  -5.306  1.00  0.00     0.187 C 
HETATM   14  C6  UNL     1     -10.609 -11.341  -5.780  1.00  0.00     0.043 C 
BRANCH  13  15
HETATM   15  N3  UNL     1      -9.936  -9.804  -3.969  1.00  0.00    -0.353 N 
HETATM   16  C7  UNL     1      -8.798  -9.656  -3.212  1.00  0.00     0.197 C 
HETATM   17  N4  UNL     1      -7.949  -8.517  -3.550  1.00  0.00    -0.067 NA
HETATM   18  N5  UNL     1      -7.949 -10.762  -2.917  1.00  0.00    -0.067 NA
ATOM     19  H3  UNL     1     -10.810  -9.746  -3.448  1.00  0.00     0.162 HD
ENDBRANCH  13  15
ENDBRANCH  11  13
ENDBRANCH   4  10
BRANCH   1  20
HETATM   20  O1  UNL     1     -16.177  -7.210  -4.025  1.00  0.00    -0.327 OA
HETATM   21  C1  UNL     1     -17.153  -6.291  -4.327  1.00  0.00     0.213 C 
ENDBRANCH   1  20
BRANCH   7  22
HETATM   22  N7  UNL     1     -16.379 -10.988  -6.704  1.00  0.00    -0.234 N 
ATOM     23  H72 UNL     1     -15.927 -11.598  -7.385  1.00  0.00     0.174 HD
ATOM     24  H71 UNL     1     -17.362 -11.062  -6.443  1.00  0.00     0.174 HD
ENDBRANCH   7  22
TORSDOF 5
ENDMDL
MODEL 2
REMARK VINA RESULT: -6.168914956      1.564      2.098
REMARK  5 active torsions:
REMARK  status: ('A' for Active; 'I' for Inactive)
REMARK    1  A    between atoms: O1_2  and  C2_3 
REMARK    2  A    between atoms: C3_6  and  N2_7 
REMARK       I    between atoms: N2_7  and  C4_8 
REMARK    3  A    between atoms: C4_8  and  C5_10 
REMARK    4  A    between atoms: C5_10  and  N3_12 
REMARK       I    between atoms: N3_12  and  C7_14 
REMARK    5  A    between atoms: C8_19  and  N7_20 
ROOT
HETATM    1  C2  UNL     1     -15.469  -7.011  -5.545  1.00  0.00     0.241 A 
HETATM    2  N1  UNL     1     -14.150  -7.067  -5.594  1.00  0.00    -0.281 N 
ATOM      3  H1  UNL     1     -13.635  -6.219  -5.355  1.00  0.00     0.173 HD
HETATM    4  C3  UNL     1     -13.415  -8.178  -5.941  1.00  0.00     0.280 A 
HETATM    5  N6  UNL     1     -14.108  -9.322  -6.267  1.00  0.00    -0.149 N 
ATOM      6  H6  UNL     1     -13.624 -10.180  -6.535  1.00  0.00     0.188 HD
HETATM    7  C8  UNL     1     -15.441  -9.262  -6.216  1.00  0.00     0.682 A 
HETATM    8  N8  UNL     1     -16.117  -8.170  -5.874  1.00  0.00    -0.155 N 
ATOM      9  H8  UNL     1     -17.137  -8.197  -5.856  1.00  0.00     0.188 HD
ENDROOT
BRANCH   4  10
HETATM   10  N2  UNL     1     -12.219  -8.179  -5.901  1.00  0.00    -0.332 NA
HETATM   11  C4  UNL     1     -10.899  -8.078  -5.903  1.00  0.00     0.317 C 
HETATM   12  O2  UNL     1     -10.324  -7.146  -6.556  1.00  0.00    -0.255 OA
BRANCH  11  13
HETATM   13  C5  UNL     1      -9.969  -9.039  -5.156  1.00  0.00     0.187 C 
HETATM   14  C6  UNL     1      -8.694  -8.248  -5.034  1.00  0.00     0.043 C 
BRANCH  13  15
HETATM   15  N3  UNL     1      -9.935 -10.248  -5.780  1.00  0.00    -0.353 N 
HETATM   16  C7  UNL     1     -10.495 -11.449  -5.413  1.00  0.00     0.197 C 
HETATM   17  N4  UNL     1     -11.952 -11.469  -5.307  1.00  0.00    -0.067 NA
HETATM   18  N5  UNL     1      -9.968 -12.220  -4.338  1.00  0.00    -0.067 NA
ATOM     19  H3  UNL     1      -9.414 -10.265  -6.656  1.00  0.00     0.162 HD
ENDBRANCH  13  15
ENDBRANCH  11  13
ENDBRANCH   4  10
BRANCH   1  20
HETATM   20  O1  UNL     1     -16.138  -5.886  -5.199  1.00  0.00    -0.327 OA
HETATM   21  C1  UNL     1     -17.365  -5.692  -4.610  1.00  0.00     0.213 C 
ENDBRANCH   1  20
BRANCH   7  22
HETATM   22  N7  UNL     1     -16.130 -10.325  -6.536  1.00  0.00    -0.234 N 
ATOM     23  H72 UNL     1     -16.883 -10.214  -7.215  1.00  0.00     0.174 HD
ATOM     24  H71 UNL     1     -15.881 -11.217  -6.109  1.00  0.00     0.174 HD
ENDBRANCH   7  22
TORSDOF 5
ENDMDL
MODEL 3
REMARK VINA RESULT: -6.150751699      2.006      3.112
REMARK  5 active torsions:
REMARK  status: ('A' for Active; 'I' for Inactive)
REMARK    1  A    between atoms: O1_2  and  C2_3 
REMARK    2  A    between atoms: C3_6  and  N2_7 
REMARK       I    between atoms: N2_7  and  C4_8 
REMARK    3  A    between atoms: C4_8  and  C5_10 
REMARK    4  A    between atoms: C5_10  and  N3_12 
REMARK       I    between atoms: N3_12  and  C7_14 
REMARK    5  A    between atoms: C8_19  and  N7_20 
ROOT
HETATM    1  C2  UNL     1     -15.368  -9.784  -6.199  1.00  0.00     0.241 A 
HETATM    2  N1  UNL     1     -14.069  -9.599  -6.044  1.00  0.00    -0.281 N 
ATOM      3  H1  UNL     1     -13.484 -10.429  -5.949  1.00  0.00     0.173 HD
HETATM    4  C3  UNL     1     -13.443  -8.374  -5.999  1.00  0.00     0.280 A 
HETATM    5  N6  UNL     1     -14.231  -7.251  -6.124  1.00  0.00    -0.149 N 
ATOM      6  H6  UNL     1     -13.830  -6.314  -6.097  1.00  0.00     0.188 HD
HETATM    7  C8  UNL     1     -15.544  -7.444  -6.280  1.00  0.00     0.682 A 
HETATM    8  N8  UNL     1     -16.113  -8.644  -6.320  1.00  0.00    -0.155 N 
ATOM      9  H8  UNL     1     -17.123  -8.715  -6.443  1.00  0.00     0.188 HD
ENDROOT
BRANCH   4  10
HETATM   10  N2  UNL     1     -12.252  -8.278  -5.922  1.00  0.00    -0.332 NA
HETATM   11  C4  UNL     1     -10.946  -8.070  -5.878  1.00  0.00     0.317 C 
HETATM   12  O2  UNL     1     -10.435  -7.054  -6.456  1.00  0.00    -0.255 OA
BRANCH  11  13
HETATM   13  C5  UNL     1      -9.958  -8.996  -5.163  1.00  0.00     0.187 C 
HETATM   14  C6  UNL     1      -8.707  -8.162  -5.087  1.00  0.00     0.043 C 
BRANCH  13  15
HETATM   15  N3  UNL     1      -9.905 -10.205  -5.786  1.00  0.00    -0.353 N 
HETATM   16  C7  UNL     1     -10.414 -11.422  -5.401  1.00  0.00     0.197 C 
HETATM   17  N4  UNL     1     -11.866 -11.488  -5.250  1.00  0.00    -0.067 NA
HETATM   18  N5  UNL     1      -9.830 -12.174  -4.342  1.00  0.00    -0.067 NA
ATOM     19  H3  UNL     1      -9.410 -10.207  -6.678  1.00  0.00     0.162 HD
ENDBRANCH  13  15
ENDBRANCH  11  13
ENDBRANCH   4  10
BRANCH   1  20
HETATM   20  O1  UNL     1     -15.929 -11.017  -6.231  1.00  0.00    -0.327 OA
HETATM   21  C1  UNL     1     -15.382 -12.277  -6.169  1.00  0.00     0.213 C 
ENDBRANCH   1  20
BRANCH   7  22
HETATM   22  N7  UNL     1     -16.323  -6.400  -6.383  1.00  0.00    -0.234 N 
ATOM     23  H72 UNL     1     -16.080  -5.573  -5.837  1.00  0.00     0.174 HD
ATOM     24  H71 UNL     1     -17.127  -6.448  -7.010  1.00  0.00     0.174 HD
ENDBRANCH   7  22
TORSDOF 5
ENDMDL
MODEL 4
REMARK VINA RESULT: -6.094950608      1.489      2.466
REMARK  5 active torsions:
REMARK  status: ('A' for Active; 'I' for Inactive)
REMARK    1  A    between atoms: O1_2  and  C2_3 
REMARK    2  A    between atoms: C3_6  and  N2_7 
REMARK       I    between atoms: N2_7  and  C4_8 
REMARK    3  A    between atoms: C4_8  and  C5_10 
REMARK    4  A    between atoms: C5_10  and  N3_12 
REMARK       I    between atoms: N3_12  and  C7_14 
REMARK    5  A    between atoms: C8_19  and  N7_20 
ROOT
HETATM    1  C2  UNL     1     -15.346  -9.734  -6.153  1.00  0.00     0.241 A 
HETATM    2  N1  UNL     1     -14.030  -9.737  -6.043  1.00  0.00    -0.281 N 
ATOM      3  H1  UNL     1     -13.558 -10.641  -6.077  1.00  0.00     0.173 HD
HETATM    4  C3  UNL     1     -13.244  -8.618  -5.885  1.00  0.00     0.280 A 
HETATM    5  N6  UNL     1     -13.879  -7.397  -5.835  1.00  0.00    -0.149 N 
ATOM      6  H6  UNL     1     -13.356  -6.530  -5.718  1.00  0.00     0.188 HD
HETATM    7  C8  UNL     1     -15.210  -7.398  -5.947  1.00  0.00     0.682 A 
HETATM    8  N8  UNL     1     -15.936  -8.501  -6.100  1.00  0.00    -0.155 N 
ATOM      9  H8  UNL     1     -16.950  -8.426  -6.180  1.00  0.00     0.188 HD
ENDROOT
BRANCH   4  10
HETATM   10  N2  UNL     1     -12.049  -8.687  -5.858  1.00  0.00    -0.332 NA
HETATM   11  C4  UNL     1     -10.726  -8.656  -5.859  1.00  0.00     0.317 C 
HETATM   12  O2  UNL     1     -10.104  -7.668  -6.373  1.00  0.00    -0.255 OA
BRANCH  11  13
HETATM   13  C5  UNL     1      -9.846  -9.764  -5.272  1.00  0.00     0.187 C 
HETATM   14  C6  UNL     1     -10.465 -11.018  -5.831  1.00  0.00     0.043 C 
BRANCH  13  15
HETATM   15  N3  UNL     1      -9.747  -9.626  -3.922  1.00  0.00    -0.353 N 
HETATM   16  C7  UNL     1      -8.632  -9.558  -3.119  1.00  0.00     0.197 C 
HETATM   17  N4  UNL     1      -7.734  -8.433  -3.368  1.00  0.00    -0.067 NA
HETATM   18  N5  UNL     1      -7.832 -10.706  -2.854  1.00  0.00    -0.067 NA
ATOM     19  H3  UNL     1     -10.637  -9.564  -3.429  1.00  0.00     0.162 HD
ENDBRANCH  13  15
ENDBRANCH  11  13
ENDBRANCH   4  10
BRANCH   1  20
HETATM   20  O1  UNL     1     -16.068 -10.870  -6.303  1.00  0.00    -0.327 OA
HETATM   21  C1  UNL     1     -15.691 -12.181  -6.477  1.00  0.00     0.213 C 
ENDBRANCH   1  20
BRANCH   7  22
HETATM   22  N7  UNL     1     -15.846  -6.258  -5.886  1.00  0.00    -0.234 N 
ATOM     23  H72 UNL     1     -15.650  -5.650  -5.091  1.00  0.00     0.174 HD
ATOM     24  H71 UNL     1     -16.495  -6.018  -6.635  1.00  0.00     0.174 HD
ENDBRANCH   7  22
TORSDOF 5
ENDMDL
MODEL 5
REMARK VINA RESULT: -6.093445504      2.822      6.514
REMARK  5 active torsions:
REMARK  status: ('A' for Active; 'I' for Inactive)
REMARK    1  A    between atoms: O1_2  and  C2_3 
REMARK    2  A    between atoms: C3_6  and  N2_7 
REMARK       I    between atoms: N2_7  and  C4_8 
REMARK    3  A    between atoms: C4_8  and  C5_10 
REMARK    4  A    between atoms: C5_10  and  N3_12 
REMARK       I    between atoms: N3_12  and  C7_14 
REMARK    5  A    between atoms: C8_19  and  N7_20 
ROOT
HETATM    1  C2  UNL     1     -13.321  -9.411  -5.538  1.00  0.00     0.241 A 
HETATM    2  N1  UNL     1     -14.136  -8.374  -5.461  1.00  0.00    -0.281 N 
ATOM      3  H1  UNL     1     -13.784  -7.531  -5.006  1.00  0.00     0.173 HD
HETATM    4  C3  UNL     1     -15.424  -8.340  -5.946  1.00  0.00     0.280 A 
HETATM    5  N6  UNL     1     -15.903  -9.477  -6.558  1.00  0.00    -0.149 N 
ATOM      6  H6  UNL     1     -16.849  -9.519  -6.938  1.00  0.00     0.188 HD
HETATM    7  C8  UNL     1     -15.075 -10.523  -6.634  1.00  0.00     0.682 A 
HETATM    8  N8  UNL     1     -13.836 -10.517  -6.154  1.00  0.00    -0.155 N 
ATOM      9  H8  UNL     1     -13.258 -11.353  -6.249  1.00  0.00     0.188 HD
ENDROOT
BRANCH   4  10
HETATM   10  N2  UNL     1     -16.087  -7.345  -5.902  1.00  0.00    -0.332 NA
HETATM   11  C4  UNL     1     -16.853  -6.276  -5.751  1.00  0.00     0.317 C 
HETATM   12  O2  UNL     1     -17.687  -6.210  -4.789  1.00  0.00    -0.255 OA
BRANCH  11  13
HETATM   13  C5  UNL     1     -16.819  -5.063  -6.686  1.00  0.00     0.187 C 
HETATM   14  C6  UNL     1     -18.221  -4.525  -6.592  1.00  0.00     0.043 C 
BRANCH  13  15
HETATM   15  N3  UNL     1     -16.331  -5.418  -7.906  1.00  0.00    -0.353 N 
HETATM   16  C7  UNL     1     -15.185  -5.019  -8.552  1.00  0.00     0.197 C 
HETATM   17  N4  UNL     1     -13.928  -5.342  -7.881  1.00  0.00    -0.067 NA
HETATM   18  N5  UNL     1     -15.059  -3.715  -9.110  1.00  0.00    -0.067 NA
ATOM     19  H3  UNL     1     -16.906  -6.084  -8.421  1.00  0.00     0.162 HD
ENDBRANCH  13  15
ENDBRANCH  11  13
ENDBRANCH   4  10
BRANCH   1  20
HETATM   20  O1  UNL     1     -12.062  -9.386  -5.037  1.00  0.00    -0.327 OA
HETATM   21  C1  UNL     1     -10.960 -10.170  -5.284  1.00  0.00     0.213 C 
ENDBRANCH   1  20
BRANCH   7  22
HETATM   22  N7  UNL     1     -15.504 -11.623  -7.192  1.00  0.00    -0.234 N 
ATOM     23  H72 UNL     1     -16.492 -11.853  -7.086  1.00  0.00     0.174 HD
ATOM     24  H71 UNL     1     -14.843 -12.196  -7.718  1.00  0.00     0.174 HD
ENDBRANCH   7  22
TORSDOF 5
ENDMDL
