MODEL 1
REMARK VINA RESULT: -7.302751550      0.000      0.000
REMARK  9 active torsions:
REMARK  status: ('A' for Active; 'I' for Inactive)
REMARK    1  A    between atoms: C2_3  and  N2_4 
REMARK    2  A    between atoms: C6_10  and  C7_11 
REMARK    3  A    between atoms: C7_11  and  C8_12 
REMARK    4  A    between atoms: C8_12  and  C9_13 
REMARK    5  A    between atoms: C9_13  and  C10_14 
REMARK    6  A    between atoms: C10_14  and  C11_15 
REMARK    7  A    between atoms: C11_15  and  N3_16 
REMARK    8  A    between atoms: C11_15  and  O1_20 
REMARK    9  A    between atoms: C13_26  and  N5_27 
ROOT
HETATM    1  C1  UNL     1      50.760  25.613  13.878  1.00  0.00     0.177 C 
HETATM    2  N1  UNL     1      49.749  26.632  13.691  1.00  0.00    -0.172 N 
HETATM    3  C2  UNL     1      49.761  27.403  12.556  1.00  0.00     0.133 A 
HETATM    4  C6  UNL     1      48.825  28.362  12.341  1.00  0.00     0.055 A 
HETATM    5  C12 UNL     1      47.855  28.521  13.328  1.00  0.00     0.269 A 
HETATM    6  O2  UNL     1      46.951  29.376  13.224  1.00  0.00    -0.267 OA
HETATM    7  N4  UNL     1      47.848  27.755  14.448  1.00  0.00    -0.156 N 
ATOM      8  H4  UNL     1      47.128  27.890  15.158  1.00  0.00     0.187 HD
HETATM    9  C13 UNL     1      48.798  26.817  14.616  1.00  0.00     0.682 A 
ENDROOT
BRANCH   4  10
HETATM   10  C7  UNL     1      48.760  29.205  11.170  1.00  0.00     0.048 C 
BRANCH  10  11
HETATM   11  C8  UNL     1      47.983  28.680   9.991  1.00  0.00     0.005 C 
BRANCH  11  12
HETATM   12  C9  UNL     1      47.821  29.893   9.059  1.00  0.00     0.004 C 
BRANCH  12  13
HETATM   13  C10 UNL     1      46.397  30.374   8.998  1.00  0.00     0.061 C 
BRANCH  13  14
HETATM   14  C11 UNL     1      46.458  31.814   8.485  1.00  0.00     0.316 C 
BRANCH  14  15
HETATM   15  N3  UNL     1      46.041  31.941   7.121  1.00  0.00    -0.053 N 
ATOM     16  H33 UNL     1      46.650  31.405   6.503  1.00  0.00     0.277 HD
ATOM     17  H32 UNL     1      45.163  31.447   6.962  1.00  0.00     0.277 HD
ATOM     18  H31 UNL     1      45.973  32.912   6.813  1.00  0.00     0.277 HD
ENDBRANCH  14  15
BRANCH  14  19
HETATM   19  O1  UNL     1      45.713  32.678   9.279  1.00  0.00    -0.370 OA
ATOM     20  H1  UNL     1      46.133  32.839  10.115  1.00  0.00     0.212 HD
ENDBRANCH  14  19
ENDBRANCH  13  14
ENDBRANCH  12  13
ENDBRANCH  11  12
ENDBRANCH  10  11
ENDBRANCH   4  10
BRANCH   3  21
HETATM   21  N2  UNL     1      50.779  27.142  11.624  1.00  0.00    -0.355 N 
HETATM   22  C3  UNL     1      52.221  27.252  11.446  1.00  0.00     0.205 A 
HETATM   23  C4  UNL     1      52.136  26.810  10.001  1.00  0.00     0.275 A 
HETATM   24  F1  UNL     1      52.814  25.641   9.704  1.00  0.00    -0.203 F 
HETATM   25  F2  UNL     1      52.457  27.826   9.099  1.00  0.00    -0.203 F 
HETATM   26  C5  UNL     1      50.678  26.606  10.253  1.00  0.00     0.205 A 
ENDBRANCH   3  21
BRANCH   9  27
HETATM   27  N5  UNL     1      48.831  26.063  15.675  1.00  0.00    -0.234 N 
ATOM     28  H52 UNL     1      49.490  25.290  15.760  1.00  0.00     0.174 HD
ATOM     29  H51 UNL     1      48.169  26.269  16.423  1.00  0.00     0.174 HD
ENDBRANCH   9  27
TORSDOF 9
ENDMDL
MODEL 2
REMARK VINA RESULT: -7.265903860      1.304      1.510
REMARK  9 active torsions:
REMARK  status: ('A' for Active; 'I' for Inactive)
REMARK    1  A    between atoms: C2_3  and  N2_4 
REMARK    2  A    between atoms: C6_10  and  C7_11 
REMARK    3  A    between atoms: C7_11  and  C8_12 
REMARK    4  A    between atoms: C8_12  and  C9_13 
REMARK    5  A    between atoms: C9_13  and  C10_14 
REMARK    6  A    between atoms: C10_14  and  C11_15 
REMARK    7  A    between atoms: C11_15  and  N3_16 
REMARK    8  A    between atoms: C11_15  and  O1_20 
REMARK    9  A    between atoms: C13_26  and  N5_27 
ROOT
HETATM    1  C1  UNL     1      52.154  24.883  13.071  1.00  0.00     0.177 C 
HETATM    2  N1  UNL     1      50.991  25.715  13.301  1.00  0.00    -0.172 N 
HETATM    3  C2  UNL     1      50.690  26.723  12.421  1.00  0.00     0.133 A 
HETATM    4  C6  UNL     1      49.603  27.517  12.599  1.00  0.00     0.055 A 
HETATM    5  C12 UNL     1      48.815  27.256  13.717  1.00  0.00     0.269 A 
HETATM    6  O2  UNL     1      47.794  27.931  13.969  1.00  0.00    -0.267 OA
HETATM    7  N4  UNL     1      49.118  26.258  14.585  1.00  0.00    -0.156 N 
ATOM      8  H4  UNL     1      48.526  26.085  15.397  1.00  0.00     0.187 HD
HETATM    9  C13 UNL     1      50.206  25.497  14.365  1.00  0.00     0.682 A 
ENDROOT
BRANCH   4  10
HETATM   10  C7  UNL     1      49.209  28.587  11.714  1.00  0.00     0.048 C 
BRANCH  10  11
HETATM   11  C8  UNL     1      48.370  28.214  10.519  1.00  0.00     0.005 C 
BRANCH  11  12
HETATM   12  C9  UNL     1      47.297  29.313  10.438  1.00  0.00     0.004 C 
BRANCH  12  13
HETATM   13  C10 UNL     1      47.459  30.173   9.215  1.00  0.00     0.061 C 
BRANCH  13  14
HETATM   14  C11 UNL     1      46.079  30.766   8.927  1.00  0.00     0.316 C 
BRANCH  14  15
HETATM   15  N3  UNL     1      45.018  30.062   9.582  1.00  0.00    -0.053 N 
ATOM     16  H33 UNL     1      45.208  29.060   9.607  1.00  0.00     0.277 HD
ATOM     17  H32 UNL     1      45.016  30.257  10.583  1.00  0.00     0.277 HD
ATOM     18  H31 UNL     1      44.102  30.248   9.173  1.00  0.00     0.277 HD
ENDBRANCH  14  15
BRANCH  14  19
HETATM   19  O1  UNL     1      46.014  32.113   9.262  1.00  0.00    -0.370 OA
ATOM     20  H1  UNL     1      46.745  32.602   8.902  1.00  0.00     0.212 HD
ENDBRANCH  14  19
ENDBRANCH  13  14
ENDBRANCH  12  13
ENDBRANCH  11  12
ENDBRANCH  10  11
ENDBRANCH   4  10
BRANCH   3  21
HETATM   21  N2  UNL     1      51.549  26.882  11.322  1.00  0.00    -0.355 N 
HETATM   22  C3  UNL     1      52.756  27.586  10.908  1.00  0.00     0.205 A 
HETATM   23  C4  UNL     1      52.625  27.094   9.483  1.00  0.00     0.275 A 
HETATM   24  F1  UNL     1      53.674  26.312   9.032  1.00  0.00    -0.203 F 
HETATM   25  F2  UNL     1      52.328  28.115   8.577  1.00  0.00    -0.203 F 
HETATM   26  C5  UNL     1      51.456  26.302   9.969  1.00  0.00     0.205 A 
ENDBRANCH   3  21
BRANCH   9  27
HETATM   27  N5  UNL     1      50.536  24.532  15.171  1.00  0.00    -0.234 N 
ATOM     28  H52 UNL     1      51.373  23.969  15.017  1.00  0.00     0.174 HD
ATOM     29  H51 UNL     1      49.926  24.352  15.968  1.00  0.00     0.174 HD
ENDBRANCH   9  27
TORSDOF 9
ENDMDL
MODEL 3
REMARK VINA RESULT: -7.234122689      3.105      4.208
REMARK  9 active torsions:
REMARK  status: ('A' for Active; 'I' for Inactive)
REMARK    1  A    between atoms: C2_3  and  N2_4 
REMARK    2  A    between atoms: C6_10  and  C7_11 
REMARK    3  A    between atoms: C7_11  and  C8_12 
REMARK    4  A    between atoms: C8_12  and  C9_13 
REMARK    5  A    between atoms: C9_13  and  C10_14 
REMARK    6  A    between atoms: C10_14  and  C11_15 
REMARK    7  A    between atoms: C11_15  and  N3_16 
REMARK    8  A    between atoms: C11_15  and  O1_20 
REMARK    9  A    between atoms: C13_26  and  N5_27 
ROOT
HETATM    1  C1  UNL     1      50.478  26.388  14.014  1.00  0.00     0.177 C 
HETATM    2  N1  UNL     1      51.013  26.643  12.693  1.00  0.00    -0.172 N 
HETATM    3  C2  UNL     1      50.368  27.518  11.855  1.00  0.00     0.133 A 
HETATM    4  C6  UNL     1      50.844  27.790  10.613  1.00  0.00     0.055 A 
HETATM    5  C12 UNL     1      52.016  27.138  10.236  1.00  0.00     0.269 A 
HETATM    6  O2  UNL     1      52.533  27.321   9.114  1.00  0.00    -0.267 OA
HETATM    7  N4  UNL     1      52.649  26.274  11.069  1.00  0.00    -0.156 N 
ATOM      8  H4  UNL     1      53.505  25.807  10.771  1.00  0.00     0.187 HD
HETATM    9  C13 UNL     1      52.138  26.036  12.291  1.00  0.00     0.682 A 
ENDROOT
BRANCH   4  10
HETATM   10  C7  UNL     1      50.235  28.706   9.678  1.00  0.00     0.048 C 
BRANCH  10  11
HETATM   11  C8  UNL     1      49.077  28.186   8.865  1.00  0.00     0.005 C 
BRANCH  11  12
HETATM   12  C9  UNL     1      48.303  29.445   8.441  1.00  0.00     0.004 C 
BRANCH  12  13
HETATM   13  C10 UNL     1      47.561  30.068   9.591  1.00  0.00     0.061 C 
BRANCH  13  14
HETATM   14  C11 UNL     1      46.258  30.617   9.008  1.00  0.00     0.316 C 
BRANCH  14  15
HETATM   15  N3  UNL     1      45.090  30.006   9.568  1.00  0.00    -0.053 N 
ATOM     16  H33 UNL     1      45.340  29.190  10.128  1.00  0.00     0.277 HD
ATOM     17  H32 UNL     1      44.688  30.594  10.299  1.00  0.00     0.277 HD
ATOM     18  H31 UNL     1      44.389  29.766   8.867  1.00  0.00     0.277 HD
ENDBRANCH  14  15
BRANCH  14  19
HETATM   19  O1  UNL     1      46.169  31.997   9.148  1.00  0.00    -0.370 OA
ATOM     20  H1  UNL     1      45.442  32.250   9.705  1.00  0.00     0.212 HD
ENDBRANCH  14  19
ENDBRANCH  13  14
ENDBRANCH  12  13
ENDBRANCH  11  12
ENDBRANCH  10  11
ENDBRANCH   4  10
BRANCH   3  21
HETATM   21  N2  UNL     1      49.204  28.127  12.350  1.00  0.00    -0.355 N 
HETATM   22  C3  UNL     1      48.745  29.336  13.023  1.00  0.00     0.205 A 
HETATM   23  C4  UNL     1      47.340  28.792  13.168  1.00  0.00     0.275 A 
HETATM   24  F1  UNL     1      46.357  29.523  12.525  1.00  0.00    -0.203 F 
HETATM   25  F2  UNL     1      46.990  28.527  14.494  1.00  0.00    -0.203 F 
HETATM   26  C5  UNL     1      47.820  27.617  12.381  1.00  0.00     0.205 A 
ENDBRANCH   3  21
BRANCH   9  27
HETATM   27  N5  UNL     1      52.709  25.215  13.120  1.00  0.00    -0.234 N 
ATOM     28  H52 UNL     1      53.402  25.534  13.798  1.00  0.00     0.174 HD
ATOM     29  H51 UNL     1      52.444  24.231  13.070  1.00  0.00     0.174 HD
ENDBRANCH   9  27
TORSDOF 9
ENDMDL
MODEL 4
REMARK VINA RESULT: -6.952537466      4.287      7.021
REMARK  9 active torsions:
REMARK  status: ('A' for Active; 'I' for Inactive)
REMARK    1  A    between atoms: C2_3  and  N2_4 
REMARK    2  A    between atoms: C6_10  and  C7_11 
REMARK    3  A    between atoms: C7_11  and  C8_12 
REMARK    4  A    between atoms: C8_12  and  C9_13 
REMARK    5  A    between atoms: C9_13  and  C10_14 
REMARK    6  A    between atoms: C10_14  and  C11_15 
REMARK    7  A    between atoms: C11_15  and  N3_16 
REMARK    8  A    between atoms: C11_15  and  O1_20 
REMARK    9  A    between atoms: C13_26  and  N5_27 
ROOT
HETATM    1  C1  UNL     1      50.073  27.574   8.961  1.00  0.00     0.177 C 
HETATM    2  N1  UNL     1      50.747  26.980  10.097  1.00  0.00    -0.172 N 
HETATM    3  C2  UNL     1      50.295  27.236  11.367  1.00  0.00     0.133 A 
HETATM    4  C6  UNL     1      50.895  26.690  12.456  1.00  0.00     0.055 A 
HETATM    5  C12 UNL     1      51.988  25.861  12.217  1.00  0.00     0.269 A 
HETATM    6  O2  UNL     1      52.608  25.312  13.152  1.00  0.00    -0.267 OA
HETATM    7  N4  UNL     1      52.431  25.612  10.959  1.00  0.00    -0.156 N 
ATOM      8  H4  UNL     1      53.234  25.002  10.808  1.00  0.00     0.187 HD
HETATM    9  C13 UNL     1      51.803  26.177   9.911  1.00  0.00     0.682 A 
ENDROOT
BRANCH   4  10
HETATM   10  C7  UNL     1      50.473  26.897  13.821  1.00  0.00     0.048 C 
BRANCH  10  11
HETATM   11  C8  UNL     1      49.253  26.142  14.283  1.00  0.00     0.005 C 
BRANCH  11  12
HETATM   12  C9  UNL     1      49.779  25.164  15.347  1.00  0.00     0.004 C 
BRANCH  12  13
HETATM   13  C10 UNL     1      49.774  23.741  14.859  1.00  0.00     0.061 C 
BRANCH  13  14
HETATM   14  C11 UNL     1      51.172  23.189  15.148  1.00  0.00     0.316 C 
BRANCH  14  15
HETATM   15  N3  UNL     1      51.736  22.482  14.038  1.00  0.00    -0.053 N 
ATOM     16  H33 UNL     1      51.227  21.616  13.862  1.00  0.00     0.277 HD
ATOM     17  H32 UNL     1      51.546  22.969  13.163  1.00  0.00     0.277 HD
ATOM     18  H31 UNL     1      52.735  22.302  14.146  1.00  0.00     0.277 HD
ENDBRANCH  14  15
BRANCH  14  19
HETATM   19  O1  UNL     1      52.049  24.188  15.554  1.00  0.00    -0.370 OA
ATOM     20  H1  UNL     1      52.933  24.028  15.246  1.00  0.00     0.212 HD
ENDBRANCH  14  19
ENDBRANCH  13  14
ENDBRANCH  12  13
ENDBRANCH  11  12
ENDBRANCH  10  11
ENDBRANCH   4  10
BRANCH   3  21
HETATM   21  N2  UNL     1      49.175  28.075  11.484  1.00  0.00    -0.355 N 
HETATM   22  C3  UNL     1      48.810  29.473  11.673  1.00  0.00     0.205 A 
HETATM   23  C4  UNL     1      47.339  29.134  11.794  1.00  0.00     0.275 A 
HETATM   24  F1  UNL     1      46.525  29.697  10.828  1.00  0.00    -0.203 F 
HETATM   25  F2  UNL     1      46.831  29.353  13.077  1.00  0.00    -0.203 F 
HETATM   26  C5  UNL     1      47.741  27.728  11.490  1.00  0.00     0.205 A 
ENDBRANCH   3  21
BRANCH   9  27
HETATM   27  N5  UNL     1      52.194  25.968   8.689  1.00  0.00    -0.234 N 
ATOM     28  H52 UNL     1      51.571  25.568   7.988  1.00  0.00     0.174 HD
ATOM     29  H51 UNL     1      53.154  26.218   8.451  1.00  0.00     0.174 HD
ENDBRANCH   9  27
TORSDOF 9
ENDMDL
MODEL 5
REMARK VINA RESULT: -6.930932179      3.298      6.540
REMARK  9 active torsions:
REMARK  status: ('A' for Active; 'I' for Inactive)
REMARK    1  A    between atoms: C2_3  and  N2_4 
REMARK    2  A    between atoms: C6_10  and  C7_11 
REMARK    3  A    between atoms: C7_11  and  C8_12 
REMARK    4  A    between atoms: C8_12  and  C9_13 
REMARK    5  A    between atoms: C9_13  and  C10_14 
REMARK    6  A    between atoms: C10_14  and  C11_15 
REMARK    7  A    between atoms: C11_15  and  N3_16 
REMARK    8  A    between atoms: C11_15  and  O1_20 
REMARK    9  A    between atoms: C13_26  and  N5_27 
ROOT
HETATM    1  C1  UNL     1      49.141  29.132  11.586  1.00  0.00     0.177 C 
HETATM    2  N1  UNL     1      49.102  28.169  12.667  1.00  0.00    -0.172 N 
HETATM    3  C2  UNL     1      50.003  27.134  12.689  1.00  0.00     0.133 A 
HETATM    4  C6  UNL     1      50.004  26.217  13.690  1.00  0.00     0.055 A 
HETATM    5  C12 UNL     1      49.046  26.381  14.688  1.00  0.00     0.269 A 
HETATM    6  O2  UNL     1      48.965  25.589  15.651  1.00  0.00    -0.267 OA
HETATM    7  N4  UNL     1      48.157  27.405  14.660  1.00  0.00    -0.156 N 
ATOM      8  H4  UNL     1      47.464  27.504  15.402  1.00  0.00     0.187 HD
HETATM    9  C13 UNL     1      48.196  28.289  13.647  1.00  0.00     0.682 A 
ENDROOT
BRANCH   4  10
HETATM   10  C7  UNL     1      50.925  25.110  13.795  1.00  0.00     0.048 C 
BRANCH  10  11
HETATM   11  C8  UNL     1      52.216  25.360  14.531  1.00  0.00     0.005 C 
BRANCH  11  12
HETATM   12  C9  UNL     1      52.484  24.057  15.301  1.00  0.00     0.004 C 
BRANCH  12  13
HETATM   13  C10 UNL     1      51.598  22.933  14.839  1.00  0.00     0.061 C 
BRANCH  13  14
HETATM   14  C11 UNL     1      52.512  21.939  14.121  1.00  0.00     0.316 C 
BRANCH  14  15
HETATM   15  N3  UNL     1      52.553  20.656  14.754  1.00  0.00    -0.053 N 
ATOM     16  H33 UNL     1      51.648  20.190  14.691  1.00  0.00     0.277 HD
ATOM     17  H32 UNL     1      53.116  20.001  14.212  1.00  0.00     0.277 HD
ATOM     18  H31 UNL     1      52.874  20.697  15.722  1.00  0.00     0.277 HD
ENDBRANCH  14  15
BRANCH  14  19
HETATM   19  O1  UNL     1      52.161  21.784  12.785  1.00  0.00    -0.370 OA
ATOM     20  H1  UNL     1      52.499  22.490  12.247  1.00  0.00     0.212 HD
ENDBRANCH  14  19
ENDBRANCH  13  14
ENDBRANCH  12  13
ENDBRANCH  11  12
ENDBRANCH  10  11
ENDBRANCH   4  10
BRANCH   3  21
HETATM   21  N2  UNL     1      50.931  27.080  11.637  1.00  0.00    -0.355 N 
HETATM   22  C3  UNL     1      52.326  27.370  11.328  1.00  0.00     0.205 A 
HETATM   23  C4  UNL     1      52.127  27.058   9.860  1.00  0.00     0.275 A 
HETATM   24  F1  UNL     1      52.885  26.008   9.375  1.00  0.00    -0.203 F 
HETATM   25  F2  UNL     1      52.237  28.185   9.042  1.00  0.00    -0.203 F 
HETATM   26  C5  UNL     1      50.735  26.666  10.235  1.00  0.00     0.205 A 
ENDBRANCH   3  21
BRANCH   9  27
HETATM   27  N5  UNL     1      47.363  29.285  13.578  1.00  0.00    -0.234 N 
ATOM     28  H52 UNL     1      47.362  30.031  14.274  1.00  0.00     0.174 HD
ATOM     29  H51 UNL     1      46.701  29.295  12.802  1.00  0.00     0.174 HD
ENDBRANCH   9  27
TORSDOF 9
ENDMDL
