MODEL 1
REMARK VINA RESULT: -7.158230294      0.000      0.000
REMARK  7 active torsions:
REMARK  status: ('A' for Active; 'I' for Inactive)
REMARK    1  A    between atoms: N3_9  and  C5_10 
REMARK    2  A    between atoms: C5_10  and  C6_11 
REMARK    3  A    between atoms: C6_11  and  C7_12 
REMARK    4  A    between atoms: C7_12  and  N4_13 
REMARK    5  A    between atoms: N4_13  and  C8_16 
REMARK    6  A    between atoms: C8_16  and  C9_18 
REMARK    7  A    between atoms: C11_24  and  N7_25 
ROOT
HETATM    1  N4  UNL     1      51.699  24.641  15.210  1.00  0.00    -0.054 N 
ATOM      2  H41 UNL     1      52.170  25.530  15.043  1.00  0.00     0.279 HD
ATOM      3  H42 UNL     1      51.609  24.688  16.224  1.00  0.00     0.279 HD
ENDROOT
BRANCH   1   4
HETATM    4  C7  UNL     1      52.543  23.530  14.818  1.00  0.00     0.236 C 
BRANCH   4   5
HETATM    5  C6  UNL     1      51.835  22.556  13.929  1.00  0.00     0.049 C 
BRANCH   5   6
HETATM    6  C5  UNL     1      52.645  21.360  13.540  1.00  0.00     0.150 C 
BRANCH   6   7
HETATM    7  N3  UNL     1      52.678  21.300  12.093  1.00  0.00    -0.292 N 
HETATM    8  C2  UNL     1      51.987  20.461  11.298  1.00  0.00     0.066 A 
HETATM    9  C1  UNL     1      51.034  19.402  11.739  1.00  0.00     0.073 C 
HETATM   10  C3  UNL     1      52.352  20.792  10.015  1.00  0.00     0.182 A 
HETATM   11  F1  UNL     1      51.887  20.189   8.907  1.00  0.00    -0.200 F 
HETATM   12  C4  UNL     1      53.272  21.844  10.046  1.00  0.00     0.172 A 
HETATM   13  N1  UNL     1      53.883  22.469   8.932  1.00  0.00    -0.078 NA
HETATM   14  N2  UNL     1      53.432  22.113  11.364  1.00  0.00    -0.283 N 
ATOM     15  H2  UNL     1      54.044  22.836  11.742  1.00  0.00     0.188 HD
ENDBRANCH   6   7
ENDBRANCH   5   6
ENDBRANCH   4   5
ENDBRANCH   1   4
BRANCH   1  16
HETATM   16  C8  UNL     1      50.417  24.619  14.585  1.00  0.00     0.319 C 
HETATM   17 CL1  UNL     1      49.123  24.000  15.608  1.00  0.00    -0.089 Cl
BRANCH  16  18
HETATM   18  C9  UNL     1      50.058  25.963  14.066  1.00  0.00     0.050 A 
HETATM   19  C10 UNL     1      49.034  26.796  14.425  1.00  0.00     0.145 A 
HETATM   20  N5  UNL     1      49.094  27.910  13.692  1.00  0.00    -0.205 N 
HETATM   21 CL2  UNL     1      48.005  29.294  13.769  1.00  0.00     0.035 Cl
HETATM   22  N6  UNL     1      50.131  27.801  12.878  1.00  0.00    -0.269 N 
HETATM   23  C11 UNL     1      50.750  26.624  13.073  1.00  0.00     0.125 A 
ATOM     24  H6  UNL     1      50.420  28.508  12.200  1.00  0.00     0.190 HD
BRANCH  23  25
HETATM   25  N7  UNL     1      51.789  26.171  12.466  1.00  0.00    -0.384 N 
ATOM     26  H72 UNL     1      51.999  25.202  12.226  1.00  0.00     0.157 HD
ATOM     27  H71 UNL     1      52.569  26.738  12.132  1.00  0.00     0.157 HD
ENDBRANCH  23  25
ENDBRANCH  16  18
ENDBRANCH   1  16
TORSDOF 7
ENDMDL
MODEL 2
REMARK VINA RESULT: -7.141319914      3.259      6.607
REMARK  7 active torsions:
REMARK  status: ('A' for Active; 'I' for Inactive)
REMARK    1  A    between atoms: N3_9  and  C5_10 
REMARK    2  A    between atoms: C5_10  and  C6_11 
REMARK    3  A    between atoms: C6_11  and  C7_12 
REMARK    4  A    between atoms: C7_12  and  N4_13 
REMARK    5  A    between atoms: N4_13  and  C8_16 
REMARK    6  A    between atoms: C8_16  and  C9_18 
REMARK    7  A    between atoms: C11_24  and  N7_25 
ROOT
HETATM    1  N4  UNL     1      49.639  24.148  14.702  1.00  0.00    -0.054 N 
ATOM      2  H41 UNL     1      49.625  24.466  13.732  1.00  0.00     0.279 HD
ATOM      3  H42 UNL     1      49.001  23.357  14.628  1.00  0.00     0.279 HD
ENDROOT
BRANCH   1   4
HETATM    4  C7  UNL     1      49.103  25.163  15.585  1.00  0.00     0.236 C 
BRANCH   4   5
HETATM    5  C6  UNL     1      48.723  26.415  14.858  1.00  0.00     0.049 C 
BRANCH   5   6
HETATM    6  C5  UNL     1      49.706  26.861  13.823  1.00  0.00     0.150 C 
BRANCH   6   7
HETATM    7  N3  UNL     1      48.959  27.431  12.720  1.00  0.00    -0.292 N 
HETATM    8  C2  UNL     1      49.364  27.556  11.442  1.00  0.00     0.066 A 
HETATM    9  C1  UNL     1      50.680  27.136  10.882  1.00  0.00     0.073 C 
HETATM   10  C3  UNL     1      48.313  28.149  10.783  1.00  0.00     0.182 A 
HETATM   11  F1  UNL     1      48.304  28.455   9.475  1.00  0.00    -0.200 F 
HETATM   12  C4  UNL     1      47.267  28.378  11.681  1.00  0.00     0.172 A 
HETATM   13  N1  UNL     1      46.013  28.969  11.389  1.00  0.00    -0.078 NA
HETATM   14  N2  UNL     1      47.730  27.910  12.865  1.00  0.00    -0.283 N 
ATOM     15  H2  UNL     1      47.210  27.924  13.742  1.00  0.00     0.188 HD
ENDBRANCH   6   7
ENDBRANCH   5   6
ENDBRANCH   4   5
ENDBRANCH   1   4
BRANCH   1  16
HETATM   16  C8  UNL     1      50.946  23.714  15.074  1.00  0.00     0.319 C 
HETATM   17 CL1  UNL     1      50.974  22.534  16.381  1.00  0.00    -0.089 Cl
BRANCH  16  18
HETATM   18  C9  UNL     1      51.686  23.189  13.897  1.00  0.00     0.050 A 
HETATM   19  C10 UNL     1      51.740  21.919  13.393  1.00  0.00     0.145 A 
HETATM   20  N5  UNL     1      52.531  21.905  12.318  1.00  0.00    -0.205 N 
HETATM   21 CL2  UNL     1      52.930  20.516  11.308  1.00  0.00     0.035 Cl
HETATM   22  N6  UNL     1      52.978  23.137  12.131  1.00  0.00    -0.269 N 
HETATM   23  C11 UNL     1      52.485  23.955  13.076  1.00  0.00     0.125 A 
ATOM     24  H6  UNL     1      53.605  23.423  11.378  1.00  0.00     0.190 HD
BRANCH  23  25
HETATM   25  N7  UNL     1      52.700  25.216  13.214  1.00  0.00    -0.384 N 
ATOM     26  H72 UNL     1      52.305  25.979  12.665  1.00  0.00     0.157 HD
ATOM     27  H71 UNL     1      53.313  25.635  13.913  1.00  0.00     0.157 HD
ENDBRANCH  23  25
ENDBRANCH  16  18
ENDBRANCH   1  16
TORSDOF 7
ENDMDL
MODEL 3
REMARK VINA RESULT: -7.046168037      2.159      2.898
REMARK  7 active torsions:
REMARK  status: ('A' for Active; 'I' for Inactive)
REMARK    1  A    between atoms: N3_9  and  C5_10 
REMARK    2  A    between atoms: C5_10  and  C6_11 
REMARK    3  A    between atoms: C6_11  and  C7_12 
REMARK    4  A    between atoms: C7_12  and  N4_13 
REMARK    5  A    between atoms: N4_13  and  C8_16 
REMARK    6  A    between atoms: C8_16  and  C9_18 
REMARK    7  A    between atoms: C11_24  and  N7_25 
ROOT
HETATM    1  N4  UNL     1      52.231  23.510  13.421  1.00  0.00    -0.054 N 
ATOM      2  H41 UNL     1      51.635  23.877  12.678  1.00  0.00     0.279 HD
ATOM      3  H42 UNL     1      53.137  23.836  13.085  1.00  0.00     0.279 HD
ENDROOT
BRANCH   1   4
HETATM    4  C7  UNL     1      52.183  22.062  13.453  1.00  0.00     0.236 C 
BRANCH   4   5
HETATM    5  C6  UNL     1      52.341  21.452  12.095  1.00  0.00     0.049 C 
BRANCH   5   6
HETATM    6  C5  UNL     1      53.748  21.099  11.727  1.00  0.00     0.150 C 
BRANCH   6   7
HETATM    7  N3  UNL     1      54.042  21.729  10.456  1.00  0.00    -0.292 N 
HETATM    8  C2  UNL     1      55.053  21.432   9.616  1.00  0.00     0.066 A 
HETATM    9  C1  UNL     1      56.095  20.385   9.817  1.00  0.00     0.073 C 
HETATM   10  C3  UNL     1      54.910  22.294   8.556  1.00  0.00     0.182 A 
HETATM   11  F1  UNL     1      55.722  22.331   7.485  1.00  0.00    -0.200 F 
HETATM   12  C4  UNL     1      53.799  23.115   8.766  1.00  0.00     0.172 A 
HETATM   13  N1  UNL     1      53.320  24.131   7.902  1.00  0.00    -0.078 NA
HETATM   14  N2  UNL     1      53.304  22.715   9.962  1.00  0.00    -0.283 N 
ATOM     15  H2  UNL     1      52.483  23.113  10.417  1.00  0.00     0.188 HD
ENDBRANCH   6   7
ENDBRANCH   5   6
ENDBRANCH   4   5
ENDBRANCH   1   4
BRANCH   1  16
HETATM   16  C8  UNL     1      51.909  24.109  14.675  1.00  0.00     0.319 C 
HETATM   17 CL1  UNL     1      53.275  24.861  15.492  1.00  0.00    -0.089 Cl
BRANCH  16  18
HETATM   18  C9  UNL     1      50.802  25.090  14.524  1.00  0.00     0.050 A 
HETATM   19  C10 UNL     1      50.809  26.339  13.968  1.00  0.00     0.145 A 
HETATM   20  N5  UNL     1      49.585  26.865  14.048  1.00  0.00    -0.205 N 
HETATM   21 CL2  UNL     1      49.068  28.450  13.477  1.00  0.00     0.035 Cl
HETATM   22  N6  UNL     1      48.804  25.977  14.642  1.00  0.00    -0.269 N 
HETATM   23  C11 UNL     1      49.509  24.875  14.950  1.00  0.00     0.125 A 
ATOM     24  H6  UNL     1      47.811  26.109  14.837  1.00  0.00     0.190 HD
BRANCH  23  25
HETATM   25  N7  UNL     1      49.087  23.809  15.533  1.00  0.00    -0.384 N 
ATOM     26  H72 UNL     1      48.279  23.239  15.281  1.00  0.00     0.157 HD
ATOM     27  H71 UNL     1      49.516  23.375  16.351  1.00  0.00     0.157 HD
ENDBRANCH  23  25
ENDBRANCH  16  18
ENDBRANCH   1  16
TORSDOF 7
ENDMDL
MODEL 4
REMARK VINA RESULT: -7.031146819      2.304      3.024
REMARK  7 active torsions:
REMARK  status: ('A' for Active; 'I' for Inactive)
REMARK    1  A    between atoms: N3_9  and  C5_10 
REMARK    2  A    between atoms: C5_10  and  C6_11 
REMARK    3  A    between atoms: C6_11  and  C7_12 
REMARK    4  A    between atoms: C7_12  and  N4_13 
REMARK    5  A    between atoms: N4_13  and  C8_16 
REMARK    6  A    between atoms: C8_16  and  C9_18 
REMARK    7  A    between atoms: C11_24  and  N7_25 
ROOT
HETATM    1  N4  UNL     1      52.227  23.587  13.305  1.00  0.00    -0.054 N 
ATOM      2  H41 UNL     1      51.708  24.076  12.575  1.00  0.00     0.279 HD
ATOM      3  H42 UNL     1      53.176  23.841  13.034  1.00  0.00     0.279 HD
ENDROOT
BRANCH   1   4
HETATM    4  C7  UNL     1      52.028  22.156  13.207  1.00  0.00     0.236 C 
BRANCH   4   5
HETATM    5  C6  UNL     1      53.152  21.466  12.501  1.00  0.00     0.049 C 
BRANCH   5   6
HETATM    6  C5  UNL     1      52.784  20.855  11.185  1.00  0.00     0.150 C 
BRANCH   6   7
HETATM    7  N3  UNL     1      53.937  20.956  10.313  1.00  0.00    -0.292 N 
HETATM    8  C2  UNL     1      54.061  21.728   9.217  1.00  0.00     0.066 A 
HETATM    9  C1  UNL     1      53.031  22.649   8.657  1.00  0.00     0.073 C 
HETATM   10  C3  UNL     1      55.325  21.479   8.738  1.00  0.00     0.182 A 
HETATM   11  F1  UNL     1      55.856  22.051   7.644  1.00  0.00    -0.200 F 
HETATM   12  C4  UNL     1      55.963  20.547   9.562  1.00  0.00     0.172 A 
HETATM   13  N1  UNL     1      57.274  20.034   9.404  1.00  0.00    -0.078 NA
HETATM   14  N2  UNL     1      55.049  20.263  10.520  1.00  0.00    -0.283 N 
ATOM     15  H2  UNL     1      55.194  19.610  11.290  1.00  0.00     0.188 HD
ENDBRANCH   6   7
ENDBRANCH   5   6
ENDBRANCH   4   5
ENDBRANCH   1   4
BRANCH   1  16
HETATM   16  C8  UNL     1      51.909  24.112  14.593  1.00  0.00     0.319 C 
HETATM   17 CL1  UNL     1      53.278  24.816  15.448  1.00  0.00    -0.089 Cl
BRANCH  16  18
HETATM   18  C9  UNL     1      50.801  25.098  14.504  1.00  0.00     0.050 A 
HETATM   19  C10 UNL     1      50.802  26.375  14.014  1.00  0.00     0.145 A 
HETATM   20  N5  UNL     1      49.579  26.895  14.134  1.00  0.00    -0.205 N 
HETATM   21 CL2  UNL     1      49.056  28.508  13.651  1.00  0.00     0.035 Cl
HETATM   22  N6  UNL     1      48.804  25.976  14.687  1.00  0.00    -0.269 N 
HETATM   23  C11 UNL     1      49.512  24.860  14.931  1.00  0.00     0.125 A 
ATOM     24  H6  UNL     1      47.813  26.098  14.899  1.00  0.00     0.190 HD
BRANCH  23  25
HETATM   25  N7  UNL     1      49.095  23.765  15.461  1.00  0.00    -0.384 N 
ATOM     26  H72 UNL     1      49.257  23.431  16.411  1.00  0.00     0.157 HD
ATOM     27  H71 UNL     1      48.530  23.060  14.988  1.00  0.00     0.157 HD
ENDBRANCH  23  25
ENDBRANCH  16  18
ENDBRANCH   1  16
TORSDOF 7
ENDMDL
MODEL 5
REMARK VINA RESULT: -7.028159023      4.158      7.054
REMARK  7 active torsions:
REMARK  status: ('A' for Active; 'I' for Inactive)
REMARK    1  A    between atoms: N3_9  and  C5_10 
REMARK    2  A    between atoms: C5_10  and  C6_11 
REMARK    3  A    between atoms: C6_11  and  C7_12 
REMARK    4  A    between atoms: C7_12  and  N4_13 
REMARK    5  A    between atoms: N4_13  and  C8_16 
REMARK    6  A    between atoms: C8_16  and  C9_18 
REMARK    7  A    between atoms: C11_24  and  N7_25 
ROOT
HETATM    1  N4  UNL     1      48.580  26.441  14.392  1.00  0.00    -0.054 N 
ATOM      2  H41 UNL     1      48.486  26.398  13.377  1.00  0.00     0.279 HD
ATOM      3  H42 UNL     1      47.672  26.062  14.660  1.00  0.00     0.279 HD
ENDROOT
BRANCH   1   4
HETATM    4  C7  UNL     1      48.719  27.812  14.839  1.00  0.00     0.236 C 
BRANCH   4   5
HETATM    5  C6  UNL     1      48.033  28.785  13.932  1.00  0.00     0.049 C 
BRANCH   5   6
HETATM    6  C5  UNL     1      48.938  29.491  12.972  1.00  0.00     0.150 C 
BRANCH   6   7
HETATM    7  N3  UNL     1      48.326  29.429  11.661  1.00  0.00    -0.292 N 
HETATM    8  C2  UNL     1      48.947  29.241  10.481  1.00  0.00     0.066 A 
HETATM    9  C1  UNL     1      50.411  29.057  10.268  1.00  0.00     0.073 C 
HETATM   10  C3  UNL     1      47.949  29.258   9.537  1.00  0.00     0.182 A 
HETATM   11  F1  UNL     1      48.142  29.104   8.215  1.00  0.00    -0.200 F 
HETATM   12  C4  UNL     1      46.715  29.458  10.163  1.00  0.00     0.172 A 
HETATM   13  N1  UNL     1      45.448  29.535   9.534  1.00  0.00    -0.078 NA
HETATM   14  N2  UNL     1      47.017  29.556  11.480  1.00  0.00    -0.283 N 
ATOM     15  H2  UNL     1      46.337  29.706  12.225  1.00  0.00     0.188 HD
ENDBRANCH   6   7
ENDBRANCH   5   6
ENDBRANCH   4   5
ENDBRANCH   1   4
BRANCH   1  16
HETATM   16  C8  UNL     1      49.637  25.595  14.842  1.00  0.00     0.319 C 
HETATM   17 CL1  UNL     1      49.172  23.911  15.067  1.00  0.00    -0.089 Cl
BRANCH  16  18
HETATM   18  C9  UNL     1      50.809  25.683  13.933  1.00  0.00     0.050 A 
HETATM   19  C10 UNL     1      50.919  26.265  12.700  1.00  0.00     0.145 A 
HETATM   20  N5  UNL     1      52.163  26.104  12.245  1.00  0.00    -0.205 N 
HETATM   21 CL2  UNL     1      52.816  26.669  10.708  1.00  0.00     0.035 Cl
HETATM   22  N6  UNL     1      52.843  25.433  13.162  1.00  0.00    -0.269 N 
HETATM   23  C11 UNL     1      52.051  25.155  14.212  1.00  0.00     0.125 A 
ATOM     24  H6  UNL     1      53.824  25.167  13.083  1.00  0.00     0.190 HD
BRANCH  23  25
HETATM   25  N7  UNL     1      52.364  24.519  15.285  1.00  0.00    -0.384 N 
ATOM     26  H72 UNL     1      52.392  23.509  15.425  1.00  0.00     0.157 HD
ATOM     27  H71 UNL     1      52.632  24.952  16.169  1.00  0.00     0.157 HD
ENDBRANCH  23  25
ENDBRANCH  16  18
ENDBRANCH   1  16
TORSDOF 7
ENDMDL
