MODEL 1
REMARK VINA RESULT: -5.970896197      0.000      0.000
REMARK  10 active torsions:
REMARK  status: ('A' for Active; 'I' for Inactive)
REMARK    1  A    between atoms: C2_2  and  C3_3 
REMARK    2  A    between atoms: C3_3  and  C4_4 
REMARK    3  A    between atoms: C4_4  and  C5_5 
REMARK    4  A    between atoms: C5_5  and  S1_6 
REMARK    5  A    between atoms: S1_6  and  C6_7 
REMARK    6  A    between atoms: C8_11  and  C9_12 
REMARK    7  A    between atoms: C12_15  and  O3_16 
REMARK    8  A    between atoms: C13_18  and  N1_19 
REMARK    9  A    between atoms: C14_23  and  O4_24 
REMARK   10  A    between atoms: C15_26  and  O5_27 
ROOT
HETATM    1  C6  UNL     1      50.362  26.201  15.234  1.00  0.00     0.217 C 
HETATM    2  O1  UNL     1      51.294  25.458  14.581  1.00  0.00    -0.340 OA
HETATM    3  C7  UNL     1      50.789  24.211  14.244  1.00  0.00     0.303 C 
HETATM    4  O2  UNL     1      51.709  23.182  14.120  1.00  0.00    -0.350 OA
HETATM    5  C8  UNL     1      50.899  22.056  13.987  1.00  0.00     0.159 C 
HETATM    6  C12 UNL     1      49.694  22.249  14.843  1.00  0.00     0.191 C 
HETATM    7  C13 UNL     1      49.936  23.666  15.362  1.00  0.00     0.228 C 
HETATM    8  C14 UNL     1      48.665  24.444  15.423  1.00  0.00     0.194 C 
HETATM    9  C15 UNL     1      48.932  25.789  14.808  1.00  0.00     0.188 C 
ENDROOT
BRANCH   1  10
HETATM   10  S1  UNL     1      50.544  27.918  15.330  1.00  0.00    -0.135 SA
BRANCH  10  11
HETATM   11  C5  UNL     1      50.396  29.052  14.045  1.00  0.00     0.076 C 
BRANCH  11  12
HETATM   12  C4  UNL     1      49.020  29.354  13.564  1.00  0.00     0.010 C 
BRANCH  12  13
HETATM   13  C3  UNL     1      48.630  29.145  12.171  1.00  0.00     0.000 C 
BRANCH  13  14
HETATM   14  C2  UNL     1      47.727  27.924  12.001  1.00  0.00    -0.005 C 
HETATM   15  C1  UNL     1      46.283  28.233  12.077  1.00  0.00     0.005 C 
ENDBRANCH  13  14
ENDBRANCH  12  13
ENDBRANCH  11  12
ENDBRANCH  10  11
ENDBRANCH   1  10
BRANCH   9  16
HETATM   16  O5  UNL     1      48.097  26.710  15.426  1.00  0.00    -0.389 OA
ATOM     17  H5  UNL     1      48.267  26.606  16.356  1.00  0.00     0.210 HD
ENDBRANCH   9  16
BRANCH   8  18
HETATM   18  O4  UNL     1      48.238  24.508  16.732  1.00  0.00    -0.390 OA
ATOM     19  H4  UNL     1      48.145  25.419  16.984  1.00  0.00     0.210 HD
ENDBRANCH   8  18
BRANCH   7  20
HETATM   20  N1  UNL     1      50.639  23.508  16.598  1.00  0.00    -0.060 N 
ATOM     21  H13 UNL     1      51.041  24.396  16.899  1.00  0.00     0.275 HD
ATOM     22  H12 UNL     1      49.985  23.347  17.365  1.00  0.00     0.275 HD
ATOM     23  H11 UNL     1      51.353  22.780  16.574  1.00  0.00     0.275 HD
ENDBRANCH   7  20
BRANCH   5  24
HETATM   24  C9  UNL     1      51.676  20.831  14.337  1.00  0.00     0.009 C 
HETATM   25  C10 UNL     1      52.062  20.101  13.076  1.00  0.00     0.012 C 
HETATM   26  C11 UNL     1      50.930  19.924  15.299  1.00  0.00     0.012 C 
ENDBRANCH   5  24
BRANCH   6  27
HETATM   27  O3  UNL     1      48.484  22.198  14.211  1.00  0.00    -0.390 OA
ATOM     28  H3  UNL     1      47.742  21.923  14.737  1.00  0.00     0.210 HD
ENDBRANCH   6  27
TORSDOF 10
ENDMDL
MODEL 2
REMARK VINA RESULT: -5.932050816      2.167      6.422
REMARK  10 active torsions:
REMARK  status: ('A' for Active; 'I' for Inactive)
REMARK    1  A    between atoms: C2_2  and  C3_3 
REMARK    2  A    between atoms: C3_3  and  C4_4 
REMARK    3  A    between atoms: C4_4  and  C5_5 
REMARK    4  A    between atoms: C5_5  and  S1_6 
REMARK    5  A    between atoms: S1_6  and  C6_7 
REMARK    6  A    between atoms: C8_11  and  C9_12 
REMARK    7  A    between atoms: C12_15  and  O3_16 
REMARK    8  A    between atoms: C13_18  and  N1_19 
REMARK    9  A    between atoms: C14_23  and  O4_24 
REMARK   10  A    between atoms: C15_26  and  O5_27 
ROOT
HETATM    1  C6  UNL     1      51.084  23.150  14.458  1.00  0.00     0.217 C 
HETATM    2  O1  UNL     1      51.454  24.457  14.442  1.00  0.00    -0.340 OA
HETATM    3  C7  UNL     1      50.613  25.222  15.236  1.00  0.00     0.303 C 
HETATM    4  O2  UNL     1      50.480  26.559  14.891  1.00  0.00    -0.350 OA
HETATM    5  C8  UNL     1      49.445  26.990  15.719  1.00  0.00     0.159 C 
HETATM    6  C12 UNL     1      48.470  25.872  15.863  1.00  0.00     0.191 C 
HETATM    7  C13 UNL     1      49.183  24.768  15.081  1.00  0.00     0.228 C 
HETATM    8  C14 UNL     1      49.022  23.444  15.748  1.00  0.00     0.194 C 
HETATM    9  C15 UNL     1      50.377  22.794  15.788  1.00  0.00     0.188 C 
ENDROOT
BRANCH   1  10
HETATM   10  S1  UNL     1      52.211  21.931  13.973  1.00  0.00    -0.135 SA
BRANCH  10  11
HETATM   11  C5  UNL     1      52.505  21.364  12.375  1.00  0.00     0.076 C 
BRANCH  11  12
HETATM   12  C4  UNL     1      51.627  20.271  11.873  1.00  0.00     0.010 C 
BRANCH  12  13
HETATM   13  C3  UNL     1      50.476  19.797  12.639  1.00  0.00     0.000 C 
BRANCH  13  14
HETATM   14  C2  UNL     1      50.682  18.381  13.175  1.00  0.00    -0.005 C 
HETATM   15  C1  UNL     1      50.853  18.316  14.642  1.00  0.00     0.005 C 
ENDBRANCH  13  14
ENDBRANCH  12  13
ENDBRANCH  11  12
ENDBRANCH  10  11
ENDBRANCH   1  10
BRANCH   9  16
HETATM   16  O5  UNL     1      50.188  21.420  15.734  1.00  0.00    -0.389 OA
ATOM     17  H5  UNL     1      50.375  21.114  16.614  1.00  0.00     0.210 HD
ENDBRANCH   9  16
BRANCH   8  18
HETATM   18  O4  UNL     1      48.075  22.709  15.068  1.00  0.00    -0.390 OA
ATOM     19  H4  UNL     1      48.127  21.803  15.347  1.00  0.00     0.210 HD
ENDBRANCH   8  18
BRANCH   7  20
HETATM   20  N1  UNL     1      48.689  24.865  13.743  1.00  0.00    -0.060 N 
ATOM     21  H13 UNL     1      48.173  25.735  13.612  1.00  0.00     0.275 HD
ATOM     22  H12 UNL     1      49.456  25.020  13.087  1.00  0.00     0.275 HD
ATOM     23  H11 UNL     1      48.126  24.065  13.454  1.00  0.00     0.275 HD
ENDBRANCH   7  20
BRANCH   5  24
HETATM   24  C9  UNL     1      48.834  28.231  15.158  1.00  0.00     0.009 C 
HETATM   25  C10 UNL     1      47.428  27.938  14.700  1.00  0.00     0.012 C 
HETATM   26  C11 UNL     1      49.667  28.838  14.045  1.00  0.00     0.012 C 
ENDBRANCH   5  24
BRANCH   6  27
HETATM   27  O3  UNL     1      48.223  25.439  17.135  1.00  0.00    -0.390 OA
ATOM     28  H3  UNL     1      47.934  24.539  17.228  1.00  0.00     0.210 HD
ENDBRANCH   6  27
TORSDOF 10
ENDMDL
MODEL 3
REMARK VINA RESULT: -5.867449025      1.808      3.244
REMARK  10 active torsions:
REMARK  status: ('A' for Active; 'I' for Inactive)
REMARK    1  A    between atoms: C2_2  and  C3_3 
REMARK    2  A    between atoms: C3_3  and  C4_4 
REMARK    3  A    between atoms: C4_4  and  C5_5 
REMARK    4  A    between atoms: C5_5  and  S1_6 
REMARK    5  A    between atoms: S1_6  and  C6_7 
REMARK    6  A    between atoms: C8_11  and  C9_12 
REMARK    7  A    between atoms: C12_15  and  O3_16 
REMARK    8  A    between atoms: C13_18  and  N1_19 
REMARK    9  A    between atoms: C14_23  and  O4_24 
REMARK   10  A    between atoms: C15_26  and  O5_27 
ROOT
HETATM    1  C6  UNL     1      50.141  24.224  15.082  1.00  0.00     0.217 C 
HETATM    2  O1  UNL     1      49.623  23.138  15.711  1.00  0.00    -0.340 OA
HETATM    3  C7  UNL     1      50.493  22.060  15.640  1.00  0.00     0.303 C 
HETATM    4  O2  UNL     1      49.923  20.797  15.697  1.00  0.00    -0.350 OA
HETATM    5  C8  UNL     1      50.995  19.959  15.399  1.00  0.00     0.159 C 
HETATM    6  C12 UNL     1      51.855  20.646  14.394  1.00  0.00     0.191 C 
HETATM    7  C13 UNL     1      51.142  21.993  14.280  1.00  0.00     0.228 C 
HETATM    8  C14 UNL     1      52.119  23.114  14.157  1.00  0.00     0.194 C 
HETATM    9  C15 UNL     1      51.689  24.192  15.111  1.00  0.00     0.188 C 
ENDROOT
BRANCH   1  10
HETATM   10  S1  UNL     1      49.517  25.799  15.430  1.00  0.00    -0.135 SA
BRANCH  10  11
HETATM   11  C5  UNL     1      48.402  26.707  14.485  1.00  0.00     0.076 C 
BRANCH  11  12
HETATM   12  C4  UNL     1      48.540  28.189  14.513  1.00  0.00     0.010 C 
BRANCH  12  13
HETATM   13  C3  UNL     1      49.811  28.848  14.217  1.00  0.00     0.000 C 
BRANCH  13  14
HETATM   14  C2  UNL     1      49.694  29.834  13.055  1.00  0.00    -0.005 C 
HETATM   15  C1  UNL     1      48.756  29.403  11.998  1.00  0.00     0.005 C 
ENDBRANCH  13  14
ENDBRANCH  12  13
ENDBRANCH  11  12
ENDBRANCH  10  11
ENDBRANCH   1  10
BRANCH   9  16
HETATM   16  O5  UNL     1      52.080  25.411  14.575  1.00  0.00    -0.389 OA
ATOM     17  H5  UNL     1      52.525  25.190  13.764  1.00  0.00     0.210 HD
ENDBRANCH   9  16
BRANCH   8  18
HETATM   18  O4  UNL     1      52.169  23.524  12.842  1.00  0.00    -0.390 OA
ATOM     19  H4  UNL     1      52.867  24.162  12.742  1.00  0.00     0.210 HD
ENDBRANCH   8  18
BRANCH   7  20
HETATM   20  N1  UNL     1      50.211  21.846  13.205  1.00  0.00    -0.060 N 
ATOM     21  H13 UNL     1      49.901  20.878  13.128  1.00  0.00     0.275 HD
ATOM     22  H12 UNL     1      49.323  22.293  13.434  1.00  0.00     0.275 HD
ATOM     23  H11 UNL     1      50.563  22.183  12.309  1.00  0.00     0.275 HD
ENDBRANCH   7  20
BRANCH   5  24
HETATM   24  C9  UNL     1      50.488  18.637  14.930  1.00  0.00     0.009 C 
HETATM   25  C10 UNL     1      51.026  17.546  15.820  1.00  0.00     0.012 C 
HETATM   26  C11 UNL     1      50.811  18.375  13.470  1.00  0.00     0.012 C 
ENDBRANCH   5  24
BRANCH   6  27
HETATM   27  O3  UNL     1      53.159  20.852  14.747  1.00  0.00    -0.390 OA
ATOM     28  H3  UNL     1      53.803  20.772  14.053  1.00  0.00     0.210 HD
ENDBRANCH   6  27
TORSDOF 10
ENDMDL
MODEL 4
REMARK VINA RESULT: -5.844333249      1.858      3.290
REMARK  10 active torsions:
REMARK  status: ('A' for Active; 'I' for Inactive)
REMARK    1  A    between atoms: C2_2  and  C3_3 
REMARK    2  A    between atoms: C3_3  and  C4_4 
REMARK    3  A    between atoms: C4_4  and  C5_5 
REMARK    4  A    between atoms: C5_5  and  S1_6 
REMARK    5  A    between atoms: S1_6  and  C6_7 
REMARK    6  A    between atoms: C8_11  and  C9_12 
REMARK    7  A    between atoms: C12_15  and  O3_16 
REMARK    8  A    between atoms: C13_18  and  N1_19 
REMARK    9  A    between atoms: C14_23  and  O4_24 
REMARK   10  A    between atoms: C15_26  and  O5_27 
ROOT
HETATM    1  C6  UNL     1      50.115  24.218  15.008  1.00  0.00     0.217 C 
HETATM    2  O1  UNL     1      49.591  23.143  15.651  1.00  0.00    -0.340 OA
HETATM    3  C7  UNL     1      50.465  22.067  15.614  1.00  0.00     0.303 C 
HETATM    4  O2  UNL     1      49.897  20.804  15.688  1.00  0.00    -0.350 OA
HETATM    5  C8  UNL     1      50.976  19.963  15.423  1.00  0.00     0.159 C 
HETATM    6  C12 UNL     1      51.849  20.633  14.417  1.00  0.00     0.191 C 
HETATM    7  C13 UNL     1      51.134  21.975  14.266  1.00  0.00     0.228 C 
HETATM    8  C14 UNL     1      52.109  23.096  14.134  1.00  0.00     0.194 C 
HETATM    9  C15 UNL     1      51.662  24.192  15.060  1.00  0.00     0.188 C 
ENDROOT
BRANCH   1  10
HETATM   10  S1  UNL     1      49.481  25.798  15.314  1.00  0.00    -0.135 SA
BRANCH  10  11
HETATM   11  C5  UNL     1      47.947  26.189  15.990  1.00  0.00     0.076 C 
BRANCH  11  12
HETATM   12  C4  UNL     1      47.329  27.475  15.565  1.00  0.00     0.010 C 
BRANCH  12  13
HETATM   13  C3  UNL     1      47.958  28.335  14.564  1.00  0.00     0.000 C 
BRANCH  13  14
HETATM   14  C2  UNL     1      47.138  28.419  13.276  1.00  0.00    -0.005 C 
HETATM   15  C1  UNL     1      47.754  27.719  12.129  1.00  0.00     0.005 C 
ENDBRANCH  13  14
ENDBRANCH  12  13
ENDBRANCH  11  12
ENDBRANCH  10  11
ENDBRANCH   1  10
BRANCH   9  16
HETATM   16  O5  UNL     1      52.058  25.401  14.505  1.00  0.00    -0.389 OA
ATOM     17  H5  UNL     1      52.605  25.806  15.169  1.00  0.00     0.210 HD
ENDBRANCH   9  16
BRANCH   8  18
HETATM   18  O4  UNL     1      52.178  23.480  12.812  1.00  0.00    -0.390 OA
ATOM     19  H4  UNL     1      51.420  24.015  12.605  1.00  0.00     0.210 HD
ENDBRANCH   8  18
BRANCH   7  20
HETATM   20  N1  UNL     1      50.219  21.803  13.180  1.00  0.00    -0.060 N 
ATOM     21  H13 UNL     1      49.273  21.650  13.528  1.00  0.00     0.275 HD
ATOM     22  H12 UNL     1      50.080  22.684  12.685  1.00  0.00     0.275 HD
ATOM     23  H11 UNL     1      50.488  21.064  12.530  1.00  0.00     0.275 HD
ENDBRANCH   7  20
BRANCH   5  24
HETATM   24  C9  UNL     1      50.480  18.630  14.973  1.00  0.00     0.009 C 
HETATM   25  C10 UNL     1      51.041  17.555  15.869  1.00  0.00     0.012 C 
HETATM   26  C11 UNL     1      50.790  18.356  13.513  1.00  0.00     0.012 C 
ENDBRANCH   5  24
BRANCH   6  27
HETATM   27  O3  UNL     1      53.147  20.850  14.785  1.00  0.00    -0.390 OA
ATOM     28  H3  UNL     1      53.551  21.647  14.462  1.00  0.00     0.210 HD
ENDBRANCH   6  27
TORSDOF 10
ENDMDL
MODEL 5
REMARK VINA RESULT: -5.816079050      0.917      1.071
REMARK  10 active torsions:
REMARK  status: ('A' for Active; 'I' for Inactive)
REMARK    1  A    between atoms: C2_2  and  C3_3 
REMARK    2  A    between atoms: C3_3  and  C4_4 
REMARK    3  A    between atoms: C4_4  and  C5_5 
REMARK    4  A    between atoms: C5_5  and  S1_6 
REMARK    5  A    between atoms: S1_6  and  C6_7 
REMARK    6  A    between atoms: C8_11  and  C9_12 
REMARK    7  A    between atoms: C12_15  and  O3_16 
REMARK    8  A    between atoms: C13_18  and  N1_19 
REMARK    9  A    between atoms: C14_23  and  O4_24 
REMARK   10  A    between atoms: C15_26  and  O5_27 
ROOT
HETATM    1  C6  UNL     1      50.735  25.315  15.132  1.00  0.00     0.217 C 
HETATM    2  O1  UNL     1      51.550  24.469  14.450  1.00  0.00    -0.340 OA
HETATM    3  C7  UNL     1      50.872  23.319  14.078  1.00  0.00     0.303 C 
HETATM    4  O2  UNL     1      51.637  22.173  13.915  1.00  0.00    -0.350 OA
HETATM    5  C8  UNL     1      50.674  21.178  13.752  1.00  0.00     0.159 C 
HETATM    6  C12 UNL     1      49.511  21.514  14.622  1.00  0.00     0.191 C 
HETATM    7  C13 UNL     1      49.953  22.864  15.184  1.00  0.00     0.228 C 
HETATM    8  C14 UNL     1      48.806  23.813  15.278  1.00  0.00     0.194 C 
HETATM    9  C15 UNL     1      49.260  25.125  14.703  1.00  0.00     0.188 C 
ENDROOT
BRANCH   1  10
HETATM   10  S1  UNL     1      51.159  26.985  15.281  1.00  0.00    -0.135 SA
BRANCH  10  11
HETATM   11  C5  UNL     1      50.126  28.344  15.062  1.00  0.00     0.076 C 
BRANCH  11  12
HETATM   12  C4  UNL     1      50.402  29.221  13.892  1.00  0.00     0.010 C 
BRANCH  12  13
HETATM   13  C3  UNL     1      49.330  29.703  13.022  1.00  0.00     0.000 C 
BRANCH  13  14
HETATM   14  C2  UNL     1      48.055  28.871  13.161  1.00  0.00    -0.005 C 
HETATM   15  C1  UNL     1      47.866  27.883  12.078  1.00  0.00     0.005 C 
ENDBRANCH  13  14
ENDBRANCH  12  13
ENDBRANCH  11  12
ENDBRANCH  10  11
ENDBRANCH   1  10
BRANCH   9  16
HETATM   16  O5  UNL     1      48.566  26.135  15.356  1.00  0.00    -0.389 OA
ATOM     17  H5  UNL     1      49.159  26.878  15.354  1.00  0.00     0.210 HD
ENDBRANCH   9  16
BRANCH   8  18
HETATM   18  O4  UNL     1      48.395  23.895  16.591  1.00  0.00    -0.390 OA
ATOM     19  H4  UNL     1      48.477  23.039  16.995  1.00  0.00     0.210 HD
ENDBRANCH   8  18
BRANCH   7  20
HETATM   20  N1  UNL     1      50.629  22.569  16.409  1.00  0.00    -0.060 N 
ATOM     21  H13 UNL     1      50.820  23.425  16.930  1.00  0.00     0.275 HD
ATOM     22  H12 UNL     1      49.999  22.106  17.065  1.00  0.00     0.275 HD
ATOM     23  H11 UNL     1      51.483  22.024  16.286  1.00  0.00     0.275 HD
ENDBRANCH   7  20
BRANCH   5  24
HETATM   24  C9  UNL     1      51.269  19.845  14.059  1.00  0.00     0.009 C 
HETATM   25  C10 UNL     1      50.882  18.861  12.984  1.00  0.00     0.012 C 
HETATM   26  C11 UNL     1      50.888  19.340  15.438  1.00  0.00     0.012 C 
ENDBRANCH   5  24
BRANCH   6  27
HETATM   27  O3  UNL     1      48.304  21.656  13.997  1.00  0.00    -0.390 OA
ATOM     28  H3  UNL     1      47.795  22.424  14.228  1.00  0.00     0.210 HD
ENDBRANCH   6  27
TORSDOF 10
ENDMDL
