MODEL 1
REMARK VINA RESULT: -6.614419223      0.000      0.000
REMARK  10 active torsions:
REMARK  status: ('A' for Active; 'I' for Inactive)
REMARK    1  A    between atoms: C2_2  and  S1_3 
REMARK    2  A    between atoms: C2_2  and  C10_26 
REMARK    3  A    between atoms: S1_3  and  S2_4 
REMARK    4  A    between atoms: S2_4  and  C3_5 
REMARK    5  A    between atoms: C3_5  and  C4_6 
REMARK    6  A    between atoms: C4_6  and  O1_7 
REMARK    7  A    between atoms: C4_6  and  C5_9 
REMARK    8  A    between atoms: C8_16  and  N2_17 
REMARK    9  A    between atoms: C8_16  and  C9_21 
REMARK   10  A    between atoms: C9_21  and  N3_22 
ROOT
HETATM    1  C5  UNL     1      50.483  20.685  12.891  1.00  0.00     0.155 C 
HETATM    2  N1  UNL     1      50.341  19.240  13.155  1.00  0.00    -0.349 N 
ATOM      3  H1  UNL     1      49.664  18.575  12.781  1.00  0.00     0.163 HD
HETATM    4  C6  UNL     1      51.426  19.023  14.089  1.00  0.00     0.255 C 
HETATM    5  O2  UNL     1      51.356  18.244  15.054  1.00  0.00    -0.270 OA
HETATM    6  C7  UNL     1      52.550  19.860  13.681  1.00  0.00     0.301 C 
HETATM    7  F1  UNL     1      53.146  20.600  14.641  1.00  0.00    -0.236 F 
HETATM    8  C8  UNL     1      51.926  20.687  12.551  1.00  0.00     0.208 C 
ENDROOT
BRANCH   1   9
HETATM    9  C4  UNL     1      49.961  21.482  13.940  1.00  0.00     0.153 C 
BRANCH   9  10
HETATM   10  C3  UNL     1      50.722  22.651  14.432  1.00  0.00     0.120 C 
BRANCH  10  11
HETATM   11  S2  UNL     1      49.897  23.851  15.422  1.00  0.00    -0.095 SA
BRANCH  11  12
HETATM   12  S1  UNL     1      50.301  25.815  14.918  1.00  0.00    -0.090 SA
BRANCH  12  13
HETATM   13  C2  UNL     1      48.731  26.748  14.876  1.00  0.00     0.087 C 
HETATM   14  C1  UNL     1      48.518  27.302  16.265  1.00  0.00     0.025 C 
BRANCH  13  15
HETATM   15  C10 UNL     1      48.977  27.946  13.961  1.00  0.00     0.192 C 
HETATM   16 CL1  UNL     1      50.348  28.901  14.551  1.00  0.00    -0.107 Cl
HETATM   17 CL2  UNL     1      47.534  28.952  13.797  1.00  0.00    -0.107 Cl
ENDBRANCH  13  15
ENDBRANCH  12  13
ENDBRANCH  11  12
ENDBRANCH  10  11
ENDBRANCH   9  10
BRANCH   9  18
HETATM   18  O1  UNL     1      48.598  21.744  14.039  1.00  0.00    -0.393 OA
ATOM     19  H1  UNL     1      48.277  22.065  13.204  1.00  0.00     0.210 HD
ENDBRANCH   9  18
ENDBRANCH   1   9
BRANCH   8  20
HETATM   20  N2  UNL     1      52.025  19.775  11.382  1.00  0.00    -0.063 N 
ATOM     21  H23 UNL     1      51.495  18.910  11.480  1.00  0.00     0.275 HD
ATOM     22  H22 UNL     1      51.540  20.109  10.549  1.00  0.00     0.275 HD
ATOM     23  H21 UNL     1      53.028  19.639  11.256  1.00  0.00     0.275 HD
ENDBRANCH   8  20
BRANCH   8  24
HETATM   24  C9  UNL     1      52.664  21.879  12.206  1.00  0.00     0.274 C 
BRANCH  24  25
HETATM   25  N3  UNL     1      53.410  21.985  11.013  1.00  0.00    -0.077 N 
ATOM     26  H33 UNL     1      52.967  22.700  10.435  1.00  0.00     0.274 HD
ATOM     27  H32 UNL     1      54.304  22.419  11.246  1.00  0.00     0.274 HD
ATOM     28  H31 UNL     1      53.602  21.180  10.417  1.00  0.00     0.274 HD
ENDBRANCH  24  25
ENDBRANCH   8  24
TORSDOF 10
ENDMDL
MODEL 2
REMARK VINA RESULT: -6.570220099      1.178      1.222
REMARK  10 active torsions:
REMARK  status: ('A' for Active; 'I' for Inactive)
REMARK    1  A    between atoms: C2_2  and  S1_3 
REMARK    2  A    between atoms: C2_2  and  C10_26 
REMARK    3  A    between atoms: S1_3  and  S2_4 
REMARK    4  A    between atoms: S2_4  and  C3_5 
REMARK    5  A    between atoms: C3_5  and  C4_6 
REMARK    6  A    between atoms: C4_6  and  O1_7 
REMARK    7  A    between atoms: C4_6  and  C5_9 
REMARK    8  A    between atoms: C8_16  and  N2_17 
REMARK    9  A    between atoms: C8_16  and  C9_21 
REMARK   10  A    between atoms: C9_21  and  N3_22 
ROOT
HETATM    1  C5  UNL     1      50.495  21.063  13.260  1.00  0.00     0.155 C 
HETATM    2  N1  UNL     1      50.194  19.631  13.456  1.00  0.00    -0.349 N 
ATOM      3  H1  UNL     1      49.367  19.099  13.185  1.00  0.00     0.163 HD
HETATM    4  C6  UNL     1      51.393  19.189  14.136  1.00  0.00     0.255 C 
HETATM    5  O2  UNL     1      51.395  18.342  15.044  1.00  0.00    -0.270 OA
HETATM    6  C7  UNL     1      52.530  19.904  13.562  1.00  0.00     0.301 C 
HETATM    7  F1  UNL     1      53.401  20.468  14.426  1.00  0.00    -0.236 F 
HETATM    8  C8  UNL     1      51.829  20.905  12.636  1.00  0.00     0.208 C 
ENDROOT
BRANCH   1   9
HETATM    9  C4  UNL     1      50.306  21.824  14.441  1.00  0.00     0.153 C 
BRANCH   9  10
HETATM   10  C3  UNL     1      49.048  22.571  14.649  1.00  0.00     0.120 C 
BRANCH  10  11
HETATM   11  S2  UNL     1      49.082  24.051  15.603  1.00  0.00    -0.095 SA
BRANCH  11  12
HETATM   12  S1  UNL     1      50.329  25.527  14.867  1.00  0.00    -0.090 SA
BRANCH  12  13
HETATM   13  C2  UNL     1      49.800  27.138  15.549  1.00  0.00     0.087 C 
HETATM   14  C1  UNL     1      50.931  28.108  15.297  1.00  0.00     0.025 C 
BRANCH  13  15
HETATM   15  C10 UNL     1      48.630  27.598  14.683  1.00  0.00     0.192 C 
HETATM   16 CL1  UNL     1      49.047  29.091  13.825  1.00  0.00    -0.107 Cl
HETATM   17 CL2  UNL     1      47.155  27.810  15.634  1.00  0.00    -0.107 Cl
ENDBRANCH  13  15
ENDBRANCH  12  13
ENDBRANCH  11  12
ENDBRANCH  10  11
ENDBRANCH   9  10
BRANCH   9  18
HETATM   18  O1  UNL     1      50.789  21.381  15.670  1.00  0.00    -0.393 OA
ATOM     19  H1  UNL     1      51.651  21.001  15.552  1.00  0.00     0.210 HD
ENDBRANCH   9  18
ENDBRANCH   1   9
BRANCH   8  20
HETATM   20  N2  UNL     1      51.568  20.099  11.416  1.00  0.00    -0.063 N 
ATOM     21  H23 UNL     1      51.708  19.096  11.540  1.00  0.00     0.275 HD
ATOM     22  H22 UNL     1      50.583  20.041  11.155  1.00  0.00     0.275 HD
ATOM     23  H21 UNL     1      52.166  20.520  10.705  1.00  0.00     0.275 HD
ENDBRANCH   8  20
BRANCH   8  24
HETATM   24  C9  UNL     1      52.656  22.016  12.225  1.00  0.00     0.274 C 
BRANCH  24  25
HETATM   25  N3  UNL     1      53.411  21.993  11.033  1.00  0.00    -0.077 N 
ATOM     26  H33 UNL     1      54.303  22.448  11.225  1.00  0.00     0.274 HD
ATOM     27  H32 UNL     1      53.692  21.027  10.865  1.00  0.00     0.274 HD
ATOM     28  H31 UNL     1      53.053  22.369  10.155  1.00  0.00     0.274 HD
ENDBRANCH  24  25
ENDBRANCH   8  24
TORSDOF 10
ENDMDL
MODEL 3
REMARK VINA RESULT: -6.522741103      1.158      1.430
REMARK  10 active torsions:
REMARK  status: ('A' for Active; 'I' for Inactive)
REMARK    1  A    between atoms: C2_2  and  S1_3 
REMARK    2  A    between atoms: C2_2  and  C10_26 
REMARK    3  A    between atoms: S1_3  and  S2_4 
REMARK    4  A    between atoms: S2_4  and  C3_5 
REMARK    5  A    between atoms: C3_5  and  C4_6 
REMARK    6  A    between atoms: C4_6  and  O1_7 
REMARK    7  A    between atoms: C4_6  and  C5_9 
REMARK    8  A    between atoms: C8_16  and  N2_17 
REMARK    9  A    between atoms: C8_16  and  C9_21 
REMARK   10  A    between atoms: C9_21  and  N3_22 
ROOT
HETATM    1  C5  UNL     1      50.478  20.755  12.935  1.00  0.00     0.155 C 
HETATM    2  N1  UNL     1      50.303  19.314  13.202  1.00  0.00    -0.349 N 
ATOM      3  H1  UNL     1      49.590  18.672  12.857  1.00  0.00     0.163 HD
HETATM    4  C6  UNL     1      51.421  19.061  14.087  1.00  0.00     0.255 C 
HETATM    5  O2  UNL     1      51.369  18.281  15.052  1.00  0.00    -0.270 OA
HETATM    6  C7  UNL     1      52.552  19.865  13.631  1.00  0.00     0.301 C 
HETATM    7  F1  UNL     1      53.212  20.582  14.565  1.00  0.00    -0.236 F 
HETATM    8  C8  UNL     1      51.903  20.714  12.532  1.00  0.00     0.208 C 
ENDROOT
BRANCH   1   9
HETATM    9  C4  UNL     1      50.028  21.565  14.008  1.00  0.00     0.153 C 
BRANCH   9  10
HETATM   10  C3  UNL     1      50.851  22.700  14.476  1.00  0.00     0.120 C 
BRANCH  10  11
HETATM   11  S2  UNL     1      50.053  24.086  15.213  1.00  0.00    -0.095 SA
BRANCH  11  12
HETATM   12  S1  UNL     1      50.984  25.901  14.876  1.00  0.00    -0.090 SA
BRANCH  12  13
HETATM   13  C2  UNL     1      49.998  27.223  15.664  1.00  0.00     0.087 C 
HETATM   14  C1  UNL     1      50.142  28.449  14.793  1.00  0.00     0.025 C 
BRANCH  13  15
HETATM   15  C10 UNL     1      48.540  26.781  15.558  1.00  0.00     0.192 C 
HETATM   16 CL1  UNL     1      47.534  28.113  14.961  1.00  0.00    -0.107 Cl
HETATM   17 CL2  UNL     1      47.927  26.171  17.098  1.00  0.00    -0.107 Cl
ENDBRANCH  13  15
ENDBRANCH  12  13
ENDBRANCH  11  12
ENDBRANCH  10  11
ENDBRANCH   9  10
BRANCH   9  18
HETATM   18  O1  UNL     1      48.680  21.878  14.160  1.00  0.00    -0.393 OA
ATOM     19  H1  UNL     1      48.159  21.304  13.611  1.00  0.00     0.210 HD
ENDBRANCH   9  18
ENDBRANCH   1   9
BRANCH   8  20
HETATM   20  N2  UNL     1      51.923  19.803  11.358  1.00  0.00    -0.063 N 
ATOM     21  H23 UNL     1      51.079  19.241  11.251  1.00  0.00     0.275 HD
ATOM     22  H22 UNL     1      51.854  20.279  10.458  1.00  0.00     0.275 HD
ATOM     23  H21 UNL     1      52.777  19.258  11.478  1.00  0.00     0.275 HD
ENDBRANCH   8  20
BRANCH   8  24
HETATM   24  C9  UNL     1      52.662  21.884  12.157  1.00  0.00     0.274 C 
BRANCH  24  25
HETATM   25  N3  UNL     1      53.470  21.920  11.000  1.00  0.00    -0.077 N 
ATOM     26  H33 UNL     1      54.136  21.149  11.065  1.00  0.00     0.274 HD
ATOM     27  H32 UNL     1      52.890  21.638  10.210  1.00  0.00     0.274 HD
ATOM     28  H31 UNL     1      53.988  22.754  10.723  1.00  0.00     0.274 HD
ENDBRANCH  24  25
ENDBRANCH   8  24
TORSDOF 10
ENDMDL
MODEL 4
REMARK VINA RESULT: -6.408238006      1.438      1.642
REMARK  10 active torsions:
REMARK  status: ('A' for Active; 'I' for Inactive)
REMARK    1  A    between atoms: C2_2  and  S1_3 
REMARK    2  A    between atoms: C2_2  and  C10_26 
REMARK    3  A    between atoms: S1_3  and  S2_4 
REMARK    4  A    between atoms: S2_4  and  C3_5 
REMARK    5  A    between atoms: C3_5  and  C4_6 
REMARK    6  A    between atoms: C4_6  and  O1_7 
REMARK    7  A    between atoms: C4_6  and  C5_9 
REMARK    8  A    between atoms: C8_16  and  N2_17 
REMARK    9  A    between atoms: C8_16  and  C9_21 
REMARK   10  A    between atoms: C9_21  and  N3_22 
ROOT
HETATM    1  C5  UNL     1      50.871  21.954  13.702  1.00  0.00     0.155 C 
HETATM    2  N1  UNL     1      50.176  20.809  14.323  1.00  0.00    -0.349 N 
ATOM      3  H1  UNL     1      49.182  20.582  14.334  1.00  0.00     0.163 HD
HETATM    4  C6  UNL     1      51.291  20.097  14.911  1.00  0.00     0.255 C 
HETATM    5  O2  UNL     1      51.232  19.512  16.005  1.00  0.00    -0.270 OA
HETATM    6  C7  UNL     1      52.429  20.205  14.001  1.00  0.00     0.301 C 
HETATM    7  F1  UNL     1      53.614  20.563  14.539  1.00  0.00    -0.236 F 
HETATM    8  C8  UNL     1      51.894  21.187  12.953  1.00  0.00     0.208 C 
ENDROOT
BRANCH   1   9
HETATM    9  C4  UNL     1      51.226  22.951  14.645  1.00  0.00     0.153 C 
BRANCH   9  10
HETATM   10  C3  UNL     1      51.760  24.250  14.185  1.00  0.00     0.120 C 
BRANCH  10  11
HETATM   11  S2  UNL     1      51.288  25.717  15.037  1.00  0.00    -0.095 SA
BRANCH  11  12
HETATM   12  S1  UNL     1      49.332  26.309  14.723  1.00  0.00    -0.090 SA
BRANCH  12  13
HETATM   13  C2  UNL     1      49.260  28.134  14.737  1.00  0.00     0.087 C 
HETATM   14  C1  UNL     1      50.682  28.624  14.876  1.00  0.00     0.025 C 
BRANCH  13  15
HETATM   15  C10 UNL     1      48.791  28.548  13.344  1.00  0.00     0.192 C 
HETATM   16 CL1  UNL     1      49.675  29.982  12.796  1.00  0.00    -0.107 Cl
HETATM   17 CL2  UNL     1      47.047  28.828  13.296  1.00  0.00    -0.107 Cl
ENDBRANCH  13  15
ENDBRANCH  12  13
ENDBRANCH  11  12
ENDBRANCH  10  11
ENDBRANCH   9  10
BRANCH   9  18
HETATM   18  O1  UNL     1      50.484  23.142  15.807  1.00  0.00    -0.393 OA
ATOM     19  H1  UNL     1      49.788  22.496  15.847  1.00  0.00     0.210 HD
ENDBRANCH   9  18
ENDBRANCH   1   9
BRANCH   8  20
HETATM   20  N2  UNL     1      51.103  20.309  12.052  1.00  0.00    -0.063 N 
ATOM     21  H23 UNL     1      50.273  19.904  12.486  1.00  0.00     0.275 HD
ATOM     22  H22 UNL     1      50.610  20.806  11.310  1.00  0.00     0.275 HD
ATOM     23  H21 UNL     1      51.778  19.620  11.719  1.00  0.00     0.275 HD
ENDBRANCH   8  20
BRANCH   8  24
HETATM   24  C9  UNL     1      52.914  21.801  12.136  1.00  0.00     0.274 C 
BRANCH  24  25
HETATM   25  N3  UNL     1      53.578  21.101  11.106  1.00  0.00    -0.077 N 
ATOM     26  H33 UNL     1      53.638  21.722  10.300  1.00  0.00     0.274 HD
ATOM     27  H32 UNL     1      54.556  21.005  11.379  1.00  0.00     0.274 HD
ATOM     28  H31 UNL     1      53.259  20.191  10.773  1.00  0.00     0.274 HD
ENDBRANCH  24  25
ENDBRANCH   8  24
TORSDOF 10
ENDMDL
MODEL 5
REMARK VINA RESULT: -6.214738568      5.457      7.892
REMARK  10 active torsions:
REMARK  status: ('A' for Active; 'I' for Inactive)
REMARK    1  A    between atoms: C2_2  and  S1_3 
REMARK    2  A    between atoms: C2_2  and  C10_26 
REMARK    3  A    between atoms: S1_3  and  S2_4 
REMARK    4  A    between atoms: S2_4  and  C3_5 
REMARK    5  A    between atoms: C3_5  and  C4_6 
REMARK    6  A    between atoms: C4_6  and  O1_7 
REMARK    7  A    between atoms: C4_6  and  C5_9 
REMARK    8  A    between atoms: C8_16  and  N2_17 
REMARK    9  A    between atoms: C8_16  and  C9_21 
REMARK   10  A    between atoms: C9_21  and  N3_22 
ROOT
HETATM    1  C5  UNL     1      49.982  26.990  14.448  1.00  0.00     0.155 C 
HETATM    2  N1  UNL     1      50.140  27.596  15.785  1.00  0.00    -0.349 N 
ATOM      3  H1  UNL     1      50.984  27.930  16.251  1.00  0.00     0.163 HD
HETATM    4  C6  UNL     1      48.770  27.588  16.254  1.00  0.00     0.255 C 
HETATM    5  O2  UNL     1      48.449  27.366  17.433  1.00  0.00    -0.270 OA
HETATM    6  C7  UNL     1      47.900  27.881  15.118  1.00  0.00     0.301 C 
HETATM    7  F1  UNL     1      46.833  27.073  14.937  1.00  0.00    -0.236 F 
HETATM    8  C8  UNL     1      48.898  27.871  13.954  1.00  0.00     0.208 C 
ENDROOT
BRANCH   1   9
HETATM    9  C4  UNL     1      49.834  25.581  14.505  1.00  0.00     0.153 C 
BRANCH   9  10
HETATM   10  C3  UNL     1      51.028  24.713  14.575  1.00  0.00     0.120 C 
BRANCH  10  11
HETATM   11  S2  UNL     1      50.900  23.149  15.373  1.00  0.00    -0.095 SA
BRANCH  11  12
HETATM   12  S1  UNL     1      50.158  21.627  14.186  1.00  0.00    -0.090 SA
BRANCH  12  13
HETATM   13  C2  UNL     1      51.518  20.474  13.789  1.00  0.00     0.087 C 
HETATM   14  C1  UNL     1      51.453  19.359  14.807  1.00  0.00     0.025 C 
BRANCH  13  15
HETATM   15  C10 UNL     1      51.163  19.852  12.440  1.00  0.00     0.192 C 
HETATM   16 CL1  UNL     1      51.142  18.084  12.561  1.00  0.00    -0.107 Cl
HETATM   17 CL2  UNL     1      52.265  20.383  11.164  1.00  0.00    -0.107 Cl
ENDBRANCH  13  15
ENDBRANCH  12  13
ENDBRANCH  11  12
ENDBRANCH  10  11
ENDBRANCH   9  10
BRANCH   9  18
HETATM   18  O1  UNL     1      48.793  24.993  15.218  1.00  0.00    -0.393 OA
ATOM     19  H1  UNL     1      48.045  25.580  15.227  1.00  0.00     0.210 HD
ENDBRANCH   9  18
ENDBRANCH   1   9
BRANCH   8  20
HETATM   20  N2  UNL     1      49.484  29.235  14.011  1.00  0.00    -0.063 N 
ATOM     21  H23 UNL     1      50.277  29.324  14.646  1.00  0.00     0.275 HD
ATOM     22  H22 UNL     1      49.986  29.511  13.167  1.00  0.00     0.275 HD
ATOM     23  H21 UNL     1      48.693  29.838  14.242  1.00  0.00     0.275 HD
ENDBRANCH   8  20
BRANCH   8  24
HETATM   24  C9  UNL     1      48.292  27.738  12.650  1.00  0.00     0.274 C 
BRANCH  24  25
HETATM   25  N3  UNL     1      47.349  28.666  12.159  1.00  0.00    -0.077 N 
ATOM     26  H33 UNL     1      46.859  29.062  12.961  1.00  0.00     0.274 HD
ATOM     27  H32 UNL     1      47.865  29.471  11.803  1.00  0.00     0.274 HD
ATOM     28  H31 UNL     1      46.649  28.413  11.462  1.00  0.00     0.274 HD
ENDBRANCH  24  25
ENDBRANCH   8  24
TORSDOF 10
ENDMDL
