MODEL 1
REMARK VINA RESULT: -8.084333587      0.000      0.000
REMARK  9 active torsions:
REMARK  status: ('A' for Active; 'I' for Inactive)
REMARK    1  A    between atoms: C2_2  and  N1_3 
REMARK    2  A    between atoms: N1_3  and  C3_6 
REMARK    3  A    between atoms: N2_8  and  C5_9 
REMARK    4  A    between atoms: C6_12  and  N4_13 
REMARK    5  A    between atoms: C9_20  and  C10_21 
REMARK    6  A    between atoms: N6_24  and  C11_25 
REMARK    7  A    between atoms: C11_25  and  C12_26 
REMARK    8  A    between atoms: C12_26  and  C13_27 
REMARK    9  A    between atoms: C13_27  and  O1_28 
ROOT
HETATM    1  C5  UNL     1      51.290  23.035  14.679  1.00  0.00     0.683 A 
HETATM    2  N3  UNL     1      52.176  24.037  14.791  1.00  0.00    -0.175 N 
ATOM      3  H3  UNL     1      53.167  23.815  14.689  1.00  0.00     0.186 HD
HETATM    4  C6  UNL     1      51.836  25.314  15.031  1.00  0.00     0.145 A 
HETATM    5  C7  UNL     1      50.493  25.673  15.179  1.00  0.00     0.125 A 
HETATM    6  C8  UNL     1      49.579  24.651  15.062  1.00  0.00     0.153 A 
HETATM    7  N5  UNL     1      48.344  25.225  15.250  1.00  0.00    -0.325 N 
ATOM      8  H5  UNL     1      47.450  24.735  15.222  1.00  0.00     0.169 HD
HETATM    9  C9  UNL     1      48.510  26.532  15.473  1.00  0.00     0.152 A 
HETATM   10  N6  UNL     1      49.855  26.804  15.431  1.00  0.00    -0.326 N 
HETATM   11  N7  UNL     1      49.985  23.414  14.825  1.00  0.00    -0.174 N 
ATOM     12  H7  UNL     1      49.271  22.690  14.744  1.00  0.00     0.186 HD
ENDROOT
BRANCH   1  13
HETATM   13  N2  UNL     1      51.596  21.683  14.458  1.00  0.00    -0.213 N 
HETATM   14  C4  UNL     1      52.285  21.007  13.377  1.00  0.00     0.177 C 
HETATM   15  C3  UNL     1      51.159  19.963  13.081  1.00  0.00     0.239 C 
HETATM   16  C15 UNL     1      50.910  19.421  14.463  1.00  0.00     0.220 C 
HETATM   17  C14 UNL     1      51.183  20.604  15.380  1.00  0.00     0.180 C 
HETATM   18  F3  UNL     1      51.745  18.348  14.719  1.00  0.00    -0.245 F 
BRANCH  15  19
HETATM   19  N1  UNL     1      51.596  19.017  12.121  1.00  0.00    -0.067 N 
ATOM     20  H12 UNL     1      50.825  18.413  11.835  1.00  0.00     0.277 HD
ATOM     21  H11 UNL     1      52.206  18.322  12.552  1.00  0.00     0.277 HD
BRANCH  19  22
HETATM   22  C2  UNL     1      52.237  19.611  10.963  1.00  0.00     0.228 C 
HETATM   23  C1  UNL     1      51.207  19.977   9.905  1.00  0.00     0.034 C 
ENDBRANCH  19  22
ENDBRANCH  15  19
ENDBRANCH   1  13
BRANCH   4  24
HETATM   24  N4  UNL     1      52.697  26.228  15.128  1.00  0.00    -0.383 N 
ATOM     25  H42 UNL     1      53.392  26.303  14.384  1.00  0.00     0.157 HD
ATOM     26  H41 UNL     1      52.714  26.876  15.916  1.00  0.00     0.157 HD
ENDBRANCH   4  24
BRANCH  10  27
HETATM   27  C11 UNL     1      50.369  28.109  15.707  1.00  0.00     0.133 C 
BRANCH  27  28
HETATM   28  C12 UNL     1      50.837  28.865  14.497  1.00  0.00     0.046 C 
BRANCH  28  29
HETATM   29  C13 UNL     1      49.595  29.334  13.718  1.00  0.00     0.165 C 
BRANCH  29  30
HETATM   30  O1  UNL     1      49.912  30.022  12.557  1.00  0.00    -0.401 OA
ATOM     31  H1  UNL     1      49.319  30.744  12.380  1.00  0.00     0.209 HD
ENDBRANCH  29  30
ENDBRANCH  28  29
ENDBRANCH  27  28
ENDBRANCH  10  27
BRANCH   9  32
HETATM   32  C10 UNL     1      47.468  27.584  15.755  1.00  0.00     0.420 C 
HETATM   33  F1  UNL     1      46.360  26.951  16.359  1.00  0.00    -0.206 F 
HETATM   34  F2  UNL     1      47.071  28.241  14.613  1.00  0.00    -0.206 F 
ENDBRANCH   9  32
TORSDOF 9
ENDMDL
MODEL 2
REMARK VINA RESULT: -7.849797650      2.039      3.028
REMARK  9 active torsions:
REMARK  status: ('A' for Active; 'I' for Inactive)
REMARK    1  A    between atoms: C2_2  and  N1_3 
REMARK    2  A    between atoms: N1_3  and  C3_6 
REMARK    3  A    between atoms: N2_8  and  C5_9 
REMARK    4  A    between atoms: C6_12  and  N4_13 
REMARK    5  A    between atoms: C9_20  and  C10_21 
REMARK    6  A    between atoms: N6_24  and  C11_25 
REMARK    7  A    between atoms: C11_25  and  C12_26 
REMARK    8  A    between atoms: C12_26  and  C13_27 
REMARK    9  A    between atoms: C13_27  and  O1_28 
ROOT
HETATM    1  C5  UNL     1      50.981  22.595  14.204  1.00  0.00     0.683 A 
HETATM    2  N3  UNL     1      49.852  22.672  14.926  1.00  0.00    -0.175 N 
ATOM      3  H3  UNL     1      49.312  21.817  15.065  1.00  0.00     0.186 HD
HETATM    4  C6  UNL     1      49.390  23.807  15.476  1.00  0.00     0.145 A 
HETATM    5  C7  UNL     1      50.091  25.006  15.318  1.00  0.00     0.125 A 
HETATM    6  C8  UNL     1      51.252  24.934  14.581  1.00  0.00     0.153 A 
HETATM    7  N5  UNL     1      51.759  26.211  14.550  1.00  0.00    -0.325 N 
ATOM      8  H5  UNL     1      52.619  26.499  14.083  1.00  0.00     0.169 HD
HETATM    9  C9  UNL     1      50.938  27.015  15.234  1.00  0.00     0.152 A 
HETATM   10  N6  UNL     1      49.897  26.255  15.707  1.00  0.00    -0.326 N 
HETATM   11  N7  UNL     1      51.647  23.781  14.068  1.00  0.00    -0.174 N 
ATOM     12  H7  UNL     1      52.515  23.776  13.531  1.00  0.00     0.186 HD
ENDROOT
BRANCH   1  13
HETATM   13  N2  UNL     1      51.489  21.443  13.586  1.00  0.00    -0.213 N 
HETATM   14  C4  UNL     1      52.819  21.092  13.129  1.00  0.00     0.177 C 
HETATM   15  C3  UNL     1      52.404  20.708  11.671  1.00  0.00     0.239 C 
HETATM   16  C15 UNL     1      51.270  19.757  11.944  1.00  0.00     0.220 C 
HETATM   17  C14 UNL     1      50.645  20.284  13.227  1.00  0.00     0.180 C 
HETATM   18  F3  UNL     1      51.745  18.464  12.076  1.00  0.00    -0.245 F 
BRANCH  15  19
HETATM   19  N1  UNL     1      53.505  20.163  10.966  1.00  0.00    -0.067 N 
ATOM     20  H12 UNL     1      53.207  19.794  10.063  1.00  0.00     0.277 HD
ATOM     21  H11 UNL     1      53.823  19.299  11.406  1.00  0.00     0.277 HD
BRANCH  19  22
HETATM   22  C2  UNL     1      54.610  21.088  10.800  1.00  0.00     0.228 C 
HETATM   23  C1  UNL     1      55.922  20.337  10.626  1.00  0.00     0.034 C 
ENDBRANCH  19  22
ENDBRANCH  15  19
ENDBRANCH   1  13
BRANCH   4  24
HETATM   24  N4  UNL     1      48.326  23.839  16.150  1.00  0.00    -0.383 N 
ATOM     25  H42 UNL     1      47.661  23.076  16.019  1.00  0.00     0.157 HD
ATOM     26  H41 UNL     1      48.123  24.594  16.806  1.00  0.00     0.157 HD
ENDBRANCH   4  24
BRANCH  10  27
HETATM   27  C11 UNL     1      48.803  26.838  16.420  1.00  0.00     0.133 C 
BRANCH  27  28
HETATM   28  C12 UNL     1      47.534  26.961  15.627  1.00  0.00     0.046 C 
BRANCH  28  29
HETATM   29  C13 UNL     1      47.695  28.140  14.650  1.00  0.00     0.165 C 
BRANCH  29  30
HETATM   30  O1  UNL     1      47.860  27.735  13.334  1.00  0.00    -0.401 OA
ATOM     31  H1  UNL     1      47.999  28.461  12.737  1.00  0.00     0.209 HD
ENDBRANCH  29  30
ENDBRANCH  28  29
ENDBRANCH  27  28
ENDBRANCH  10  27
BRANCH   9  32
HETATM   32  C10 UNL     1      51.045  28.500  15.469  1.00  0.00     0.420 C 
HETATM   33  F1  UNL     1      50.809  29.155  14.242  1.00  0.00    -0.206 F 
HETATM   34  F2  UNL     1      52.277  28.858  15.966  1.00  0.00    -0.206 F 
ENDBRANCH   9  32
TORSDOF 9
ENDMDL
MODEL 3
REMARK VINA RESULT: -7.363061929      1.552      1.874
REMARK  9 active torsions:
REMARK  status: ('A' for Active; 'I' for Inactive)
REMARK    1  A    between atoms: C2_2  and  N1_3 
REMARK    2  A    between atoms: N1_3  and  C3_6 
REMARK    3  A    between atoms: N2_8  and  C5_9 
REMARK    4  A    between atoms: C6_12  and  N4_13 
REMARK    5  A    between atoms: C9_20  and  C10_21 
REMARK    6  A    between atoms: N6_24  and  C11_25 
REMARK    7  A    between atoms: C11_25  and  C12_26 
REMARK    8  A    between atoms: C12_26  and  C13_27 
REMARK    9  A    between atoms: C13_27  and  O1_28 
ROOT
HETATM    1  C5  UNL     1      51.494  22.821  13.883  1.00  0.00     0.683 A 
HETATM    2  N3  UNL     1      52.238  23.935  13.956  1.00  0.00    -0.175 N 
ATOM      3  H3  UNL     1      53.178  23.911  13.560  1.00  0.00     0.186 HD
HETATM    4  C6  UNL     1      51.819  25.080  14.518  1.00  0.00     0.145 A 
HETATM    5  C7  UNL     1      50.539  25.168  15.074  1.00  0.00     0.125 A 
HETATM    6  C8  UNL     1      49.769  24.030  15.000  1.00  0.00     0.153 A 
HETATM    7  N5  UNL     1      48.576  24.341  15.608  1.00  0.00    -0.325 N 
ATOM      8  H5  UNL     1      47.782  23.710  15.718  1.00  0.00     0.169 HD
HETATM    9  C9  UNL     1      48.629  25.608  16.031  1.00  0.00     0.152 A 
HETATM   10  N6  UNL     1      49.859  26.117  15.697  1.00  0.00    -0.326 N 
HETATM   11  N7  UNL     1      50.247  22.935  14.431  1.00  0.00    -0.174 N 
ATOM     12  H7  UNL     1      49.639  22.116  14.398  1.00  0.00     0.186 HD
ENDROOT
BRANCH   1  13
HETATM   13  N2  UNL     1      51.895  21.594  13.332  1.00  0.00    -0.213 N 
HETATM   14  C4  UNL     1      53.190  21.093  12.914  1.00  0.00     0.177 C 
HETATM   15  C3  UNL     1      52.755  20.675  11.471  1.00  0.00     0.239 C 
HETATM   16  C15 UNL     1      51.532  19.852  11.776  1.00  0.00     0.220 C 
HETATM   17  C14 UNL     1      50.947  20.503  13.020  1.00  0.00     0.180 C 
HETATM   18  F3  UNL     1      51.879  18.529  11.982  1.00  0.00    -0.245 F 
BRANCH  15  19
HETATM   19  N1  UNL     1      53.806  19.991  10.812  1.00  0.00    -0.067 N 
ATOM     20  H12 UNL     1      53.479  19.594   9.932  1.00  0.00     0.277 HD
ATOM     21  H11 UNL     1      54.043  19.133  11.309  1.00  0.00     0.277 HD
BRANCH  19  22
HETATM   22  C2  UNL     1      54.989  20.802  10.599  1.00  0.00     0.228 C 
HETATM   23  C1  UNL     1      56.248  19.951  10.676  1.00  0.00     0.034 C 
ENDBRANCH  19  22
ENDBRANCH  15  19
ENDBRANCH   1  13
BRANCH   4  24
HETATM   24  N4  UNL     1      52.546  26.108  14.565  1.00  0.00    -0.383 N 
ATOM     25  H42 UNL     1      52.084  27.008  14.696  1.00  0.00     0.157 HD
ATOM     26  H41 UNL     1      53.561  26.057  14.474  1.00  0.00     0.157 HD
ENDBRANCH   4  24
BRANCH  10  27
HETATM   27  C11 UNL     1      50.258  27.435  16.080  1.00  0.00     0.133 C 
BRANCH  27  28
HETATM   28  C12 UNL     1      50.448  28.387  14.934  1.00  0.00     0.046 C 
BRANCH  28  29
HETATM   29  C13 UNL     1      49.089  28.570  14.235  1.00  0.00     0.165 C 
BRANCH  29  30
HETATM   30  O1  UNL     1      49.046  29.689  13.417  1.00  0.00    -0.401 OA
ATOM     31  H1  UNL     1      48.760  29.491  12.533  1.00  0.00     0.209 HD
ENDBRANCH  29  30
ENDBRANCH  28  29
ENDBRANCH  27  28
ENDBRANCH  10  27
BRANCH   9  32
HETATM   32  C10 UNL     1      47.584  26.403  16.771  1.00  0.00     0.420 C 
HETATM   33  F1  UNL     1      46.900  25.525  17.640  1.00  0.00    -0.206 F 
HETATM   34  F2  UNL     1      46.692  27.010  15.916  1.00  0.00    -0.206 F 
ENDBRANCH   9  32
TORSDOF 9
ENDMDL
MODEL 4
REMARK VINA RESULT: -7.350806052      1.656      2.588
REMARK  9 active torsions:
REMARK  status: ('A' for Active; 'I' for Inactive)
REMARK    1  A    between atoms: C2_2  and  N1_3 
REMARK    2  A    between atoms: N1_3  and  C3_6 
REMARK    3  A    between atoms: N2_8  and  C5_9 
REMARK    4  A    between atoms: C6_12  and  N4_13 
REMARK    5  A    between atoms: C9_20  and  C10_21 
REMARK    6  A    between atoms: N6_24  and  C11_25 
REMARK    7  A    between atoms: C11_25  and  C12_26 
REMARK    8  A    between atoms: C12_26  and  C13_27 
REMARK    9  A    between atoms: C13_27  and  O1_28 
ROOT
HETATM    1  C5  UNL     1      50.749  22.938  14.883  1.00  0.00     0.683 A 
HETATM    2  N3  UNL     1      49.631  23.165  15.591  1.00  0.00    -0.175 N 
ATOM      3  H3  UNL     1      49.102  22.358  15.925  1.00  0.00     0.186 HD
HETATM    4  C6  UNL     1      49.168  24.390  15.887  1.00  0.00     0.145 A 
HETATM    5  C7  UNL     1      49.855  25.529  15.456  1.00  0.00     0.125 A 
HETATM    6  C8  UNL     1      51.003  25.304  14.732  1.00  0.00     0.153 A 
HETATM    7  N5  UNL     1      51.497  26.546  14.412  1.00  0.00    -0.325 N 
ATOM      8  H5  UNL     1      52.346  26.729  13.877  1.00  0.00     0.169 HD
HETATM    9  C9  UNL     1      50.680  27.475  14.917  1.00  0.00     0.152 A 
HETATM   10  N6  UNL     1      49.654  26.832  15.565  1.00  0.00    -0.326 N 
HETATM   11  N7  UNL     1      51.402  24.069  14.477  1.00  0.00    -0.174 N 
ATOM     12  H7  UNL     1      52.260  23.951  13.938  1.00  0.00     0.186 HD
ENDROOT
BRANCH   1  13
HETATM   13  N2  UNL     1      51.258  21.681  14.524  1.00  0.00    -0.213 N 
HETATM   14  C4  UNL     1      51.993  21.226  13.360  1.00  0.00     0.177 C 
HETATM   15  C3  UNL     1      51.038  20.039  13.007  1.00  0.00     0.239 C 
HETATM   16  C15 UNL     1      50.950  19.344  14.339  1.00  0.00     0.220 C 
HETATM   17  C14 UNL     1      51.073  20.471  15.353  1.00  0.00     0.180 C 
HETATM   18  F3  UNL     1      51.960  18.407  14.461  1.00  0.00    -0.245 F 
BRANCH  15  19
HETATM   19  N1  UNL     1      51.573  19.267  11.946  1.00  0.00    -0.067 N 
ATOM     20  H12 UNL     1      50.885  18.593  11.611  1.00  0.00     0.277 HD
ATOM     21  H11 UNL     1      52.286  18.626  12.293  1.00  0.00     0.277 HD
BRANCH  19  22
HETATM   22  C2  UNL     1      52.089  20.061  10.847  1.00  0.00     0.228 C 
HETATM   23  C1  UNL     1      51.199  19.928   9.620  1.00  0.00     0.034 C 
ENDBRANCH  19  22
ENDBRANCH  15  19
ENDBRANCH   1  13
BRANCH   4  24
HETATM   24  N4  UNL     1      48.115  24.563  16.557  1.00  0.00    -0.383 N 
ATOM     25  H42 UNL     1      48.181  24.474  17.571  1.00  0.00     0.157 HD
ATOM     26  H41 UNL     1      47.222  24.783  16.115  1.00  0.00     0.157 HD
ENDBRANCH   4  24
BRANCH  10  27
HETATM   27  C11 UNL     1      48.567  27.551  16.152  1.00  0.00     0.133 C 
BRANCH  27  28
HETATM   28  C12 UNL     1      47.287  27.498  15.369  1.00  0.00     0.046 C 
BRANCH  28  29
HETATM   29  C13 UNL     1      47.438  28.420  14.146  1.00  0.00     0.165 C 
BRANCH  29  30
HETATM   30  O1  UNL     1      47.646  27.725  12.965  1.00  0.00    -0.401 OA
ATOM     31  H1  UNL     1      46.843  27.379  12.592  1.00  0.00     0.209 HD
ENDBRANCH  29  30
ENDBRANCH  28  29
ENDBRANCH  27  28
ENDBRANCH  10  27
BRANCH   9  32
HETATM   32  C10 UNL     1      50.777  28.976  14.818  1.00  0.00     0.420 C 
HETATM   33  F1  UNL     1      50.529  29.343  13.478  1.00  0.00    -0.206 F 
HETATM   34  F2  UNL     1      52.008  29.444  15.215  1.00  0.00    -0.206 F 
ENDBRANCH   9  32
TORSDOF 9
ENDMDL
MODEL 5
REMARK VINA RESULT: -6.605011722      1.432      2.377
REMARK  9 active torsions:
REMARK  status: ('A' for Active; 'I' for Inactive)
REMARK    1  A    between atoms: C2_2  and  N1_3 
REMARK    2  A    between atoms: N1_3  and  C3_6 
REMARK    3  A    between atoms: N2_8  and  C5_9 
REMARK    4  A    between atoms: C6_12  and  N4_13 
REMARK    5  A    between atoms: C9_20  and  C10_21 
REMARK    6  A    between atoms: N6_24  and  C11_25 
REMARK    7  A    between atoms: C11_25  and  C12_26 
REMARK    8  A    between atoms: C12_26  and  C13_27 
REMARK    9  A    between atoms: C13_27  and  O1_28 
ROOT
HETATM    1  C5  UNL     1      50.752  22.613  14.328  1.00  0.00     0.683 A 
HETATM    2  N3  UNL     1      51.796  23.448  14.212  1.00  0.00    -0.175 N 
ATOM      3  H3  UNL     1      52.678  23.068  13.868  1.00  0.00     0.186 HD
HETATM    4  C6  UNL     1      51.748  24.754  14.522  1.00  0.00     0.145 A 
HETATM    5  C7  UNL     1      50.564  25.326  14.995  1.00  0.00     0.125 A 
HETATM    6  C8  UNL     1      49.488  24.476  15.114  1.00  0.00     0.153 A 
HETATM    7  N5  UNL     1      48.454  25.242  15.598  1.00  0.00    -0.325 N 
ATOM      8  H5  UNL     1      47.510  24.909  15.796  1.00  0.00     0.169 HD
HETATM    9  C9  UNL     1      48.891  26.493  15.767  1.00  0.00     0.152 A 
HETATM   10  N6  UNL     1      50.210  26.538  15.392  1.00  0.00    -0.326 N 
HETATM   11  N7  UNL     1      49.606  23.199  14.791  1.00  0.00    -0.174 N 
ATOM     12  H7  UNL     1      48.781  22.607  14.894  1.00  0.00     0.186 HD
ENDROOT
BRANCH   1  13
HETATM   13  N2  UNL     1      50.758  21.238  14.046  1.00  0.00    -0.213 N 
HETATM   14  C4  UNL     1      50.408  20.081  14.845  1.00  0.00     0.177 C 
HETATM   15  C3  UNL     1      51.749  19.308  14.626  1.00  0.00     0.239 C 
HETATM   16  C15 UNL     1      51.861  19.361  13.126  1.00  0.00     0.220 C 
HETATM   17  C14 UNL     1      51.210  20.684  12.753  1.00  0.00     0.180 C 
HETATM   18  F3  UNL     1      51.221  18.275  12.556  1.00  0.00    -0.245 F 
BRANCH  15  19
HETATM   19  N1  UNL     1      51.676  18.010  15.190  1.00  0.00    -0.067 N 
ATOM     20  H12 UNL     1      52.570  17.529  15.101  1.00  0.00     0.277 HD
ATOM     21  H11 UNL     1      51.096  17.400  14.614  1.00  0.00     0.277 HD
BRANCH  19  22
HETATM   22  C2  UNL     1      51.222  17.996  16.567  1.00  0.00     0.228 C 
HETATM   23  C1  UNL     1      50.828  16.589  16.992  1.00  0.00     0.034 C 
ENDBRANCH  19  22
ENDBRANCH  15  19
ENDBRANCH   1  13
BRANCH   4  24
HETATM   24  N4  UNL     1      52.750  25.508  14.396  1.00  0.00    -0.383 N 
ATOM     25  H42 UNL     1      52.641  26.349  13.829  1.00  0.00     0.157 HD
ATOM     26  H41 UNL     1      53.645  25.296  14.838  1.00  0.00     0.157 HD
ENDBRANCH   4  24
BRANCH  10  27
HETATM   27  C11 UNL     1      50.992  27.728  15.524  1.00  0.00     0.133 C 
BRANCH  27  28
HETATM   28  C12 UNL     1      51.088  28.554  14.275  1.00  0.00     0.046 C 
BRANCH  28  29
HETATM   29  C13 UNL     1      49.712  29.197  14.021  1.00  0.00     0.165 C 
BRANCH  29  30
HETATM   30  O1  UNL     1      49.671  29.949  12.857  1.00  0.00    -0.401 OA
ATOM     31  H1  UNL     1      50.528  30.079  12.469  1.00  0.00     0.209 HD
ENDBRANCH  29  30
ENDBRANCH  28  29
ENDBRANCH  27  28
ENDBRANCH  10  27
BRANCH   9  32
HETATM   32  C10 UNL     1      48.145  27.694  16.292  1.00  0.00     0.420 C 
HETATM   33  F1  UNL     1      48.296  27.722  17.696  1.00  0.00    -0.206 F 
HETATM   34  F2  UNL     1      46.810  27.661  15.961  1.00  0.00    -0.206 F 
ENDBRANCH   9  32
TORSDOF 9
ENDMDL
