MODEL 1
REMARK VINA RESULT: -7.699650360      0.000      0.000
REMARK  15 active torsions:
REMARK  status: ('A' for Active; 'I' for Inactive)
REMARK    1  A    between atoms: C2_2  and  C3_3 
REMARK    2  A    between atoms: C3_3  and  C4_4 
REMARK    3  A    between atoms: C4_4  and  C5_5 
REMARK    4  A    between atoms: C5_5  and  C6_6 
REMARK    5  A    between atoms: C6_6  and  C7_7 
REMARK    6  A    between atoms: C7_7  and  C8_8 
REMARK    7  A    between atoms: C12_12  and  C13_13 
REMARK    8  A    between atoms: C14_15  and  O2_16 
REMARK    9  A    between atoms: O2_16  and  C15_17 
REMARK   10  A    between atoms: C16_18  and  O3_19 
REMARK   11  A    between atoms: C18_23  and  O5_24 
REMARK   12  A    between atoms: C19_26  and  O6_27 
REMARK   13  A    between atoms: C20_29  and  O7_30 
REMARK   14  A    between atoms: C21_32  and  O8_33 
REMARK   15  A    between atoms: C22_35  and  O9_36 
ROOT
HETATM    1  C13 UNL     1      29.485   1.779   8.207  1.00  0.00     0.160 C 
HETATM    2  O1  UNL     1      30.405   0.906   7.697  1.00  0.00    -0.350 OA
HETATM    3  C14 UNL     1      30.523  -0.244   8.479  1.00  0.00     0.292 C 
HETATM    4  C20 UNL     1      31.250   0.201   9.713  1.00  0.00     0.204 C 
HETATM    5  C21 UNL     1      30.275   1.051  10.497  1.00  0.00     0.183 C 
HETATM    6  C22 UNL     1      29.259   1.741   9.661  1.00  0.00     0.178 C 
ENDROOT
BRANCH   3   7
HETATM    7  O2  UNL     1      31.073  -1.303   7.820  1.00  0.00    -0.346 OA
BRANCH   7   8
HETATM    8  C15 UNL     1      30.425  -2.507   7.943  1.00  0.00     0.211 C 
HETATM    9  C16 UNL     1      30.008  -2.930   6.550  1.00  0.00     0.288 C 
HETATM   10  O4  UNL     1      28.919  -2.168   6.149  1.00  0.00    -0.356 OA
HETATM   11  C17 UNL     1      27.743  -2.538   6.793  1.00  0.00     0.205 C 
HETATM   12  C18 UNL     1      27.988  -3.036   8.201  1.00  0.00     0.173 C 
HETATM   13  C19 UNL     1      29.201  -2.376   8.821  1.00  0.00     0.182 C 
BRANCH   9  14
HETATM   14  O3  UNL     1      29.791  -4.291   6.452  1.00  0.00    -0.369 OA
ATOM     15  H3  UNL     1      30.242  -4.679   5.712  1.00  0.00     0.212 HD
ENDBRANCH   9  14
BRANCH  12  16
HETATM   16  O5  UNL     1      26.897  -2.711   9.010  1.00  0.00    -0.391 OA
ATOM     17  H5  UNL     1      26.958  -3.182   9.832  1.00  0.00     0.210 HD
ENDBRANCH  12  16
BRANCH  13  18
HETATM   18  O6  UNL     1      29.387  -2.985  10.071  1.00  0.00    -0.390 OA
ATOM     19  H6  UNL     1      28.638  -3.512  10.322  1.00  0.00     0.210 HD
ENDBRANCH  13  18
ENDBRANCH   7   8
ENDBRANCH   3   7
BRANCH   4  20
HETATM   20  O7  UNL     1      32.267   1.072   9.297  1.00  0.00    -0.388 OA
ATOM     21  H7  UNL     1      33.025   0.896   9.844  1.00  0.00     0.210 HD
ENDBRANCH   4  20
BRANCH   1  22
HETATM   22  C12 UNL     1      29.886   3.201   7.824  1.00  0.00     0.021 C 
HETATM   23  C8  UNL     1      29.744   3.476   6.371  1.00  0.00    -0.008 C 
HETATM   24  C9  UNL     1      29.670   4.983   6.336  1.00  0.00     0.005 C 
HETATM   25  C10 UNL     1      28.830   5.374   7.522  1.00  0.00     0.001 C 
HETATM   26  C11 UNL     1      29.003   4.231   8.492  1.00  0.00     0.007 C 
BRANCH  23  27
HETATM   27  C7  UNL     1      28.555   2.817   5.737  1.00  0.00     0.005 C 
BRANCH  27  28
HETATM   28  C6  UNL     1      28.737   2.478   4.302  1.00  0.00     0.000 C 
BRANCH  28  29
HETATM   29  C5  UNL     1      28.073   1.194   3.909  1.00  0.00     0.000 C 
BRANCH  29  30
HETATM   30  C4  UNL     1      27.203   0.641   5.004  1.00  0.00     0.000 C 
BRANCH  30  31
HETATM   31  C3  UNL     1      25.907   0.070   4.469  1.00  0.00    -0.000 C 
BRANCH  31  32
HETATM   32  C2  UNL     1      26.144  -0.407   3.053  1.00  0.00    -0.005 C 
HETATM   33  C1  UNL     1      25.023  -0.071   2.127  1.00  0.00     0.005 C 
ENDBRANCH  31  32
ENDBRANCH  30  31
ENDBRANCH  29  30
ENDBRANCH  28  29
ENDBRANCH  27  28
ENDBRANCH  23  27
ENDBRANCH   1  22
BRANCH   5  34
HETATM   34  O8  UNL     1      29.685   0.225  11.459  1.00  0.00    -0.390 OA
ATOM     35  H8  UNL     1      30.227   0.267  12.237  1.00  0.00     0.210 HD
ENDBRANCH   5  34
BRANCH   6  36
HETATM   36  O9  UNL     1      28.018   1.099   9.903  1.00  0.00    -0.390 OA
ATOM     37  H9  UNL     1      27.362   1.767  10.064  1.00  0.00     0.210 HD
ENDBRANCH   6  36
TORSDOF 15
ENDMDL
MODEL 2
REMARK VINA RESULT: -7.316108208      2.155      4.537
REMARK  15 active torsions:
REMARK  status: ('A' for Active; 'I' for Inactive)
REMARK    1  A    between atoms: C2_2  and  C3_3 
REMARK    2  A    between atoms: C3_3  and  C4_4 
REMARK    3  A    between atoms: C4_4  and  C5_5 
REMARK    4  A    between atoms: C5_5  and  C6_6 
REMARK    5  A    between atoms: C6_6  and  C7_7 
REMARK    6  A    between atoms: C7_7  and  C8_8 
REMARK    7  A    between atoms: C12_12  and  C13_13 
REMARK    8  A    between atoms: C14_15  and  O2_16 
REMARK    9  A    between atoms: O2_16  and  C15_17 
REMARK   10  A    between atoms: C16_18  and  O3_19 
REMARK   11  A    between atoms: C18_23  and  O5_24 
REMARK   12  A    between atoms: C19_26  and  O6_27 
REMARK   13  A    between atoms: C20_29  and  O7_30 
REMARK   14  A    between atoms: C21_32  and  O8_33 
REMARK   15  A    between atoms: C22_35  and  O9_36 
ROOT
HETATM    1  C13 UNL     1      29.004  -0.525   8.228  1.00  0.00     0.160 C 
HETATM    2  O1  UNL     1      29.457  -0.838   9.479  1.00  0.00    -0.350 OA
HETATM    3  C14 UNL     1      29.911  -2.156   9.556  1.00  0.00     0.292 C 
HETATM    4  C20 UNL     1      28.669  -2.994   9.517  1.00  0.00     0.204 C 
HETATM    5  C21 UNL     1      28.134  -2.897   8.105  1.00  0.00     0.183 C 
HETATM    6  C22 UNL     1      28.478  -1.630   7.410  1.00  0.00     0.178 C 
ENDROOT
BRANCH   3   7
HETATM    7  O2  UNL     1      30.748  -2.388  10.605  1.00  0.00    -0.346 OA
BRANCH   7   8
HETATM    8  C15 UNL     1      31.289  -1.284  11.216  1.00  0.00     0.211 C 
HETATM    9  C16 UNL     1      32.638  -1.699  11.768  1.00  0.00     0.288 C 
HETATM   10  O4  UNL     1      32.446  -2.471  12.905  1.00  0.00    -0.356 OA
HETATM   11  C17 UNL     1      32.044  -1.717  14.002  1.00  0.00     0.205 C 
HETATM   12  C18 UNL     1      31.199  -0.526  13.605  1.00  0.00     0.173 C 
HETATM   13  C19 UNL     1      30.405  -0.803  12.346  1.00  0.00     0.182 C 
BRANCH   9  14
HETATM   14  O3  UNL     1      33.480  -0.623  11.971  1.00  0.00    -0.369 OA
ATOM     15  H3  UNL     1      33.089   0.201  11.704  1.00  0.00     0.212 HD
ENDBRANCH   9  14
BRANCH  12  16
HETATM   16  O5  UNL     1      30.270  -0.253  14.612  1.00  0.00    -0.391 OA
ATOM     17  H5  UNL     1      29.390  -0.351  14.268  1.00  0.00     0.210 HD
ENDBRANCH  12  16
BRANCH  13  18
HETATM   18  O6  UNL     1      29.749   0.393  12.021  1.00  0.00    -0.390 OA
ATOM     19  H6  UNL     1      30.192   1.150  12.385  1.00  0.00     0.210 HD
ENDBRANCH  13  18
ENDBRANCH   7   8
ENDBRANCH   3   7
BRANCH   4  20
HETATM   20  O7  UNL     1      27.720  -2.359  10.330  1.00  0.00    -0.388 OA
ATOM     21  H7  UNL     1      27.442  -2.993  10.981  1.00  0.00     0.210 HD
ENDBRANCH   4  20
BRANCH   1  22
HETATM   22  C12 UNL     1      27.917   0.540   8.347  1.00  0.00     0.021 C 
HETATM   23  C8  UNL     1      28.386   1.897   7.967  1.00  0.00    -0.008 C 
HETATM   24  C9  UNL     1      27.092   2.608   7.656  1.00  0.00     0.005 C 
HETATM   25  C10 UNL     1      26.240   1.599   6.935  1.00  0.00     0.001 C 
HETATM   26  C11 UNL     1      26.759   0.265   7.413  1.00  0.00     0.007 C 
BRANCH  23  27
HETATM   27  C7  UNL     1      29.353   1.913   6.820  1.00  0.00     0.005 C 
BRANCH  27  28
HETATM   28  C6  UNL     1      29.241   3.107   5.944  1.00  0.00     0.000 C 
BRANCH  28  29
HETATM   29  C5  UNL     1      29.029   2.763   4.501  1.00  0.00     0.000 C 
BRANCH  29  30
HETATM   30  C4  UNL     1      28.843   1.286   4.285  1.00  0.00     0.000 C 
BRANCH  30  31
HETATM   31  C3  UNL     1      27.744   0.989   3.287  1.00  0.00    -0.000 C 
BRANCH  31  32
HETATM   32  C2  UNL     1      26.945  -0.191   3.794  1.00  0.00    -0.005 C 
HETATM   33  C1  UNL     1      25.573  -0.261   3.213  1.00  0.00     0.005 C 
ENDBRANCH  31  32
ENDBRANCH  30  31
ENDBRANCH  29  30
ENDBRANCH  28  29
ENDBRANCH  27  28
ENDBRANCH  23  27
ENDBRANCH   1  22
BRANCH   5  34
HETATM   34  O8  UNL     1      28.598  -4.017   7.408  1.00  0.00    -0.390 OA
ATOM     35  H8  UNL     1      28.232  -3.976   6.533  1.00  0.00     0.210 HD
ENDBRANCH   5  34
BRANCH   6  36
HETATM   36  O9  UNL     1      29.439  -1.948   6.418  1.00  0.00    -0.390 OA
ATOM     37  H9  UNL     1      29.074  -2.617   5.851  1.00  0.00     0.210 HD
ENDBRANCH   6  36
TORSDOF 15
ENDMDL
MODEL 3
REMARK VINA RESULT: -7.277250544      1.757      5.171
REMARK  15 active torsions:
REMARK  status: ('A' for Active; 'I' for Inactive)
REMARK    1  A    between atoms: C2_2  and  C3_3 
REMARK    2  A    between atoms: C3_3  and  C4_4 
REMARK    3  A    between atoms: C4_4  and  C5_5 
REMARK    4  A    between atoms: C5_5  and  C6_6 
REMARK    5  A    between atoms: C6_6  and  C7_7 
REMARK    6  A    between atoms: C7_7  and  C8_8 
REMARK    7  A    between atoms: C12_12  and  C13_13 
REMARK    8  A    between atoms: C14_15  and  O2_16 
REMARK    9  A    between atoms: O2_16  and  C15_17 
REMARK   10  A    between atoms: C16_18  and  O3_19 
REMARK   11  A    between atoms: C18_23  and  O5_24 
REMARK   12  A    between atoms: C19_26  and  O6_27 
REMARK   13  A    between atoms: C20_29  and  O7_30 
REMARK   14  A    between atoms: C21_32  and  O8_33 
REMARK   15  A    between atoms: C22_35  and  O9_36 
ROOT
HETATM    1  C13 UNL     1      29.054  -0.525   7.046  1.00  0.00     0.160 C 
HETATM    2  O1  UNL     1      28.263  -0.627   8.157  1.00  0.00    -0.350 OA
HETATM    3  C14 UNL     1      28.406  -1.864   8.787  1.00  0.00     0.292 C 
HETATM    4  C20 UNL     1      27.708  -2.839   7.887  1.00  0.00     0.204 C 
HETATM    5  C21 UNL     1      28.577  -2.978   6.657  1.00  0.00     0.183 C 
HETATM    6  C22 UNL     1      29.392  -1.775   6.347  1.00  0.00     0.178 C 
ENDROOT
BRANCH   3   7
HETATM    7  O2  UNL     1      28.000  -1.867  10.088  1.00  0.00    -0.346 OA
BRANCH   7   8
HETATM    8  C15 UNL     1      28.988  -1.931  11.039  1.00  0.00     0.211 C 
HETATM    9  C16 UNL     1      28.841  -0.702  11.914  1.00  0.00     0.288 C 
HETATM   10  O4  UNL     1      29.311   0.406  11.224  1.00  0.00    -0.356 OA
HETATM   11  C17 UNL     1      30.699   0.432  11.137  1.00  0.00     0.205 C 
HETATM   12  C18 UNL     1      31.298  -0.957  11.069  1.00  0.00     0.173 C 
HETATM   13  C19 UNL     1      30.358  -1.936  10.399  1.00  0.00     0.182 C 
BRANCH   9  14
HETATM   14  O3  UNL     1      29.422  -0.864  13.156  1.00  0.00    -0.369 OA
ATOM     15  H3  UNL     1      29.074  -0.260  13.802  1.00  0.00     0.212 HD
ENDBRANCH   9  14
BRANCH  12  16
HETATM   16  O5  UNL     1      32.462  -0.927  10.298  1.00  0.00    -0.391 OA
ATOM     17  H5  UNL     1      32.315  -1.390   9.481  1.00  0.00     0.210 HD
ENDBRANCH  12  16
BRANCH  13  18
HETATM   18  O6  UNL     1      30.970  -3.195  10.485  1.00  0.00    -0.390 OA
ATOM     19  H6  UNL     1      31.674  -3.289   9.854  1.00  0.00     0.210 HD
ENDBRANCH  13  18
ENDBRANCH   7   8
ENDBRANCH   3   7
BRANCH   4  20
HETATM   20  O7  UNL     1      26.527  -2.221   7.452  1.00  0.00    -0.388 OA
ATOM     21  H7  UNL     1      26.329  -2.574   6.592  1.00  0.00     0.210 HD
ENDBRANCH   4  20
BRANCH   1  22
HETATM   22  C12 UNL     1      28.385   0.415   6.046  1.00  0.00     0.021 C 
HETATM   23  C8  UNL     1      28.728   1.843   6.268  1.00  0.00    -0.008 C 
HETATM   24  C9  UNL     1      28.420   2.458   4.925  1.00  0.00     0.005 C 
HETATM   25  C10 UNL     1      28.889   1.456   3.904  1.00  0.00     0.001 C 
HETATM   26  C11 UNL     1      28.831   0.134   4.629  1.00  0.00     0.007 C 
BRANCH  23  27
HETATM   27  C7  UNL     1      30.144   2.072   6.705  1.00  0.00     0.005 C 
BRANCH  27  28
HETATM   28  C6  UNL     1      30.278   2.601   8.087  1.00  0.00     0.000 C 
BRANCH  28  29
HETATM   29  C5  UNL     1      28.990   3.118   8.649  1.00  0.00     0.000 C 
BRANCH  29  30
HETATM   30  C4  UNL     1      29.013   4.607   8.860  1.00  0.00     0.000 C 
BRANCH  30  31
HETATM   31  C3  UNL     1      28.620   5.367   7.612  1.00  0.00    -0.000 C 
BRANCH  31  32
HETATM   32  C2  UNL     1      29.859   6.016   7.037  1.00  0.00    -0.005 C 
HETATM   33  C1  UNL     1      30.079   5.689   5.598  1.00  0.00     0.005 C 
ENDBRANCH  31  32
ENDBRANCH  30  31
ENDBRANCH  29  30
ENDBRANCH  28  29
ENDBRANCH  27  28
ENDBRANCH  23  27
ENDBRANCH   1  22
BRANCH   5  34
HETATM   34  O8  UNL     1      29.372  -4.114   6.837  1.00  0.00    -0.390 OA
ATOM     35  H8  UNL     1      29.404  -4.571   6.005  1.00  0.00     0.210 HD
ENDBRANCH   5  34
BRANCH   6  36
HETATM   36  O9  UNL     1      30.740  -2.100   6.642  1.00  0.00    -0.390 OA
ATOM     37  H9  UNL     1      30.965  -2.896   6.174  1.00  0.00     0.210 HD
ENDBRANCH   6  36
TORSDOF 15
ENDMDL
MODEL 4
REMARK VINA RESULT: -7.271389698      2.582      3.941
REMARK  15 active torsions:
REMARK  status: ('A' for Active; 'I' for Inactive)
REMARK    1  A    between atoms: C2_2  and  C3_3 
REMARK    2  A    between atoms: C3_3  and  C4_4 
REMARK    3  A    between atoms: C4_4  and  C5_5 
REMARK    4  A    between atoms: C5_5  and  C6_6 
REMARK    5  A    between atoms: C6_6  and  C7_7 
REMARK    6  A    between atoms: C7_7  and  C8_8 
REMARK    7  A    between atoms: C12_12  and  C13_13 
REMARK    8  A    between atoms: C14_15  and  O2_16 
REMARK    9  A    between atoms: O2_16  and  C15_17 
REMARK   10  A    between atoms: C16_18  and  O3_19 
REMARK   11  A    between atoms: C18_23  and  O5_24 
REMARK   12  A    between atoms: C19_26  and  O6_27 
REMARK   13  A    between atoms: C20_29  and  O7_30 
REMARK   14  A    between atoms: C21_32  and  O8_33 
REMARK   15  A    between atoms: C22_35  and  O9_36 
ROOT
HETATM    1  C13 UNL     1      29.509   0.627   8.723  1.00  0.00     0.160 C 
HETATM    2  O1  UNL     1      30.027   0.282   9.940  1.00  0.00    -0.350 OA
HETATM    3  C14 UNL     1      29.701  -1.029  10.294  1.00  0.00     0.292 C 
HETATM    4  C20 UNL     1      28.243  -0.983  10.640  1.00  0.00     0.204 C 
HETATM    5  C21 UNL     1      27.503  -0.785   9.336  1.00  0.00     0.183 C 
HETATM    6  C22 UNL     1      28.281  -0.063   8.297  1.00  0.00     0.178 C 
ENDROOT
BRANCH   3   7
HETATM    7  O2  UNL     1      30.518  -1.560  11.246  1.00  0.00    -0.346 OA
BRANCH   7   8
HETATM    8  C15 UNL     1      30.766  -2.907  11.161  1.00  0.00     0.211 C 
HETATM    9  C16 UNL     1      30.201  -3.542  12.415  1.00  0.00     0.288 C 
HETATM   10  O4  UNL     1      31.039  -3.261  13.485  1.00  0.00    -0.356 OA
HETATM   11  C17 UNL     1      32.219  -3.996  13.446  1.00  0.00     0.205 C 
HETATM   12  C18 UNL     1      32.676  -4.279  12.031  1.00  0.00     0.173 C 
HETATM   13  C19 UNL     1      32.252  -3.180  11.080  1.00  0.00     0.182 C 
BRANCH   9  14
HETATM   14  O3  UNL     1      29.946  -4.890  12.257  1.00  0.00    -0.369 OA
ATOM     15  H3  UNL     1      30.441  -5.428  12.863  1.00  0.00     0.212 HD
ENDBRANCH   9  14
BRANCH  12  16
HETATM   16  O5  UNL     1      34.072  -4.326  11.990  1.00  0.00    -0.391 OA
ATOM     17  H5  UNL     1      34.351  -4.814  11.225  1.00  0.00     0.210 HD
ENDBRANCH  12  16
BRANCH  13  18
HETATM   18  O6  UNL     1      32.636  -3.597   9.797  1.00  0.00    -0.390 OA
ATOM     19  H6  UNL     1      33.434  -3.168   9.510  1.00  0.00     0.210 HD
ENDBRANCH  13  18
ENDBRANCH   7   8
ENDBRANCH   3   7
BRANCH   4  20
HETATM   20  O7  UNL     1      28.034   0.189  11.380  1.00  0.00    -0.388 OA
ATOM     21  H7  UNL     1      27.527   0.777  10.833  1.00  0.00     0.210 HD
ENDBRANCH   4  20
BRANCH   1  22
HETATM   22  C12 UNL     1      29.242   2.130   8.706  1.00  0.00     0.021 C 
HETATM   23  C8  UNL     1      29.941   2.835   7.602  1.00  0.00    -0.008 C 
HETATM   24  C9  UNL     1      29.139   4.106   7.474  1.00  0.00     0.005 C 
HETATM   25  C10 UNL     1      27.702   3.696   7.658  1.00  0.00     0.001 C 
HETATM   26  C11 UNL     1      27.778   2.436   8.484  1.00  0.00     0.007 C 
BRANCH  23  27
HETATM   27  C7  UNL     1      30.008   2.054   6.323  1.00  0.00     0.005 C 
BRANCH  27  28
HETATM   28  C6  UNL     1      29.897   2.882   5.094  1.00  0.00     0.000 C 
BRANCH  28  29
HETATM   29  C5  UNL     1      28.845   2.394   4.146  1.00  0.00     0.000 C 
BRANCH  29  30
HETATM   30  C4  UNL     1      27.923   1.389   4.780  1.00  0.00     0.000 C 
BRANCH  30  31
HETATM   31  C3  UNL     1      27.286   0.474   3.758  1.00  0.00    -0.000 C 
BRANCH  31  32
HETATM   32  C2  UNL     1      25.967  -0.018   4.313  1.00  0.00    -0.005 C 
HETATM   33  C1  UNL     1      25.757   0.356   5.742  1.00  0.00     0.005 C 
ENDBRANCH  31  32
ENDBRANCH  30  31
ENDBRANCH  29  30
ENDBRANCH  28  29
ENDBRANCH  27  28
ENDBRANCH  23  27
ENDBRANCH   1  22
BRANCH   5  34
HETATM   34  O8  UNL     1      27.091  -2.047   8.896  1.00  0.00    -0.390 OA
ATOM     35  H8  UNL     1      26.763  -1.945   8.011  1.00  0.00     0.210 HD
ENDBRANCH   5  34
BRANCH   6  36
HETATM   36  O9  UNL     1      28.625  -1.013   7.302  1.00  0.00    -0.390 OA
ATOM     37  H9  UNL     1      27.823  -1.362   6.931  1.00  0.00     0.210 HD
ENDBRANCH   6  36
TORSDOF 15
ENDMDL
MODEL 5
REMARK VINA RESULT: -7.186468524      2.349      4.274
REMARK  15 active torsions:
REMARK  status: ('A' for Active; 'I' for Inactive)
REMARK    1  A    between atoms: C2_2  and  C3_3 
REMARK    2  A    between atoms: C3_3  and  C4_4 
REMARK    3  A    between atoms: C4_4  and  C5_5 
REMARK    4  A    between atoms: C5_5  and  C6_6 
REMARK    5  A    between atoms: C6_6  and  C7_7 
REMARK    6  A    between atoms: C7_7  and  C8_8 
REMARK    7  A    between atoms: C12_12  and  C13_13 
REMARK    8  A    between atoms: C14_15  and  O2_16 
REMARK    9  A    between atoms: O2_16  and  C15_17 
REMARK   10  A    between atoms: C16_18  and  O3_19 
REMARK   11  A    between atoms: C18_23  and  O5_24 
REMARK   12  A    between atoms: C19_26  and  O6_27 
REMARK   13  A    between atoms: C20_29  and  O7_30 
REMARK   14  A    between atoms: C21_32  and  O8_33 
REMARK   15  A    between atoms: C22_35  and  O9_36 
ROOT
HETATM    1  C13 UNL     1      29.181   0.126   8.517  1.00  0.00     0.160 C 
HETATM    2  O1  UNL     1      29.226  -0.650   9.642  1.00  0.00    -0.350 OA
HETATM    3  C14 UNL     1      28.977  -1.994   9.359  1.00  0.00     0.292 C 
HETATM    4  C20 UNL     1      27.509  -2.060   9.062  1.00  0.00     0.204 C 
HETATM    5  C21 UNL     1      27.316  -1.386   7.721  1.00  0.00     0.183 C 
HETATM    6  C22 UNL     1      28.328  -0.342   7.413  1.00  0.00     0.178 C 
ENDROOT
BRANCH   3   7
HETATM    7  O2  UNL     1      29.424  -2.849  10.321  1.00  0.00    -0.346 OA
BRANCH   7   8
HETATM    8  C15 UNL     1      30.283  -2.327  11.256  1.00  0.00     0.211 C 
HETATM    9  C16 UNL     1      31.350  -3.373  11.510  1.00  0.00     0.288 C 
HETATM   10  O4  UNL     1      30.814  -4.389  12.289  1.00  0.00    -0.356 OA
HETATM   11  C17 UNL     1      30.637  -4.010  13.615  1.00  0.00     0.205 C 
HETATM   12  C18 UNL     1      30.308  -2.539  13.754  1.00  0.00     0.173 C 
HETATM   13  C19 UNL     1      29.557  -2.020  12.547  1.00  0.00     0.182 C 
BRANCH   9  14
HETATM   14  O3  UNL     1      32.507  -2.832  12.034  1.00  0.00    -0.369 OA
ATOM     15  H3  UNL     1      32.377  -1.955  12.377  1.00  0.00     0.212 HD
ENDBRANCH   9  14
BRANCH  12  16
HETATM   16  O5  UNL     1      29.472  -2.349  14.858  1.00  0.00    -0.391 OA
ATOM     17  H5  UNL     1      29.092  -1.479  14.823  1.00  0.00     0.210 HD
ENDBRANCH  12  16
BRANCH  13  18
HETATM   18  O6  UNL     1      29.399  -0.640  12.741  1.00  0.00    -0.390 OA
ATOM     19  H6  UNL     1      29.792  -0.352  13.557  1.00  0.00     0.210 HD
ENDBRANCH  13  18
ENDBRANCH   7   8
ENDBRANCH   3   7
BRANCH   4  20
HETATM   20  O7  UNL     1      26.864  -1.240   9.998  1.00  0.00    -0.388 OA
ATOM     21  H7  UNL     1      25.931  -1.398   9.911  1.00  0.00     0.210 HD
ENDBRANCH   4  20
BRANCH   1  22
HETATM   22  C12 UNL     1      28.731   1.533   8.904  1.00  0.00     0.021 C 
HETATM   23  C8  UNL     1      29.818   2.541   8.804  1.00  0.00    -0.008 C 
HETATM   24  C9  UNL     1      29.047   3.834   8.704  1.00  0.00     0.005 C 
HETATM   25  C10 UNL     1      27.867   3.534   7.818  1.00  0.00     0.001 C 
HETATM   26  C11 UNL     1      27.650   2.049   7.980  1.00  0.00     0.007 C 
BRANCH  23  27
HETATM   27  C7  UNL     1      30.750   2.325   7.649  1.00  0.00     0.005 C 
BRANCH  27  28
HETATM   28  C6  UNL     1      31.170   3.573   6.961  1.00  0.00     0.000 C 
BRANCH  28  29
HETATM   29  C5  UNL     1      30.789   3.606   5.513  1.00  0.00     0.000 C 
BRANCH  29  30
HETATM   30  C4  UNL     1      30.180   2.311   5.050  1.00  0.00     0.000 C 
BRANCH  30  31
HETATM   31  C3  UNL     1      28.815   2.512   4.428  1.00  0.00    -0.000 C 
BRANCH  31  32
HETATM   32  C2  UNL     1      28.584   1.410   3.418  1.00  0.00    -0.005 C 
HETATM   33  C1  UNL     1      27.333   0.637   3.671  1.00  0.00     0.005 C 
ENDBRANCH  31  32
ENDBRANCH  30  31
ENDBRANCH  29  30
ENDBRANCH  28  29
ENDBRANCH  27  28
ENDBRANCH  23  27
ENDBRANCH   1  22
BRANCH   5  34
HETATM   34  O8  UNL     1      27.293  -2.391   6.750  1.00  0.00    -0.390 OA
ATOM     35  H8  UNL     1      28.116  -2.860   6.809  1.00  0.00     0.210 HD
ENDBRANCH   5  34
BRANCH   6  36
HETATM   36  O9  UNL     1      29.163  -0.862   6.393  1.00  0.00    -0.390 OA
ATOM     37  H9  UNL     1      29.873  -0.248   6.245  1.00  0.00     0.210 HD
ENDBRANCH   6  36
TORSDOF 15
ENDMDL
