MODEL 1
REMARK VINA RESULT: -6.982460222      0.000      0.000
REMARK  8 active torsions:
REMARK  status: ('A' for Active; 'I' for Inactive)
REMARK    1  A    between atoms: C13_13  and  C14_15 
REMARK    2  A    between atoms: C14_15  and  O1_17 
REMARK    3  A    between atoms: C14_15  and  C16_19 
REMARK    4  A    between atoms: C16_19  and  C17_20 
REMARK    5  A    between atoms: C17_20  and  C18_21 
REMARK    6  A    between atoms: C19_22  and  O2_24 
REMARK    7  A    between atoms: C21_26  and  O3_27 
REMARK    8  A    between atoms: O3_27  and  C22_28 
ROOT
HETATM    1  C1  UNL     1      10.556  34.827  76.096  1.00  0.00     0.017 C 
HETATM    2  C2  UNL     1       9.317  34.445  75.959  1.00  0.00    -0.056 C 
HETATM    3  C3  UNL     1       8.839  33.061  75.845  1.00  0.00     0.042 C 
HETATM    4  C4  UNL     1       7.827  32.828  76.918  1.00  0.00     0.009 C 
HETATM    5  C5  UNL     1       7.389  31.392  76.951  1.00  0.00    -0.043 C 
HETATM    6  C6  UNL     1       6.687  30.880  75.754  1.00  0.00     0.015 C 
HETATM    7  C7  UNL     1       8.716  30.601  77.018  1.00  0.00     0.015 C 
HETATM    8  C8  UNL     1       6.653  31.025  78.187  1.00  0.00     0.009 C 
HETATM    9  C9  UNL     1       6.297  32.292  78.920  1.00  0.00     0.002 C 
HETATM   10  C10 UNL     1       5.734  33.333  77.929  1.00  0.00     0.013 C 
HETATM   11  C11 UNL     1       6.679  33.834  76.953  1.00  0.00     0.003 C 
HETATM   12  C12 UNL     1       6.031  33.906  75.549  1.00  0.00     0.019 C 
HETATM   13  C13 UNL     1       7.300  35.220  77.103  1.00  0.00     0.171 C 
HETATM   14  F1  UNL     1       8.300  34.950  78.117  1.00  0.00    -0.236 F 
HETATM   15  C21 UNL     1       8.151  35.478  75.901  1.00  0.00     0.203 C 
ENDROOT
BRANCH  13  16
HETATM   16  C14 UNL     1       6.488  36.298  77.665  1.00  0.00     0.094 C 
HETATM   17  C15 UNL     1       7.287  37.156  78.692  1.00  0.00     0.049 C 
BRANCH  16  18
HETATM   18  O1  UNL     1       5.882  37.195  76.843  1.00  0.00    -0.387 OA
ATOM     19  H1  UNL     1       6.232  38.074  76.757  1.00  0.00     0.210 HD
ENDBRANCH  16  18
BRANCH  16  20
HETATM   20  C16 UNL     1       5.432  35.732  78.630  1.00  0.00     0.044 C 
BRANCH  20  21
HETATM   21  C17 UNL     1       4.993  36.636  79.725  1.00  0.00     0.032 C 
BRANCH  21  22
HETATM   22  C18 UNL     1       3.625  37.183  79.560  1.00  0.00     0.005 C 
HETATM   23  C19 UNL     1       3.361  38.412  79.231  1.00  0.00     0.035 C 
HETATM   24  C20 UNL     1       4.404  39.418  78.984  1.00  0.00     0.075 C 
BRANCH  23  25
HETATM   25  O2  UNL     1       2.027  38.804  79.105  1.00  0.00    -0.366 OA
ATOM     26  H2  UNL     1       1.501  38.423  78.412  1.00  0.00     0.217 HD
ENDBRANCH  23  25
ENDBRANCH  21  22
ENDBRANCH  20  21
ENDBRANCH  16  20
ENDBRANCH  13  16
BRANCH  15  27
HETATM   27  O3  UNL     1       8.768  36.696  75.860  1.00  0.00    -0.308 OA
BRANCH  27  28
HETATM   28  C22 UNL     1       8.643  37.599  74.784  1.00  0.00     0.255 C 
HETATM   29  C23 UNL     1       9.837  38.234  74.186  1.00  0.00     0.126 C 
HETATM   30  O4  UNL     1       7.463  37.801  74.401  1.00  0.00    -0.266 OA
ENDBRANCH  27  28
ENDBRANCH  15  27
TORSDOF 8
ENDMDL
MODEL 2
REMARK VINA RESULT: -6.975130116      2.600      4.381
REMARK  8 active torsions:
REMARK  status: ('A' for Active; 'I' for Inactive)
REMARK    1  A    between atoms: C13_13  and  C14_15 
REMARK    2  A    between atoms: C14_15  and  O1_17 
REMARK    3  A    between atoms: C14_15  and  C16_19 
REMARK    4  A    between atoms: C16_19  and  C17_20 
REMARK    5  A    between atoms: C17_20  and  C18_21 
REMARK    6  A    between atoms: C19_22  and  O2_24 
REMARK    7  A    between atoms: C21_26  and  O3_27 
REMARK    8  A    between atoms: O3_27  and  C22_28 
ROOT
HETATM    1  C1  UNL     1       6.939  32.160  80.572  1.00  0.00     0.017 C 
HETATM    2  C2  UNL     1       7.519  33.026  79.789  1.00  0.00    -0.056 C 
HETATM    3  C3  UNL     1       8.203  32.735  78.522  1.00  0.00     0.042 C 
HETATM    4  C4  UNL     1       7.578  33.568  77.453  1.00  0.00     0.009 C 
HETATM    5  C5  UNL     1       8.135  33.227  76.101  1.00  0.00    -0.043 C 
HETATM    6  C6  UNL     1       9.575  33.489  75.887  1.00  0.00     0.015 C 
HETATM    7  C7  UNL     1       7.979  31.691  76.012  1.00  0.00     0.015 C 
HETATM    8  C8  UNL     1       7.331  33.767  74.975  1.00  0.00     0.009 C 
HETATM    9  C9  UNL     1       6.347  34.762  75.531  1.00  0.00     0.002 C 
HETATM   10  C10 UNL     1       7.054  35.698  76.534  1.00  0.00     0.013 C 
HETATM   11  C11 UNL     1       7.523  35.065  77.749  1.00  0.00     0.003 C 
HETATM   12  C12 UNL     1       8.945  35.558  78.111  1.00  0.00     0.019 C 
HETATM   13  C13 UNL     1       6.767  35.236  79.064  1.00  0.00     0.171 C 
HETATM   14  F1  UNL     1       5.669  34.312  78.856  1.00  0.00    -0.236 F 
HETATM   15  C21 UNL     1       7.545  34.545  80.137  1.00  0.00     0.203 C 
ENDROOT
BRANCH  13  16
HETATM   16  C14 UNL     1       6.120  36.517  79.342  1.00  0.00     0.094 C 
HETATM   17  C15 UNL     1       4.692  36.333  79.939  1.00  0.00     0.049 C 
BRANCH  16  18
HETATM   18  O1  UNL     1       6.730  37.428  80.146  1.00  0.00    -0.387 OA
ATOM     19  H1  UNL     1       6.795  38.336  79.875  1.00  0.00     0.210 HD
ENDBRANCH  16  18
BRANCH  16  20
HETATM   20  C16 UNL     1       5.720  37.217  78.032  1.00  0.00     0.044 C 
BRANCH  20  21
HETATM   21  C17 UNL     1       4.555  38.136  78.109  1.00  0.00     0.032 C 
BRANCH  21  22
HETATM   22  C18 UNL     1       4.910  39.575  78.176  1.00  0.00     0.005 C 
HETATM   23  C19 UNL     1       4.236  40.465  78.839  1.00  0.00     0.035 C 
HETATM   24  C20 UNL     1       3.026  40.147  79.610  1.00  0.00     0.075 C 
BRANCH  23  25
HETATM   25  O2  UNL     1       4.677  41.791  78.825  1.00  0.00    -0.366 OA
ATOM     26  H2  UNL     1       4.230  42.415  78.265  1.00  0.00     0.217 HD
ENDBRANCH  23  25
ENDBRANCH  21  22
ENDBRANCH  20  21
ENDBRANCH  16  20
ENDBRANCH  13  16
BRANCH  15  27
HETATM   27  O3  UNL     1       7.018  34.621  81.395  1.00  0.00    -0.308 OA
BRANCH  27  28
HETATM   28  C22 UNL     1       7.741  35.071  82.519  1.00  0.00     0.255 C 
HETATM   29  C23 UNL     1       7.528  34.464  83.850  1.00  0.00     0.126 C 
HETATM   30  O4  UNL     1       8.552  36.003  82.284  1.00  0.00    -0.266 OA
ENDBRANCH  27  28
ENDBRANCH  15  27
TORSDOF 8
ENDMDL
MODEL 3
REMARK VINA RESULT: -6.929126449      2.442      5.184
REMARK  8 active torsions:
REMARK  status: ('A' for Active; 'I' for Inactive)
REMARK    1  A    between atoms: C13_13  and  C14_15 
REMARK    2  A    between atoms: C14_15  and  O1_17 
REMARK    3  A    between atoms: C14_15  and  C16_19 
REMARK    4  A    between atoms: C16_19  and  C17_20 
REMARK    5  A    between atoms: C17_20  and  C18_21 
REMARK    6  A    between atoms: C19_22  and  O2_24 
REMARK    7  A    between atoms: C21_26  and  O3_27 
REMARK    8  A    between atoms: O3_27  and  C22_28 
ROOT
HETATM    1  C1  UNL     1       4.107  32.899  78.825  1.00  0.00     0.017 C 
HETATM    2  C2  UNL     1       5.296  32.553  78.419  1.00  0.00    -0.056 C 
HETATM    3  C3  UNL     1       5.613  31.481  77.466  1.00  0.00     0.042 C 
HETATM    4  C4  UNL     1       6.410  32.071  76.349  1.00  0.00     0.009 C 
HETATM    5  C5  UNL     1       6.659  31.062  75.265  1.00  0.00    -0.043 C 
HETATM    6  C6  UNL     1       7.471  29.880  75.627  1.00  0.00     0.015 C 
HETATM    7  C7  UNL     1       5.251  30.509  74.943  1.00  0.00     0.015 C 
HETATM    8  C8  UNL     1       7.142  31.662  73.996  1.00  0.00     0.009 C 
HETATM    9  C9  UNL     1       7.531  33.092  74.267  1.00  0.00     0.002 C 
HETATM   10  C10 UNL     1       8.365  33.174  75.563  1.00  0.00     0.013 C 
HETATM   11  C11 UNL     1       7.653  32.846  76.781  1.00  0.00     0.003 C 
HETATM   12  C12 UNL     1       8.516  31.943  77.695  1.00  0.00     0.019 C 
HETATM   13  C13 UNL     1       7.189  33.941  77.737  1.00  0.00     0.171 C 
HETATM   14  F1  UNL     1       6.018  34.425  77.033  1.00  0.00    -0.236 F 
HETATM   15  C21 UNL     1       6.574  33.283  78.931  1.00  0.00     0.203 C 
ENDROOT
BRANCH  13  16
HETATM   16  C14 UNL     1       8.029  35.126  77.910  1.00  0.00     0.094 C 
HETATM   17  C15 UNL     1       7.201  36.366  78.365  1.00  0.00     0.049 C 
BRANCH  16  18
HETATM   18  O1  UNL     1       9.101  35.085  78.744  1.00  0.00    -0.387 OA
ATOM     19  H1  UNL     1       9.411  34.253  79.081  1.00  0.00     0.210 HD
ENDBRANCH  16  18
BRANCH  16  20
HETATM   20  C16 UNL     1       8.494  35.663  76.546  1.00  0.00     0.044 C 
BRANCH  20  21
HETATM   21  C17 UNL     1       8.304  37.119  76.315  1.00  0.00     0.032 C 
BRANCH  21  22
HETATM   22  C18 UNL     1       7.932  37.478  74.926  1.00  0.00     0.005 C 
HETATM   23  C19 UNL     1       8.751  37.990  74.057  1.00  0.00     0.035 C 
HETATM   24  C20 UNL     1      10.161  38.278  74.356  1.00  0.00     0.075 C 
BRANCH  23  25
HETATM   25  O2  UNL     1       8.278  38.283  72.776  1.00  0.00    -0.366 OA
ATOM     26  H2  UNL     1       8.374  37.631  72.092  1.00  0.00     0.217 HD
ENDBRANCH  23  25
ENDBRANCH  21  22
ENDBRANCH  20  21
ENDBRANCH  16  20
ENDBRANCH  13  16
BRANCH  15  27
HETATM   27  O3  UNL     1       6.124  34.125  79.908  1.00  0.00    -0.308 OA
BRANCH  27  28
HETATM   28  C22 UNL     1       6.663  34.170  81.210  1.00  0.00     0.255 C 
HETATM   29  C23 UNL     1       5.798  34.432  82.379  1.00  0.00     0.126 C 
HETATM   30  O4  UNL     1       7.903  33.971  81.273  1.00  0.00    -0.266 OA
ENDBRANCH  27  28
ENDBRANCH  15  27
TORSDOF 8
ENDMDL
MODEL 4
REMARK VINA RESULT: -6.865991950      2.399      5.163
REMARK  8 active torsions:
REMARK  status: ('A' for Active; 'I' for Inactive)
REMARK    1  A    between atoms: C13_13  and  C14_15 
REMARK    2  A    between atoms: C14_15  and  O1_17 
REMARK    3  A    between atoms: C14_15  and  C16_19 
REMARK    4  A    between atoms: C16_19  and  C17_20 
REMARK    5  A    between atoms: C17_20  and  C18_21 
REMARK    6  A    between atoms: C19_22  and  O2_24 
REMARK    7  A    between atoms: C21_26  and  O3_27 
REMARK    8  A    between atoms: O3_27  and  C22_28 
ROOT
HETATM    1  C1  UNL     1       4.576  33.363  80.238  1.00  0.00     0.017 C 
HETATM    2  C2  UNL     1       5.648  33.040  79.570  1.00  0.00    -0.056 C 
HETATM    3  C3  UNL     1       5.782  31.927  78.622  1.00  0.00     0.042 C 
HETATM    4  C4  UNL     1       6.252  32.480  77.317  1.00  0.00     0.009 C 
HETATM    5  C5  UNL     1       6.284  31.419  76.255  1.00  0.00    -0.043 C 
HETATM    6  C6  UNL     1       7.223  30.295  76.464  1.00  0.00     0.015 C 
HETATM    7  C7  UNL     1       4.873  30.791  76.315  1.00  0.00     0.015 C 
HETATM    8  C8  UNL     1       6.413  31.960  74.878  1.00  0.00     0.009 C 
HETATM    9  C9  UNL     1       6.778  33.418  74.976  1.00  0.00     0.002 C 
HETATM   10  C10 UNL     1       7.895  33.612  76.023  1.00  0.00     0.013 C 
HETATM   11  C11 UNL     1       7.518  33.330  77.392  1.00  0.00     0.003 C 
HETATM   12  C12 UNL     1       8.624  32.520  78.111  1.00  0.00     0.019 C 
HETATM   13  C13 UNL     1       7.241  34.461  78.379  1.00  0.00     0.171 C 
HETATM   14  F1  UNL     1       5.910  34.853  77.960  1.00  0.00    -0.236 F 
HETATM   15  C21 UNL     1       6.971  33.852  79.717  1.00  0.00     0.203 C 
ENDROOT
BRANCH  13  16
HETATM   16  C14 UNL     1       8.033  35.687  78.283  1.00  0.00     0.094 C 
HETATM   17  C15 UNL     1       7.153  36.964  78.443  1.00  0.00     0.049 C 
BRANCH  16  18
HETATM   18  O1  UNL     1       9.095  35.879  79.109  1.00  0.00    -0.387 OA
ATOM     19  H1  UNL     1       9.316  36.754  79.406  1.00  0.00     0.210 HD
ENDBRANCH  16  18
BRANCH  16  20
HETATM   20  C16 UNL     1       8.495  35.921  76.835  1.00  0.00     0.044 C 
BRANCH  20  21
HETATM   21  C17 UNL     1       8.519  37.333  76.374  1.00  0.00     0.032 C 
BRANCH  21  22
HETATM   22  C18 UNL     1       8.049  37.535  74.982  1.00  0.00     0.005 C 
HETATM   23  C19 UNL     1       8.758  38.083  74.042  1.00  0.00     0.035 C 
HETATM   24  C20 UNL     1      10.127  38.576  74.252  1.00  0.00     0.075 C 
BRANCH  23  25
HETATM   25  O2  UNL     1       8.201  38.214  72.768  1.00  0.00    -0.366 OA
ATOM     26  H2  UNL     1       7.407  38.725  72.666  1.00  0.00     0.217 HD
ENDBRANCH  23  25
ENDBRANCH  21  22
ENDBRANCH  20  21
ENDBRANCH  16  20
ENDBRANCH  13  16
BRANCH  15  27
HETATM   27  O3  UNL     1       6.726  34.732  80.732  1.00  0.00    -0.308 OA
BRANCH  27  28
HETATM   28  C22 UNL     1       7.518  34.823  81.895  1.00  0.00     0.255 C 
HETATM   29  C23 UNL     1       7.469  33.768  82.930  1.00  0.00     0.126 C 
HETATM   30  O4  UNL     1       8.240  35.851  81.961  1.00  0.00    -0.266 OA
ENDBRANCH  27  28
ENDBRANCH  15  27
TORSDOF 8
ENDMDL
MODEL 5
REMARK VINA RESULT: -6.797656634      0.905      1.035
REMARK  8 active torsions:
REMARK  status: ('A' for Active; 'I' for Inactive)
REMARK    1  A    between atoms: C13_13  and  C14_15 
REMARK    2  A    between atoms: C14_15  and  O1_17 
REMARK    3  A    between atoms: C14_15  and  C16_19 
REMARK    4  A    between atoms: C16_19  and  C17_20 
REMARK    5  A    between atoms: C17_20  and  C18_21 
REMARK    6  A    between atoms: C19_22  and  O2_24 
REMARK    7  A    between atoms: C21_26  and  O3_27 
REMARK    8  A    between atoms: O3_27  and  C22_28 
ROOT
HETATM    1  C1  UNL     1      10.625  34.612  75.689  1.00  0.00     0.017 C 
HETATM    2  C2  UNL     1       9.358  34.323  75.796  1.00  0.00    -0.056 C 
HETATM    3  C3  UNL     1       8.752  32.994  75.648  1.00  0.00     0.042 C 
HETATM    4  C4  UNL     1       7.980  32.693  76.890  1.00  0.00     0.009 C 
HETATM    5  C5  UNL     1       7.441  31.292  76.871  1.00  0.00    -0.043 C 
HETATM    6  C6  UNL     1       6.455  30.971  75.815  1.00  0.00     0.015 C 
HETATM    7  C7  UNL     1       8.679  30.422  76.554  1.00  0.00     0.015 C 
HETATM    8  C8  UNL     1       6.962  30.821  78.195  1.00  0.00     0.009 C 
HETATM    9  C9  UNL     1       6.883  32.009  79.118  1.00  0.00     0.002 C 
HETATM   10  C10 UNL     1       6.207  33.194  78.394  1.00  0.00     0.013 C 
HETATM   11  C11 UNL     1       6.956  33.753  77.288  1.00  0.00     0.003 C 
HETATM   12  C12 UNL     1       6.028  34.032  76.082  1.00  0.00     0.019 C 
HETATM   13  C13 UNL     1       7.710  35.071  77.439  1.00  0.00     0.171 C 
HETATM   14  F1  UNL     1       8.880  34.622  78.168  1.00  0.00    -0.236 F 
HETATM   15  C21 UNL     1       8.299  35.422  76.110  1.00  0.00     0.203 C 
ENDROOT
BRANCH  13  16
HETATM   16  C14 UNL     1       7.134  36.120  78.280  1.00  0.00     0.094 C 
HETATM   17  C15 UNL     1       6.455  35.537  79.556  1.00  0.00     0.049 C 
BRANCH  16  18
HETATM   18  O1  UNL     1       7.911  37.142  78.724  1.00  0.00    -0.387 OA
ATOM     19  H1  UNL     1       7.999  37.305  79.656  1.00  0.00     0.210 HD
ENDBRANCH  16  18
BRANCH  16  20
HETATM   20  C16 UNL     1       5.879  36.715  77.618  1.00  0.00     0.044 C 
BRANCH  20  21
HETATM   21  C17 UNL     1       5.531  38.106  78.006  1.00  0.00     0.032 C 
BRANCH  21  22
HETATM   22  C18 UNL     1       4.102  38.310  78.347  1.00  0.00     0.005 C 
HETATM   23  C19 UNL     1       3.611  39.420  78.811  1.00  0.00     0.035 C 
HETATM   24  C20 UNL     1       4.426  40.618  79.056  1.00  0.00     0.075 C 
BRANCH  23  25
HETATM   25  O2  UNL     1       2.244  39.485  79.092  1.00  0.00    -0.366 OA
ATOM     26  H2  UNL     1       1.965  39.843  79.927  1.00  0.00     0.217 HD
ENDBRANCH  23  25
ENDBRANCH  21  22
ENDBRANCH  20  21
ENDBRANCH  16  20
ENDBRANCH  13  16
BRANCH  15  27
HETATM   27  O3  UNL     1       8.993  36.598  76.059  1.00  0.00    -0.308 OA
BRANCH  27  28
HETATM   28  C22 UNL     1       8.739  37.614  75.116  1.00  0.00     0.255 C 
HETATM   29  C23 UNL     1       9.849  38.272  74.393  1.00  0.00     0.126 C 
HETATM   30  O4  UNL     1       7.524  37.893  74.957  1.00  0.00    -0.266 OA
ENDBRANCH  27  28
ENDBRANCH  15  27
TORSDOF 8
ENDMDL
