MODEL 1
REMARK VINA RESULT: -10.389769268      0.000      0.000
REMARK  12 active torsions:
REMARK  status: ('A' for Active; 'I' for Inactive)
REMARK    1  A    between atoms: C4_8  and  C5_9 
REMARK    2  A    between atoms: C5_9  and  N3_10 
REMARK    3  A    between atoms: N3_10  and  C6_11 
REMARK       I    between atoms: N3_10  and  C20_54 
REMARK    4  A    between atoms: C7_12  and  C8_13 
REMARK    5  A    between atoms: C8_13  and  N5_17 
REMARK    6  A    between atoms: N5_17  and  S1_19 
REMARK    7  A    between atoms: S1_19  and  C9_22 
REMARK    8  A    between atoms: C10_23  and  C11_24 
REMARK    9  A    between atoms: C12_29  and  C13_30 
REMARK   10  A    between atoms: C13_30  and  N8_31 
REMARK   11  A    between atoms: C20_54  and  C21_56 
REMARK   12  A    between atoms: C22_62  and  N18_63 
ROOT
HETATM    1  S1  UNL     1      17.235  -6.394  -2.859  1.00  0.00     0.266 S 
HETATM    2  O1  UNL     1      16.083  -7.406  -2.441  1.00  0.00    -0.200 OA
HETATM    3  O2  UNL     1      18.338  -7.382  -2.409  1.00  0.00    -0.200 OA
ENDROOT
BRANCH   1   4
HETATM    4  N5  UNL     1      16.986  -5.136  -1.845  1.00  0.00    -0.266 N 
ATOM      5  H5  UNL     1      16.112  -4.622  -1.959  1.00  0.00     0.180 HD
BRANCH   4   6
HETATM    6  C8  UNL     1      17.892  -4.671  -0.786  1.00  0.00     0.109 C 
HETATM    7  N4  UNL     1      19.033  -5.174  -0.815  1.00  0.00    -0.385 N 
ATOM      8  H42 UNL     1      19.662  -4.851  -0.080  1.00  0.00     0.157 HD
ATOM      9  H41 UNL     1      19.450  -5.871  -1.432  1.00  0.00     0.157 HD
BRANCH   6  10
HETATM   10  C7  UNL     1      17.308  -3.695   0.078  1.00  0.00     0.066 C 
HETATM   11  C6  UNL     1      17.663  -2.398   0.513  1.00  0.00     0.098 C 
BRANCH  11  12
HETATM   12  N3  UNL     1      17.788  -1.271  -0.383  1.00  0.00    -0.317 N 
HETATM   13  C20 UNL     1      18.703  -0.241  -0.059  1.00  0.00     0.280 C 
HETATM   14  O5  UNL     1      19.458  -0.352   0.969  1.00  0.00    -0.265 OA
BRANCH  12  15
HETATM   15  C5  UNL     1      16.877  -1.208  -1.540  1.00  0.00     0.190 C 
BRANCH  15  16
HETATM   16  C4  UNL     1      15.627  -0.551  -1.171  1.00  0.00     0.051 A 
HETATM   17  C2  UNL     1      14.820   0.174  -2.077  1.00  0.00     0.030 A 
HETATM   18  C1  UNL     1      15.146   0.409  -3.486  1.00  0.00     0.070 C 
HETATM   19  N1  UNL     1      13.758   0.586  -1.381  1.00  0.00    -0.354 N 
HETATM   20  C3  UNL     1      13.848   0.170  -0.118  1.00  0.00     0.180 A 
ATOM     21  H1  UNL     1      12.989   1.138  -1.761  1.00  0.00     0.166 HD
HETATM   22  N2  UNL     1      15.000  -0.532   0.013  1.00  0.00    -0.353 N 
ATOM     23  H2  UNL     1      15.334  -0.972   0.869  1.00  0.00     0.166 HD
ENDBRANCH  15  16
ENDBRANCH  12  15
BRANCH  13  24
HETATM   24  C21 UNL     1      18.831   0.962  -0.844  1.00  0.00     0.169 A 
HETATM   25  N16 UNL     1      17.887   1.739  -1.447  1.00  0.00    -0.233 N 
HETATM   26  O6  UNL     1      18.425   2.736  -2.027  1.00  0.00    -0.155 OA
ATOM     27  H16 UNL     1      16.885   1.547  -1.434  1.00  0.00     0.197 HD
HETATM   28  N17 UNL     1      19.683   2.717  -1.876  1.00  0.00    -0.224 N 
HETATM   29  C22 UNL     1      20.010   1.616  -1.136  1.00  0.00     0.155 A 
ATOM     30  H17 UNL     1      20.339   3.406  -2.245  1.00  0.00     0.198 HD
BRANCH  29  31
HETATM   31  N18 UNL     1      21.224   1.358  -0.841  1.00  0.00    -0.382 N 
ATOM     32 2H18 UNL     1      21.500   0.433  -0.513  1.00  0.00     0.157 HD
ATOM     33 1H18 UNL     1      22.068   1.932  -0.861  1.00  0.00     0.157 HD
ENDBRANCH  29  31
ENDBRANCH  13  24
ENDBRANCH  11  12
ENDBRANCH   6  10
ENDBRANCH   4   6
ENDBRANCH   1   4
BRANCH   1  34
HETATM   34  C9  UNL     1      17.023  -6.309  -4.566  1.00  0.00     0.112 A 
HETATM   35  C10 UNL     1      15.838  -6.688  -5.161  1.00  0.00     0.041 A 
HETATM   36  C14 UNL     1      15.709  -6.920  -6.555  1.00  0.00     0.020 A 
HETATM   37  C15 UNL     1      16.815  -6.749  -7.329  1.00  0.00     0.032 A 
HETATM   38  C16 UNL     1      18.008  -6.360  -6.768  1.00  0.00     0.066 A 
HETATM   39  N13 UNL     1      19.057  -6.168  -7.569  1.00  0.00    -0.191 N 
HETATM   40  C19 UNL     1      18.153  -6.127  -5.379  1.00  0.00     0.084 A 
HETATM   41  C17 UNL     1      20.285  -5.742  -7.116  1.00  0.00     0.679 A 
ATOM     42  H13 UNL     1      18.943  -6.346  -8.567  1.00  0.00     0.184 HD
HETATM   43  N14 UNL     1      21.251  -5.667  -7.921  1.00  0.00    -0.234 N 
HETATM   44  N15 UNL     1      20.389  -5.519  -5.790  1.00  0.00    -0.156 N 
ATOM     45 2H14 UNL     1      21.173  -5.836  -8.924  1.00  0.00     0.174 HD
ATOM     46 1H14 UNL     1      22.161  -5.350  -7.586  1.00  0.00     0.174 HD
HETATM   47  C18 UNL     1      19.359  -5.698  -4.919  1.00  0.00     0.273 A 
ATOM     48  H15 UNL     1      21.284  -5.199  -5.421  1.00  0.00     0.187 HD
HETATM   49  O4  UNL     1      19.573  -5.457  -3.743  1.00  0.00    -0.267 OA
BRANCH  35  50
HETATM   50  C11 UNL     1      14.573  -6.657  -4.434  1.00  0.00     0.176 A 
HETATM   51  N6  UNL     1      14.191  -5.750  -3.508  1.00  0.00    -0.277 N 
HETATM   52  N7  UNL     1      13.000  -6.076  -3.096  1.00  0.00    -0.280 N 
ATOM     53  H6  UNL     1      14.739  -4.951  -3.188  1.00  0.00     0.189 HD
HETATM   54  C12 UNL     1      12.596  -7.167  -3.727  1.00  0.00     0.162 A 
ATOM     55  H7  UNL     1      12.461  -5.568  -2.394  1.00  0.00     0.189 HD
HETATM   56  O3  UNL     1      13.589  -7.478  -4.531  1.00  0.00    -0.276 OA
BRANCH  54  57
HETATM   57  C13 UNL     1      11.303  -7.931  -3.602  1.00  0.00     0.258 C 
BRANCH  57  58
HETATM   58  N8  UNL     1      10.578  -7.806  -4.868  1.00  0.00    -0.198 N 
HETATM   59  N9  UNL     1       9.368  -8.253  -5.124  1.00  0.00    -0.207 N 
HETATM   60  N10 UNL     1       9.059  -7.949  -6.385  1.00  0.00     0.012 NA
ATOM     61  H9  UNL     1       8.766  -8.750  -4.467  1.00  0.00     0.207 HD
HETATM   62  N11 UNL     1      10.121  -7.304  -6.883  1.00  0.00    -0.209 N 
HETATM   63  N12 UNL     1      11.025  -7.231  -5.952  1.00  0.00    -0.212 N 
ATOM     64  H11 UNL     1      10.206  -6.934  -7.830  1.00  0.00     0.207 HD
ATOM     65  H12 UNL     1      11.941  -6.793  -6.052  1.00  0.00     0.211 HD
ENDBRANCH  57  58
ENDBRANCH  54  57
ENDBRANCH  35  50
ENDBRANCH   1  34
TORSDOF 12
ENDMDL
MODEL 2
REMARK VINA RESULT: -10.228895705      1.809      6.134
REMARK  12 active torsions:
REMARK  status: ('A' for Active; 'I' for Inactive)
REMARK    1  A    between atoms: C4_8  and  C5_9 
REMARK    2  A    between atoms: C5_9  and  N3_10 
REMARK    3  A    between atoms: N3_10  and  C6_11 
REMARK       I    between atoms: N3_10  and  C20_54 
REMARK    4  A    between atoms: C7_12  and  C8_13 
REMARK    5  A    between atoms: C8_13  and  N5_17 
REMARK    6  A    between atoms: N5_17  and  S1_19 
REMARK    7  A    between atoms: S1_19  and  C9_22 
REMARK    8  A    between atoms: C10_23  and  C11_24 
REMARK    9  A    between atoms: C12_29  and  C13_30 
REMARK   10  A    between atoms: C13_30  and  N8_31 
REMARK   11  A    between atoms: C20_54  and  C21_56 
REMARK   12  A    between atoms: C22_62  and  N18_63 
ROOT
HETATM    1  S1  UNL     1      16.493  -5.980  -2.360  1.00  0.00     0.266 S 
HETATM    2  O1  UNL     1      16.367  -7.225  -1.381  1.00  0.00    -0.200 OA
HETATM    3  O2  UNL     1      18.037  -6.082  -2.376  1.00  0.00    -0.200 OA
ENDROOT
BRANCH   1   4
HETATM    4  N5  UNL     1      15.896  -4.757  -1.455  1.00  0.00    -0.266 N 
ATOM      5  H5  UNL     1      15.264  -4.107  -1.922  1.00  0.00     0.180 HD
BRANCH   4   6
HETATM    6  C8  UNL     1      16.178  -4.497  -0.036  1.00  0.00     0.109 C 
HETATM    7  N4  UNL     1      15.348  -4.979   0.759  1.00  0.00    -0.385 N 
ATOM      8  H42 UNL     1      15.543  -4.799   1.744  1.00  0.00     0.157 HD
ATOM      9  H41 UNL     1      14.490  -5.508   0.604  1.00  0.00     0.157 HD
BRANCH   6  10
HETATM   10  C7  UNL     1      17.380  -3.755   0.181  1.00  0.00     0.066 C 
HETATM   11  C6  UNL     1      17.995  -2.640  -0.430  1.00  0.00     0.098 C 
BRANCH  11  12
HETATM   12  N3  UNL     1      17.398  -1.324  -0.456  1.00  0.00    -0.317 N 
HETATM   13  C20 UNL     1      16.408  -1.043  -1.428  1.00  0.00     0.280 C 
HETATM   14  O5  UNL     1      15.999  -1.967  -2.214  1.00  0.00    -0.265 OA
BRANCH  12  15
HETATM   15  C5  UNL     1      17.929  -0.310   0.472  1.00  0.00     0.190 C 
BRANCH  15  16
HETATM   16  C4  UNL     1      19.000   0.453  -0.162  1.00  0.00     0.051 A 
HETATM   17  C2  UNL     1      19.029   1.864  -0.230  1.00  0.00     0.030 A 
HETATM   18  C1  UNL     1      17.975   2.749   0.274  1.00  0.00     0.070 C 
HETATM   19  N1  UNL     1      20.170   2.183  -0.844  1.00  0.00    -0.354 N 
HETATM   20  C3  UNL     1      20.847   1.079  -1.159  1.00  0.00     0.180 A 
ATOM     21  H1  UNL     1      20.480   3.134  -1.044  1.00  0.00     0.166 HD
HETATM   22  N2  UNL     1      20.126   0.011  -0.737  1.00  0.00    -0.353 N 
ATOM     23  H2  UNL     1      20.397  -0.967  -0.840  1.00  0.00     0.166 HD
ENDBRANCH  15  16
ENDBRANCH  12  15
BRANCH  13  24
HETATM   24  C21 UNL     1      15.823   0.265  -1.588  1.00  0.00     0.169 A 
HETATM   25  N16 UNL     1      16.195   1.320  -2.367  1.00  0.00    -0.233 N 
HETATM   26  O6  UNL     1      15.384   2.291  -2.228  1.00  0.00    -0.155 OA
ATOM     27  H16 UNL     1      17.012   1.330  -2.977  1.00  0.00     0.197 HD
HETATM   28  N17 UNL     1      14.466   1.996  -1.407  1.00  0.00    -0.224 N 
HETATM   29  C22 UNL     1      14.683   0.724  -0.959  1.00  0.00     0.155 A 
ATOM     30  H17 UNL     1      13.696   2.605  -1.128  1.00  0.00     0.198 HD
BRANCH  29  31
HETATM   31  N18 UNL     1      13.898   0.180  -0.113  1.00  0.00    -0.382 N 
ATOM     32 2H18 UNL     1      14.260  -0.262   0.731  1.00  0.00     0.157 HD
ATOM     33 1H18 UNL     1      12.883   0.079  -0.091  1.00  0.00     0.157 HD
ENDBRANCH  29  31
ENDBRANCH  13  24
ENDBRANCH  11  12
ENDBRANCH   6  10
ENDBRANCH   4   6
ENDBRANCH   1   4
BRANCH   1  34
HETATM   34  C9  UNL     1      15.736  -6.579  -3.786  1.00  0.00     0.112 A 
HETATM   35  C10 UNL     1      16.371  -6.530  -5.009  1.00  0.00     0.041 A 
HETATM   36  C14 UNL     1      15.696  -6.728  -6.242  1.00  0.00     0.020 A 
HETATM   37  C15 UNL     1      14.361  -6.986  -6.197  1.00  0.00     0.032 A 
HETATM   38  C16 UNL     1      13.702  -7.053  -4.993  1.00  0.00     0.066 A 
HETATM   39  N13 UNL     1      12.401  -7.346  -4.994  1.00  0.00    -0.191 N 
HETATM   40  C19 UNL     1      14.360  -6.856  -3.755  1.00  0.00     0.084 A 
HETATM   41  C17 UNL     1      11.655  -7.477  -3.844  1.00  0.00     0.679 A 
ATOM     42  H13 UNL     1      11.935  -7.480  -5.892  1.00  0.00     0.184 HD
HETATM   43  N14 UNL     1      10.413  -7.669  -3.929  1.00  0.00    -0.234 N 
HETATM   44  N15 UNL     1      12.312  -7.293  -2.681  1.00  0.00    -0.156 N 
ATOM     45 2H14 UNL     1       9.915  -7.808  -4.808  1.00  0.00     0.174 HD
ATOM     46 1H14 UNL     1       9.860  -7.766  -3.077  1.00  0.00     0.174 HD
HETATM   47  C18 UNL     1      13.637  -6.990  -2.611  1.00  0.00     0.273 A 
ATOM     48  H15 UNL     1      11.790  -7.385  -1.810  1.00  0.00     0.187 HD
HETATM   49  O4  UNL     1      14.121  -6.853  -1.500  1.00  0.00    -0.267 OA
BRANCH  35  50
HETATM   50  C11 UNL     1      17.825  -6.496  -5.116  1.00  0.00     0.176 A 
HETATM   51  N6  UNL     1      18.690  -7.460  -4.728  1.00  0.00    -0.277 N 
HETATM   52  N7  UNL     1      19.896  -7.044  -4.989  1.00  0.00    -0.280 N 
ATOM     53  H6  UNL     1      18.442  -8.355  -4.307  1.00  0.00     0.189 HD
HETATM   54  C12 UNL     1      19.841  -5.839  -5.534  1.00  0.00     0.162 A 
ATOM     55  H7  UNL     1      20.752  -7.567  -4.801  1.00  0.00     0.189 HD
HETATM   56  O3  UNL     1      18.559  -5.553  -5.591  1.00  0.00    -0.276 OA
BRANCH  54  57
HETATM   57  C13 UNL     1      20.956  -4.943  -6.008  1.00  0.00     0.258 C 
BRANCH  57  58
HETATM   58  N8  UNL     1      20.417  -4.051  -7.036  1.00  0.00    -0.198 N 
HETATM   59  N9  UNL     1      19.540  -4.366  -7.963  1.00  0.00    -0.207 N 
HETATM   60  N10 UNL     1      19.302  -3.288  -8.710  1.00  0.00     0.012 NA
ATOM     61  H9  UNL     1      19.113  -5.284  -8.091  1.00  0.00     0.207 HD
HETATM   62  N11 UNL     1      20.064  -2.310  -8.204  1.00  0.00    -0.209 N 
HETATM   63  N12 UNL     1      20.728  -2.793  -7.197  1.00  0.00    -0.212 N 
ATOM     64  H11 UNL     1      20.114  -1.351  -8.549  1.00  0.00     0.207 HD
ATOM     65  H12 UNL     1      21.390  -2.272  -6.622  1.00  0.00     0.211 HD
ENDBRANCH  57  58
ENDBRANCH  54  57
ENDBRANCH  35  50
ENDBRANCH   1  34
TORSDOF 12
ENDMDL
MODEL 3
REMARK VINA RESULT: -10.207249316      2.780      9.565
REMARK  12 active torsions:
REMARK  status: ('A' for Active; 'I' for Inactive)
REMARK    1  A    between atoms: C4_8  and  C5_9 
REMARK    2  A    between atoms: C5_9  and  N3_10 
REMARK    3  A    between atoms: N3_10  and  C6_11 
REMARK       I    between atoms: N3_10  and  C20_54 
REMARK    4  A    between atoms: C7_12  and  C8_13 
REMARK    5  A    between atoms: C8_13  and  N5_17 
REMARK    6  A    between atoms: N5_17  and  S1_19 
REMARK    7  A    between atoms: S1_19  and  C9_22 
REMARK    8  A    between atoms: C10_23  and  C11_24 
REMARK    9  A    between atoms: C12_29  and  C13_30 
REMARK   10  A    between atoms: C13_30  and  N8_31 
REMARK   11  A    between atoms: C20_54  and  C21_56 
REMARK   12  A    between atoms: C22_62  and  N18_63 
ROOT
HETATM    1  S1  UNL     1      17.790  -5.470  -2.555  1.00  0.00     0.266 S 
HETATM    2  O1  UNL     1      18.604  -4.864  -1.332  1.00  0.00    -0.200 OA
HETATM    3  O2  UNL     1      18.291  -6.901  -2.248  1.00  0.00    -0.200 OA
ENDROOT
BRANCH   1   4
HETATM    4  N5  UNL     1      18.502  -4.756  -3.842  1.00  0.00    -0.266 N 
ATOM      5  H5  UNL     1      18.504  -3.736  -3.856  1.00  0.00     0.180 HD
BRANCH   4   6
HETATM    6  C8  UNL     1      19.137  -5.434  -4.980  1.00  0.00     0.109 C 
HETATM    7  N4  UNL     1      19.390  -6.640  -4.796  1.00  0.00    -0.385 N 
ATOM      8  H42 UNL     1      19.831  -7.111  -5.586  1.00  0.00     0.157 HD
ATOM      9  H41 UNL     1      19.255  -7.244  -3.985  1.00  0.00     0.157 HD
BRANCH   6  10
HETATM   10  C7  UNL     1      19.327  -4.587  -6.116  1.00  0.00     0.066 C 
HETATM   11  C6  UNL     1      19.996  -4.705  -7.354  1.00  0.00     0.098 C 
BRANCH  11  12
HETATM   12  N3  UNL     1      19.629  -5.675  -8.361  1.00  0.00    -0.317 N 
HETATM   13  C20 UNL     1      18.645  -5.327  -9.318  1.00  0.00     0.280 C 
HETATM   14  O5  UNL     1      18.151  -4.147  -9.331  1.00  0.00    -0.265 OA
BRANCH  12  15
HETATM   15  C5  UNL     1      20.233  -7.017  -8.275  1.00  0.00     0.190 C 
BRANCH  15  16
HETATM   16  C4  UNL     1      21.615  -6.987  -8.742  1.00  0.00     0.051 A 
HETATM   17  C2  UNL     1      22.712  -7.469  -7.994  1.00  0.00     0.030 A 
HETATM   18  C1  UNL     1      22.624  -8.015  -6.636  1.00  0.00     0.070 C 
HETATM   19  N1  UNL     1      23.789  -7.304  -8.763  1.00  0.00    -0.354 N 
HETATM   20  C3  UNL     1      23.442  -6.759  -9.929  1.00  0.00     0.180 A 
ATOM     21  H1  UNL     1      24.741  -7.559  -8.499  1.00  0.00     0.166 HD
HETATM   22  N2  UNL     1      22.101  -6.563  -9.917  1.00  0.00    -0.353 N 
ATOM     23  H2  UNL     1      21.552  -6.161 -10.677  1.00  0.00     0.166 HD
ENDBRANCH  15  16
ENDBRANCH  12  15
BRANCH  13  24
HETATM   24  C21 UNL     1      18.152  -6.259 -10.302  1.00  0.00     0.169 A 
HETATM   25  N16 UNL     1      18.608  -6.563 -11.550  1.00  0.00    -0.233 N 
HETATM   26  O6  UNL     1      17.890  -7.469 -12.084  1.00  0.00    -0.155 OA
ATOM     27  H16 UNL     1      19.413  -6.124 -11.995  1.00  0.00     0.197 HD
HETATM   28  N17 UNL     1      16.961  -7.825 -11.301  1.00  0.00    -0.224 N 
HETATM   29  C22 UNL     1      17.066  -7.096 -10.150  1.00  0.00     0.155 A 
ATOM     30  H17 UNL     1      16.255  -8.536 -11.496  1.00  0.00     0.198 HD
BRANCH  29  31
HETATM   31  N18 UNL     1      16.243  -7.260  -9.190  1.00  0.00    -0.382 N 
ATOM     32 2H18 UNL     1      16.216  -6.611  -8.403  1.00  0.00     0.157 HD
ATOM     33 1H18 UNL     1      15.530  -7.969  -9.015  1.00  0.00     0.157 HD
ENDBRANCH  29  31
ENDBRANCH  13  24
ENDBRANCH  11  12
ENDBRANCH   6  10
ENDBRANCH   4   6
ENDBRANCH   1   4
BRANCH   1  34
HETATM   34  C9  UNL     1      16.163  -5.177  -2.071  1.00  0.00     0.112 A 
HETATM   35  C10 UNL     1      15.871  -4.376  -0.987  1.00  0.00     0.041 A 
HETATM   36  C14 UNL     1      14.593  -4.341  -0.371  1.00  0.00     0.020 A 
HETATM   37  C15 UNL     1      13.619  -5.135  -0.891  1.00  0.00     0.032 A 
HETATM   38  C16 UNL     1      13.875  -5.936  -1.978  1.00  0.00     0.066 A 
HETATM   39  N13 UNL     1      12.880  -6.670  -2.478  1.00  0.00    -0.191 N 
HETATM   40  C19 UNL     1      15.145  -5.984  -2.603  1.00  0.00     0.084 A 
HETATM   41  C17 UNL     1      13.019  -7.475  -3.586  1.00  0.00     0.679 A 
ATOM     42  H13 UNL     1      11.972  -6.633  -2.016  1.00  0.00     0.184 HD
HETATM   43  N14 UNL     1      12.057  -8.204  -3.947  1.00  0.00    -0.234 N 
HETATM   44  N15 UNL     1      14.236  -7.491  -4.165  1.00  0.00    -0.156 N 
ATOM     45 2H14 UNL     1      11.136  -8.192  -3.510  1.00  0.00     0.174 HD
ATOM     46 1H14 UNL     1      12.159  -8.800  -4.769  1.00  0.00     0.174 HD
HETATM   47  C18 UNL     1      15.293  -6.769  -3.703  1.00  0.00     0.273 A 
ATOM     48  H15 UNL     1      14.373  -8.075  -4.990  1.00  0.00     0.187 HD
HETATM   49  O4  UNL     1      16.344  -6.862  -4.316  1.00  0.00    -0.267 OA
BRANCH  35  50
HETATM   50  C11 UNL     1      16.788  -3.336  -0.535  1.00  0.00     0.176 A 
HETATM   51  N6  UNL     1      17.591  -3.379   0.552  1.00  0.00    -0.277 N 
HETATM   52  N7  UNL     1      18.247  -2.256   0.610  1.00  0.00    -0.280 N 
ATOM     53  H6  UNL     1      17.669  -4.154   1.211  1.00  0.00     0.189 HD
HETATM   54  C12 UNL     1      17.895  -1.485  -0.407  1.00  0.00     0.162 A 
ATOM     55  H7  UNL     1      18.927  -2.008   1.329  1.00  0.00     0.189 HD
HETATM   56  O3  UNL     1      17.008  -2.190  -1.073  1.00  0.00    -0.276 OA
BRANCH  54  57
HETATM   57  C13 UNL     1      18.368  -0.102  -0.778  1.00  0.00     0.258 C 
BRANCH  57  58
HETATM   58  N8  UNL     1      17.193   0.707  -1.103  1.00  0.00    -0.198 N 
HETATM   59  N9  UNL     1      17.119   1.647  -2.019  1.00  0.00    -0.207 N 
HETATM   60  N10 UNL     1      15.886   2.155  -2.012  1.00  0.00     0.012 NA
ATOM     61  H9  UNL     1      17.879   1.940  -2.634  1.00  0.00     0.207 HD
HETATM   62  N11 UNL     1      15.216   1.492  -1.061  1.00  0.00    -0.209 N 
HETATM   63  N12 UNL     1      16.024   0.625  -0.526  1.00  0.00    -0.212 N 
ATOM     64  H11 UNL     1      14.241   1.641  -0.802  1.00  0.00     0.207 HD
ATOM     65  H12 UNL     1      15.783  -0.018   0.228  1.00  0.00     0.211 HD
ENDBRANCH  57  58
ENDBRANCH  54  57
ENDBRANCH  35  50
ENDBRANCH   1  34
TORSDOF 12
ENDMDL
MODEL 4
REMARK VINA RESULT: -10.059339931      7.316     13.109
REMARK  12 active torsions:
REMARK  status: ('A' for Active; 'I' for Inactive)
REMARK    1  A    between atoms: C4_8  and  C5_9 
REMARK    2  A    between atoms: C5_9  and  N3_10 
REMARK    3  A    between atoms: N3_10  and  C6_11 
REMARK       I    between atoms: N3_10  and  C20_54 
REMARK    4  A    between atoms: C7_12  and  C8_13 
REMARK    5  A    between atoms: C8_13  and  N5_17 
REMARK    6  A    between atoms: N5_17  and  S1_19 
REMARK    7  A    between atoms: S1_19  and  C9_22 
REMARK    8  A    between atoms: C10_23  and  C11_24 
REMARK    9  A    between atoms: C12_29  and  C13_30 
REMARK   10  A    between atoms: C13_30  and  N8_31 
REMARK   11  A    between atoms: C20_54  and  C21_56 
REMARK   12  A    between atoms: C22_62  and  N18_63 
ROOT
HETATM    1  S1  UNL     1      21.499   3.153  -1.985  1.00  0.00     0.266 S 
HETATM    2  O1  UNL     1      21.783   4.681  -1.650  1.00  0.00    -0.200 OA
HETATM    3  O2  UNL     1      22.364   2.677  -0.793  1.00  0.00    -0.200 OA
ENDROOT
BRANCH   1   4
HETATM    4  N5  UNL     1      22.197   2.977  -3.452  1.00  0.00    -0.266 N 
ATOM      5  H5  UNL     1      22.479   2.032  -3.714  1.00  0.00     0.180 HD
BRANCH   4   6
HETATM    6  C8  UNL     1      22.461   4.040  -4.431  1.00  0.00     0.109 C 
HETATM    7  N4  UNL     1      21.862   3.912  -5.517  1.00  0.00    -0.385 N 
ATOM      8  H42 UNL     1      22.045   4.650  -6.197  1.00  0.00     0.157 HD
ATOM      9  H41 UNL     1      21.232   3.187  -5.861  1.00  0.00     0.157 HD
BRANCH   6  10
HETATM   10  C7  UNL     1      23.343   5.055  -3.948  1.00  0.00     0.066 C 
HETATM   11  C6  UNL     1      24.259   5.953  -4.540  1.00  0.00     0.098 C 
BRANCH  11  12
HETATM   12  N3  UNL     1      23.864   6.987  -5.470  1.00  0.00    -0.317 N 
HETATM   13  C20 UNL     1      23.751   6.663  -6.843  1.00  0.00     0.280 C 
HETATM   14  O5  UNL     1      23.922   5.457  -7.235  1.00  0.00    -0.265 OA
BRANCH  12  15
HETATM   15  C5  UNL     1      23.696   8.355  -4.946  1.00  0.00     0.190 C 
BRANCH  15  16
HETATM   16  C4  UNL     1      24.984   8.911  -4.545  1.00  0.00     0.051 A 
HETATM   17  C2  UNL     1      25.395   9.063  -3.202  1.00  0.00     0.030 A 
HETATM   18  C1  UNL     1      24.572   8.737  -2.033  1.00  0.00     0.070 C 
HETATM   19  N1  UNL     1      26.631   9.563  -3.245  1.00  0.00    -0.354 N 
HETATM   20  C3  UNL     1      27.015   9.729  -4.511  1.00  0.00     0.180 A 
ATOM     21  H1  UNL     1      27.200   9.785  -2.428  1.00  0.00     0.166 HD
HETATM   22  N2  UNL     1      26.001   9.326  -5.314  1.00  0.00    -0.353 N 
ATOM     23  H2  UNL     1      26.009   9.337  -6.333  1.00  0.00     0.166 HD
ENDBRANCH  15  16
ENDBRANCH  12  15
BRANCH  13  24
HETATM   24  C21 UNL     1      23.451   7.648  -7.853  1.00  0.00     0.169 A 
HETATM   25  N16 UNL     1      24.055   8.834  -8.151  1.00  0.00    -0.233 N 
HETATM   26  O6  UNL     1      23.486   9.393  -9.143  1.00  0.00    -0.155 OA
ATOM     27  H16 UNL     1      24.853   9.220  -7.647  1.00  0.00     0.197 HD
HETATM   28  N17 UNL     1      22.524   8.686  -9.566  1.00  0.00    -0.224 N 
HETATM   29  C22 UNL     1      22.444   7.563  -8.792  1.00  0.00     0.155 A 
ATOM     30  H17 UNL     1      21.914   8.916 -10.351  1.00  0.00     0.198 HD
BRANCH  29  31
HETATM   31  N18 UNL     1      21.550   6.678  -9.006  1.00  0.00    -0.382 N 
ATOM     32 2H18 UNL     1      21.252   6.042  -8.267  1.00  0.00     0.157 HD
ATOM     33 1H18 UNL     1      21.012   6.440  -9.840  1.00  0.00     0.157 HD
ENDBRANCH  29  31
ENDBRANCH  13  24
ENDBRANCH  11  12
ENDBRANCH   6  10
ENDBRANCH   4   6
ENDBRANCH   1   4
BRANCH   1  34
HETATM   34  C9  UNL     1      19.802   3.045  -1.707  1.00  0.00     0.112 A 
HETATM   35  C10 UNL     1      18.996   4.162  -1.754  1.00  0.00     0.041 A 
HETATM   36  C14 UNL     1      17.670   4.183  -1.249  1.00  0.00     0.020 A 
HETATM   37  C15 UNL     1      17.183   3.035  -0.704  1.00  0.00     0.032 A 
HETATM   38  C16 UNL     1      17.958   1.902  -0.654  1.00  0.00     0.066 A 
HETATM   39  N13 UNL     1      17.427   0.789  -0.145  1.00  0.00    -0.191 N 
HETATM   40  C19 UNL     1      19.283   1.866  -1.151  1.00  0.00     0.084 A 
HETATM   41  C17 UNL     1      18.102  -0.410  -0.083  1.00  0.00     0.679 A 
ATOM     42  H13 UNL     1      16.474   0.828   0.216  1.00  0.00     0.184 HD
HETATM   43  N14 UNL     1      17.565  -1.395   0.490  1.00  0.00    -0.234 N 
HETATM   44  N15 UNL     1      19.358  -0.415  -0.574  1.00  0.00    -0.156 N 
ATOM     45 2H14 UNL     1      16.615  -1.391   0.861  1.00  0.00     0.174 HD
ATOM     46 1H14 UNL     1      18.064  -2.283   0.536  1.00  0.00     0.174 HD
HETATM   47  C18 UNL     1      19.958   0.686  -1.103  1.00  0.00     0.273 A 
ATOM     48  H15 UNL     1      19.885  -1.287  -0.546  1.00  0.00     0.187 HD
HETATM   49  O4  UNL     1      21.097   0.555  -1.521  1.00  0.00    -0.267 OA
BRANCH  35  50
HETATM   50  C11 UNL     1      19.365   5.341  -2.530  1.00  0.00     0.176 A 
HETATM   51  N6  UNL     1      19.519   6.602  -2.067  1.00  0.00    -0.277 N 
HETATM   52  N7  UNL     1      19.845   7.361  -3.074  1.00  0.00    -0.280 N 
ATOM     53  H6  UNL     1      19.400   6.906  -1.101  1.00  0.00     0.189 HD
HETATM   54  C12 UNL     1      19.909   6.630  -4.177  1.00  0.00     0.162 A 
ATOM     55  H7  UNL     1      20.024   8.363  -3.021  1.00  0.00     0.189 HD
HETATM   56  O3  UNL     1      19.610   5.410  -3.790  1.00  0.00    -0.276 OA
BRANCH  54  57
HETATM   57  C13 UNL     1      20.244   7.041  -5.588  1.00  0.00     0.258 C 
BRANCH  57  58
HETATM   58  N8  UNL     1      20.433   8.492  -5.605  1.00  0.00    -0.198 N 
HETATM   59  N9  UNL     1      20.579   9.275  -4.559  1.00  0.00    -0.207 N 
HETATM   60  N10 UNL     1      20.723  10.531  -4.982  1.00  0.00     0.012 NA
ATOM     61  H9  UNL     1      20.583   8.972  -3.585  1.00  0.00     0.207 HD
HETATM   62  N11 UNL     1      20.658  10.483  -6.318  1.00  0.00    -0.209 N 
HETATM   63  N12 UNL     1      20.481   9.244  -6.671  1.00  0.00    -0.212 N 
ATOM     64  H11 UNL     1      20.734  11.281  -6.950  1.00  0.00     0.207 HD
ATOM     65  H12 UNL     1      20.393   8.912  -7.632  1.00  0.00     0.211 HD
ENDBRANCH  57  58
ENDBRANCH  54  57
ENDBRANCH  35  50
ENDBRANCH   1  34
TORSDOF 12
ENDMDL
MODEL 5
REMARK VINA RESULT: -9.963692911      3.360      8.805
REMARK  12 active torsions:
REMARK  status: ('A' for Active; 'I' for Inactive)
REMARK    1  A    between atoms: C4_8  and  C5_9 
REMARK    2  A    between atoms: C5_9  and  N3_10 
REMARK    3  A    between atoms: N3_10  and  C6_11 
REMARK       I    between atoms: N3_10  and  C20_54 
REMARK    4  A    between atoms: C7_12  and  C8_13 
REMARK    5  A    between atoms: C8_13  and  N5_17 
REMARK    6  A    between atoms: N5_17  and  S1_19 
REMARK    7  A    between atoms: S1_19  and  C9_22 
REMARK    8  A    between atoms: C10_23  and  C11_24 
REMARK    9  A    between atoms: C12_29  and  C13_30 
REMARK   10  A    between atoms: C13_30  and  N8_31 
REMARK   11  A    between atoms: C20_54  and  C21_56 
REMARK   12  A    between atoms: C22_62  and  N18_63 
ROOT
HETATM    1  S1  UNL     1      16.196  -6.494  -4.009  1.00  0.00     0.266 S 
HETATM    2  O1  UNL     1      16.593  -6.650  -2.478  1.00  0.00    -0.200 OA
HETATM    3  O2  UNL     1      16.830  -7.860  -4.366  1.00  0.00    -0.200 OA
ENDROOT
BRANCH   1   4
HETATM    4  N5  UNL     1      17.069  -5.192  -4.470  1.00  0.00    -0.266 N 
ATOM      5  H5  UNL     1      16.571  -4.304  -4.531  1.00  0.00     0.180 HD
BRANCH   4   6
HETATM    6  C8  UNL     1      18.499  -5.170  -4.807  1.00  0.00     0.109 C 
HETATM    7  N4  UNL     1      19.219  -5.883  -4.081  1.00  0.00    -0.385 N 
ATOM      8  H42 UNL     1      20.212  -5.868  -4.315  1.00  0.00     0.157 HD
ATOM      9  H41 UNL     1      18.998  -6.470  -3.276  1.00  0.00     0.157 HD
BRANCH   6  10
HETATM   10  C7  UNL     1      18.808  -4.348  -5.935  1.00  0.00     0.066 C 
HETATM   11  C6  UNL     1      19.627  -4.480  -7.078  1.00  0.00     0.098 C 
BRANCH  11  12
HETATM   12  N3  UNL     1      19.411  -5.486  -8.094  1.00  0.00    -0.317 N 
HETATM   13  C20 UNL     1      18.619  -5.158  -9.220  1.00  0.00     0.280 C 
HETATM   14  O5  UNL     1      18.171  -3.968  -9.367  1.00  0.00    -0.265 OA
BRANCH  12  15
HETATM   15  C5  UNL     1      19.949  -6.836  -7.849  1.00  0.00     0.190 C 
BRANCH  15  16
HETATM   16  C4  UNL     1      21.340  -6.919  -8.283  1.00  0.00     0.051 A 
HETATM   17  C2  UNL     1      22.400  -7.358  -7.458  1.00  0.00     0.030 A 
HETATM   18  C1  UNL     1      22.261  -7.739  -6.049  1.00  0.00     0.070 C 
HETATM   19  N1  UNL     1      23.498  -7.329  -8.215  1.00  0.00    -0.354 N 
HETATM   20  C3  UNL     1      23.197  -6.907  -9.444  1.00  0.00     0.180 A 
ATOM     21  H1  UNL     1      24.432  -7.592  -7.900  1.00  0.00     0.166 HD
HETATM   22  N2  UNL     1      21.867  -6.655  -9.487  1.00  0.00    -0.353 N 
ATOM     23  H2  UNL     1      21.351  -6.320 -10.301  1.00  0.00     0.166 HD
ENDBRANCH  15  16
ENDBRANCH  12  15
BRANCH  13  24
HETATM   24  C21 UNL     1      18.276  -6.122 -10.237  1.00  0.00     0.169 A 
HETATM   25  N16 UNL     1      18.920  -6.475 -11.385  1.00  0.00    -0.233 N 
HETATM   26  O6  UNL     1      18.284  -7.394 -11.995  1.00  0.00    -0.155 OA
ATOM     27  H16 UNL     1      19.793  -6.060 -11.711  1.00  0.00     0.197 HD
HETATM   28  N17 UNL     1      17.237  -7.714 -11.358  1.00  0.00    -0.224 N 
HETATM   29  C22 UNL     1      17.168  -6.943 -10.232  1.00  0.00     0.155 A 
ATOM     30  H17 UNL     1      16.561  -8.425 -11.638  1.00  0.00     0.198 HD
BRANCH  29  31
HETATM   31  N18 UNL     1      16.200  -7.064  -9.410  1.00  0.00    -0.382 N 
ATOM     32 2H18 UNL     1      15.649  -6.255  -9.123  1.00  0.00     0.157 HD
ATOM     33 1H18 UNL     1      15.814  -7.874  -8.924  1.00  0.00     0.157 HD
ENDBRANCH  29  31
ENDBRANCH  13  24
ENDBRANCH  11  12
ENDBRANCH   6  10
ENDBRANCH   4   6
ENDBRANCH   1   4
BRANCH   1  34
HETATM   34  C9  UNL     1      14.476  -6.519  -3.928  1.00  0.00     0.112 A 
HETATM   35  C10 UNL     1      13.815  -6.510  -2.718  1.00  0.00     0.041 A 
HETATM   36  C14 UNL     1      12.438  -6.826  -2.583  1.00  0.00     0.020 A 
HETATM   37  C15 UNL     1      11.749  -7.143  -3.713  1.00  0.00     0.032 A 
HETATM   38  C16 UNL     1      12.376  -7.149  -4.935  1.00  0.00     0.066 A 
HETATM   39  N13 UNL     1      11.654  -7.429  -6.021  1.00  0.00    -0.191 N 
HETATM   40  C19 UNL     1      13.749  -6.838  -5.086  1.00  0.00     0.084 A 
HETATM   41  C17 UNL     1      12.173  -7.425  -7.296  1.00  0.00     0.679 A 
ATOM     42  H13 UNL     1      10.667  -7.658  -5.900  1.00  0.00     0.184 HD
HETATM   43  N14 UNL     1      11.449  -7.784  -8.262  1.00  0.00    -0.234 N 
HETATM   44  N15 UNL     1      13.481  -7.115  -7.407  1.00  0.00    -0.156 N 
ATOM     45 2H14 UNL     1      10.460  -8.018  -8.178  1.00  0.00     0.174 HD
ATOM     46 1H14 UNL     1      11.833  -7.780  -9.207  1.00  0.00     0.174 HD
HETATM   47  C18 UNL     1      14.273  -6.823  -6.341  1.00  0.00     0.273 A 
ATOM     48  H15 UNL     1      13.897  -7.099  -8.338  1.00  0.00     0.187 HD
HETATM   49  O4  UNL     1      15.441  -6.552  -6.569  1.00  0.00    -0.267 OA
BRANCH  35  50
HETATM   50  C11 UNL     1      14.427  -5.954  -1.516  1.00  0.00     0.176 A 
HETATM   51  N6  UNL     1      14.754  -6.623  -0.387  1.00  0.00    -0.277 N 
HETATM   52  N7  UNL     1      15.271  -5.769   0.449  1.00  0.00    -0.280 N 
ATOM     53  H6  UNL     1      14.619  -7.620  -0.220  1.00  0.00     0.189 HD
HETATM   54  C12 UNL     1      15.291  -4.566  -0.103  1.00  0.00     0.162 A 
ATOM     55  H7  UNL     1      15.609  -5.994   1.385  1.00  0.00     0.189 HD
HETATM   56  O3  UNL     1      14.769  -4.734  -1.297  1.00  0.00    -0.276 OA
BRANCH  54  57
HETATM   57  C13 UNL     1      15.788  -3.257   0.456  1.00  0.00     0.258 C 
BRANCH  57  58
HETATM   58  N8  UNL     1      15.347  -2.185  -0.438  1.00  0.00    -0.198 N 
HETATM   59  N9  UNL     1      15.274  -2.241  -1.749  1.00  0.00    -0.207 N 
HETATM   60  N10 UNL     1      14.832  -1.067  -2.202  1.00  0.00     0.012 NA
ATOM     61  H9  UNL     1      15.515  -3.048  -2.325  1.00  0.00     0.207 HD
HETATM   62  N11 UNL     1      14.640  -0.300  -1.122  1.00  0.00    -0.209 N 
HETATM   63  N12 UNL     1      14.959  -0.994  -0.070  1.00  0.00    -0.212 N 
ATOM     64  H11 UNL     1      14.303   0.663  -1.124  1.00  0.00     0.207 HD
ATOM     65  H12 UNL     1      14.913  -0.660   0.893  1.00  0.00     0.211 HD
ENDBRANCH  57  58
ENDBRANCH  54  57
ENDBRANCH  35  50
ENDBRANCH   1  34
TORSDOF 12
ENDMDL
