MODEL 1
REMARK VINA RESULT: -1.662319471      0.000      0.000
REMARK  3 active torsions:
REMARK  status: ('A' for Active; 'I' for Inactive)
REMARK    1  A    between atoms: C4_9  and  N4_10 
REMARK    2  A    between atoms: C5_13  and  N5_14 
REMARK    3  A    between atoms: N5_14  and  N6_16 
ROOT
HETATM    1  C1  UNL     1      56.439  40.898  48.328  1.00  0.00     0.072 C 
HETATM    2  C2  UNL     1      56.055  39.771  47.440  1.00  0.00     0.055 A 
HETATM    3  N1  UNL     1      55.183  38.819  47.839  1.00  0.00    -0.288 N 
ATOM      4  H1  UNL     1      54.782  38.879  48.776  1.00  0.00     0.188 HD
HETATM    5  N2  UNL     1      54.835  37.815  47.061  1.00  0.00    -0.239 N 
ATOM      6  H2  UNL     1      54.173  37.121  47.406  1.00  0.00     0.208 HD
HETATM    7  N3  UNL     1      55.325  37.691  45.843  1.00  0.00    -0.265 N 
HETATM    8  C3  UNL     1      54.951  36.586  44.967  1.00  0.00     0.181 C 
HETATM    9  C4  UNL     1      56.189  38.608  45.406  1.00  0.00     0.147 A 
HETATM   10  C5  UNL     1      56.603  39.707  46.190  1.00  0.00     0.116 A 
ENDROOT
BRANCH  10  11
HETATM   11  N5  UNL     1      57.436  40.521  45.665  1.00  0.00    -0.302 N 
ATOM     12  H5  UNL     1      58.209  40.805  46.266  1.00  0.00     0.186 HD
BRANCH  11  13
HETATM   13  N6  UNL     1      57.436  41.065  44.408  1.00  0.00    -0.345 N 
ATOM     14  H62 UNL     1      57.285  40.390  43.659  1.00  0.00     0.176 HD
ATOM     15  H61 UNL     1      57.564  42.038  44.129  1.00  0.00     0.176 HD
ENDBRANCH  11  13
ENDBRANCH  10  11
BRANCH   9  16
HETATM   16  N4  UNL     1      56.693  38.523  44.218  1.00  0.00    -0.382 N 
ATOM     17  H42 UNL     1      57.239  37.686  44.014  1.00  0.00     0.157 HD
ATOM     18  H41 UNL     1      56.539  39.266  43.536  1.00  0.00     0.157 HD
ENDBRANCH   9  16
TORSDOF 3
ENDMDL
MODEL 2
REMARK VINA RESULT: -1.150216376      1.022      2.771
REMARK  3 active torsions:
REMARK  status: ('A' for Active; 'I' for Inactive)
REMARK    1  A    between atoms: C4_9  and  N4_10 
REMARK    2  A    between atoms: C5_13  and  N5_14 
REMARK    3  A    between atoms: N5_14  and  N6_16 
ROOT
HETATM    1  C1  UNL     1      57.436  40.913  47.247  1.00  0.00     0.072 C 
HETATM    2  C2  UNL     1      56.860  39.812  46.432  1.00  0.00     0.055 A 
HETATM    3  N1  UNL     1      57.253  39.593  45.159  1.00  0.00    -0.288 N 
ATOM      4  H1  UNL     1      57.964  40.200  44.751  1.00  0.00     0.188 HD
HETATM    5  N2  UNL     1      56.750  38.621  44.426  1.00  0.00    -0.239 N 
ATOM      6  H2  UNL     1      57.079  38.493  43.469  1.00  0.00     0.208 HD
HETATM    7  N3  UNL     1      55.828  37.809  44.907  1.00  0.00    -0.265 N 
HETATM    8  C3  UNL     1      55.259  36.727  44.110  1.00  0.00     0.181 C 
HETATM    9  C4  UNL     1      55.409  37.989  46.159  1.00  0.00     0.147 A 
HETATM   10  C5  UNL     1      55.908  39.010  46.996  1.00  0.00     0.116 A 
ENDROOT
BRANCH  10  11
HETATM   11  N5  UNL     1      55.430  39.085  48.179  1.00  0.00    -0.302 N 
ATOM     12  H5  UNL     1      55.610  38.279  48.776  1.00  0.00     0.186 HD
BRANCH  11  13
HETATM   13  N6  UNL     1      54.711  40.097  48.756  1.00  0.00    -0.345 N 
ATOM     14  H62 UNL     1      54.242  39.837  49.623  1.00  0.00     0.176 HD
ATOM     15  H61 UNL     1      54.584  41.059  48.438  1.00  0.00     0.176 HD
ENDBRANCH  11  13
ENDBRANCH  10  11
BRANCH   9  16
HETATM   16  N4  UNL     1      54.507  37.214  46.668  1.00  0.00    -0.382 N 
ATOM     17  H42 UNL     1      53.841  37.649  47.307  1.00  0.00     0.157 HD
ATOM     18  H41 UNL     1      54.481  36.223  46.429  1.00  0.00     0.157 HD
ENDBRANCH   9  16
TORSDOF 3
ENDMDL
MODEL 3
REMARK VINA RESULT: -0.907431350      1.406      3.553
REMARK  3 active torsions:
REMARK  status: ('A' for Active; 'I' for Inactive)
REMARK    1  A    between atoms: C4_9  and  N4_10 
REMARK    2  A    between atoms: C5_13  and  N5_14 
REMARK    3  A    between atoms: N5_14  and  N6_16 
ROOT
HETATM    1  C1  UNL     1      54.488  36.344  46.677  1.00  0.00     0.072 C 
HETATM    2  C2  UNL     1      55.261  37.415  45.998  1.00  0.00     0.055 A 
HETATM    3  N1  UNL     1      55.569  37.344  44.685  1.00  0.00    -0.288 N 
ATOM      4  H1  UNL     1      55.260  36.531  44.150  1.00  0.00     0.188 HD
HETATM    5  N2  UNL     1      56.253  38.287  44.072  1.00  0.00    -0.239 N 
ATOM      6  H2  UNL     1      56.461  38.189  43.078  1.00  0.00     0.208 HD
HETATM    7  N3  UNL     1      56.676  39.356  44.718  1.00  0.00    -0.265 N 
HETATM    8  C3  UNL     1      57.436  40.411  44.056  1.00  0.00     0.181 C 
HETATM    9  C4  UNL     1      56.395  39.469  46.016  1.00  0.00     0.147 A 
HETATM   10  C5  UNL     1      55.665  38.495  46.732  1.00  0.00     0.116 A 
ENDROOT
BRANCH  10  11
HETATM   11  N5  UNL     1      55.459  38.712  47.973  1.00  0.00    -0.302 N 
ATOM     12  H5  UNL     1      55.848  38.017  48.610  1.00  0.00     0.186 HD
BRANCH  11  13
HETATM   13  N6  UNL     1      54.787  39.746  48.568  1.00  0.00    -0.345 N 
ATOM     14  H62 UNL     1      54.049  40.153  47.994  1.00  0.00     0.176 HD
ATOM     15  H61 UNL     1      54.925  40.155  49.493  1.00  0.00     0.176 HD
ENDBRANCH  11  13
ENDBRANCH  10  11
BRANCH   9  16
HETATM   16  N4  UNL     1      56.791  40.502  46.687  1.00  0.00    -0.382 N 
ATOM     17  H42 UNL     1      57.271  41.231  46.158  1.00  0.00     0.157 HD
ATOM     18  H41 UNL     1      56.621  40.564  47.691  1.00  0.00     0.157 HD
ENDBRANCH   9  16
TORSDOF 3
ENDMDL
MODEL 4
REMARK VINA RESULT: -0.417393659      6.398      8.272
REMARK  3 active torsions:
REMARK  status: ('A' for Active; 'I' for Inactive)
REMARK    1  A    between atoms: C4_9  and  N4_10 
REMARK    2  A    between atoms: C5_13  and  N5_14 
REMARK    3  A    between atoms: N5_14  and  N6_16 
ROOT
HETATM    1  C1  UNL     1      52.238  35.787  45.601  1.00  0.00     0.072 C 
HETATM    2  C2  UNL     1      51.174  34.829  45.206  1.00  0.00     0.055 A 
HETATM    3  N1  UNL     1      51.219  34.164  44.030  1.00  0.00    -0.288 N 
ATOM      4  H1  UNL     1      52.005  34.329  43.401  1.00  0.00     0.188 HD
HETATM    5  N2  UNL     1      50.282  33.312  43.669  1.00  0.00    -0.239 N 
ATOM      6  H2  UNL     1      50.359  32.833  42.772  1.00  0.00     0.208 HD
HETATM    7  N3  UNL     1      49.245  33.065  44.446  1.00  0.00    -0.265 N 
HETATM    8  C3  UNL     1      48.197  32.125  44.063  1.00  0.00     0.181 C 
HETATM    9  C4  UNL     1      49.159  33.699  45.616  1.00  0.00     0.147 A 
HETATM   10  C5  UNL     1      50.129  34.623  46.062  1.00  0.00     0.116 A 
ENDROOT
BRANCH  10  11
HETATM   11  N5  UNL     1      49.939  35.168  47.201  1.00  0.00    -0.302 N 
ATOM     12  H5  UNL     1      49.677  34.532  47.954  1.00  0.00     0.186 HD
BRANCH  11  13
HETATM   13  N6  UNL     1      50.037  36.488  47.553  1.00  0.00    -0.345 N 
ATOM     14  H62 UNL     1      50.777  36.689  48.226  1.00  0.00     0.176 HD
ATOM     15  H61 UNL     1      49.479  37.281  47.237  1.00  0.00     0.176 HD
ENDBRANCH  11  13
ENDBRANCH  10  11
BRANCH   9  16
HETATM   16  N4  UNL     1      48.158  33.485  46.407  1.00  0.00    -0.382 N 
ATOM     17  H42 UNL     1      47.852  34.273  46.977  1.00  0.00     0.157 HD
ATOM     18  H41 UNL     1      47.714  32.567  46.443  1.00  0.00     0.157 HD
ENDBRANCH   9  16
TORSDOF 3
ENDMDL
MODEL 5
REMARK VINA RESULT: -0.375328102      1.476      2.812
REMARK  3 active torsions:
REMARK  status: ('A' for Active; 'I' for Inactive)
REMARK    1  A    between atoms: C4_9  and  N4_10 
REMARK    2  A    between atoms: C5_13  and  N5_14 
REMARK    3  A    between atoms: N5_14  and  N6_16 
ROOT
HETATM    1  C1  UNL     1      57.434  40.730  44.628  1.00  0.00     0.072 C 
HETATM    2  C2  UNL     1      56.676  39.552  45.122  1.00  0.00     0.055 A 
HETATM    3  N1  UNL     1      56.484  38.459  44.352  1.00  0.00    -0.288 N 
ATOM      4  H1  UNL     1      56.870  38.447  43.407  1.00  0.00     0.188 HD
HETATM    5  N2  UNL     1      55.814  37.408  44.778  1.00  0.00    -0.239 N 
ATOM      6  H2  UNL     1      55.695  36.606  44.161  1.00  0.00     0.208 HD
HETATM    7  N3  UNL     1      55.294  37.374  45.990  1.00  0.00    -0.265 N 
HETATM    8  C3  UNL     1      54.549  36.219  46.480  1.00  0.00     0.181 C 
HETATM    9  C4  UNL     1      55.460  38.431  46.786  1.00  0.00     0.147 A 
HETATM   10  C5  UNL     1      56.167  39.587  46.389  1.00  0.00     0.116 A 
ENDROOT
BRANCH  10  11
HETATM   11  N5  UNL     1      56.259  40.537  47.238  1.00  0.00    -0.302 N 
ATOM     12  H5  UNL     1      56.875  41.305  46.970  1.00  0.00     0.186 HD
BRANCH  11  13
HETATM   13  N6  UNL     1      55.648  40.669  48.456  1.00  0.00    -0.345 N 
ATOM     14  H62 UNL     1      55.448  39.785  48.923  1.00  0.00     0.176 HD
ATOM     15  H61 UNL     1      55.372  41.519  48.948  1.00  0.00     0.176 HD
ENDBRANCH  11  13
ENDBRANCH  10  11
BRANCH   9  16
HETATM   16  N4  UNL     1      54.966  38.437  47.981  1.00  0.00    -0.382 N 
ATOM     17  H42 UNL     1      54.804  39.352  48.402  1.00  0.00     0.157 HD
ATOM     18  H41 UNL     1      54.757  37.561  48.459  1.00  0.00     0.157 HD
ENDBRANCH   9  16
TORSDOF 3
ENDMDL
