MODEL 1
REMARK VINA RESULT: -8.164638921      0.000      0.000
REMARK  6 active torsions:
REMARK  status: ('A' for Active; 'I' for Inactive)
REMARK    1  A    between atoms: C3_5  and  C4_6 
REMARK    2  A    between atoms: C5_7  and  N2_8 
REMARK    3  A    between atoms: N2_8  and  C6_10 
REMARK    4  A    between atoms: C9_15  and  C10_16 
REMARK    5  A    between atoms: C10_16  and  N4_17 
REMARK    6  A    between atoms: N4_17  and  S1_19 
ROOT
HETATM    1  C6  UNL     1       3.495  -2.407  21.554  1.00  0.00     0.697 A 
HETATM    2  N3  UNL     1       3.087  -2.184  22.837  1.00  0.00    -0.192 N 
ATOM      3  H3  UNL     1       2.374  -1.471  22.990  1.00  0.00     0.184 HD
HETATM    4  C7  UNL     1       3.532  -2.801  23.855  1.00  0.00     0.052 A 
HETATM    5  C8  UNL     1       2.990  -2.645  25.242  1.00  0.00     0.071 C 
HETATM    6  C9  UNL     1       4.535  -3.820  23.653  1.00  0.00     0.087 A 
HETATM    7  N5  UNL     1       4.902  -4.034  22.403  1.00  0.00    -0.283 N 
ATOM      8  H5  UNL     1       5.599  -4.758  22.222  1.00  0.00     0.187 HD
HETATM    9  N6  UNL     1       4.401  -3.341  21.342  1.00  0.00    -0.131 N 
ATOM     10  H6  UNL     1       4.723  -3.543  20.396  1.00  0.00     0.205 HD
ENDROOT
BRANCH   1  11
HETATM   11  N2  UNL     1       3.002  -1.627  20.621  1.00  0.00    -0.200 N 
ATOM     12  H2  UNL     1       3.379  -1.532  19.678  1.00  0.00     0.183 HD
BRANCH  11  13
HETATM   13  C5  UNL     1       1.850  -0.925  21.127  1.00  0.00     0.108 C 
HETATM   14  C4  UNL     1       1.558   0.211  21.525  1.00  0.00     0.047 C 
BRANCH  14  15
HETATM   15  C3  UNL     1       2.367   1.421  21.658  1.00  0.00     0.040 A 
HETATM   16  N1  UNL     1       2.863   1.745  22.833  1.00  0.00    -0.354 N 
HETATM   17  C2  UNL     1       3.658   2.812  22.945  1.00  0.00     0.047 A 
ATOM     18  H1  UNL     1       2.641   1.184  23.655  1.00  0.00     0.166 HD
HETATM   19  C1  UNL     1       4.292   3.300  24.229  1.00  0.00     0.076 C 
HETATM   20  S2  UNL     1       3.723   3.381  21.348  1.00  0.00    -0.087 SA
HETATM   21  C12 UNL     1       2.720   2.227  20.594  1.00  0.00     0.081 A 
ENDBRANCH  14  15
ENDBRANCH  11  13
ENDBRANCH   1  11
BRANCH   6  22
HETATM   22  C10 UNL     1       5.205  -4.212  24.926  1.00  0.00     0.132 C 
BRANCH  22  23
HETATM   23  N4  UNL     1       5.326  -5.552  25.278  1.00  0.00    -0.293 N 
ATOM     24  H4  UNL     1       5.975  -6.209  24.846  1.00  0.00     0.177 HD
BRANCH  23  25
HETATM   25  S1  UNL     1       4.229  -5.944  26.546  1.00  0.00     0.226 S 
HETATM   26  C11 UNL     1       4.837  -7.209  27.575  1.00  0.00     0.186 C 
HETATM   27  O1  UNL     1       2.828  -6.124  26.087  1.00  0.00    -0.206 OA
HETATM   28  O2  UNL     1       4.221  -4.675  27.491  1.00  0.00    -0.206 OA
ENDBRANCH  23  25
ENDBRANCH  22  23
ENDBRANCH   6  22
TORSDOF 6
ENDMDL
MODEL 2
REMARK VINA RESULT: -8.144703616      4.370      6.982
REMARK  6 active torsions:
REMARK  status: ('A' for Active; 'I' for Inactive)
REMARK    1  A    between atoms: C3_5  and  C4_6 
REMARK    2  A    between atoms: C5_7  and  N2_8 
REMARK    3  A    between atoms: N2_8  and  C6_10 
REMARK    4  A    between atoms: C9_15  and  C10_16 
REMARK    5  A    between atoms: C10_16  and  N4_17 
REMARK    6  A    between atoms: N4_17  and  S1_19 
ROOT
HETATM    1  C6  UNL     1       2.554   0.694  21.627  1.00  0.00     0.697 A 
HETATM    2  N3  UNL     1       3.387   1.744  21.367  1.00  0.00    -0.192 N 
ATOM      3  H3  UNL     1       3.660   1.904  20.398  1.00  0.00     0.184 HD
HETATM    4  C7  UNL     1       3.847   2.536  22.247  1.00  0.00     0.052 A 
HETATM    5  C8  UNL     1       4.653   3.761  21.945  1.00  0.00     0.071 C 
HETATM    6  C9  UNL     1       3.463   2.328  23.623  1.00  0.00     0.087 A 
HETATM    7  N5  UNL     1       2.642   1.319  23.852  1.00  0.00    -0.283 N 
ATOM      8  H5  UNL     1       2.338   1.152  24.812  1.00  0.00     0.187 HD
HETATM    9  N6  UNL     1       2.180   0.490  22.874  1.00  0.00    -0.131 N 
ATOM     10  H6  UNL     1       1.551  -0.279  23.105  1.00  0.00     0.205 HD
ENDROOT
BRANCH   1  11
HETATM   11  N2  UNL     1       2.236  -0.085  20.620  1.00  0.00    -0.200 N 
ATOM     12  H2  UNL     1       1.741   0.217  19.781  1.00  0.00     0.183 HD
BRANCH  11  13
HETATM   13  C5  UNL     1       2.687  -1.429  20.877  1.00  0.00     0.108 C 
HETATM   14  C4  UNL     1       2.229  -2.492  21.316  1.00  0.00     0.047 C 
BRANCH  14  15
HETATM   15  C3  UNL     1       0.896  -2.834  21.809  1.00  0.00     0.040 A 
HETATM   16  N1  UNL     1       0.083  -3.538  21.051  1.00  0.00    -0.354 N 
HETATM   17  C2  UNL     1      -1.109  -3.910  21.524  1.00  0.00     0.047 A 
ATOM     18  H1  UNL     1       0.362  -3.799  20.106  1.00  0.00     0.166 HD
HETATM   19  C1  UNL     1      -2.141  -4.715  20.765  1.00  0.00     0.076 C 
HETATM   20  S2  UNL     1      -1.093  -3.258  23.091  1.00  0.00    -0.087 SA
HETATM   21  C12 UNL     1       0.448  -2.527  23.078  1.00  0.00     0.081 A 
ENDBRANCH  14  15
ENDBRANCH  11  13
ENDBRANCH   1  11
BRANCH   6  22
HETATM   22  C10 UNL     1       4.324   3.092  24.572  1.00  0.00     0.132 C 
BRANCH  22  23
HETATM   23  N4  UNL     1       3.769   4.034  25.429  1.00  0.00    -0.293 N 
ATOM     24  H4  UNL     1       3.615   5.014  25.194  1.00  0.00     0.177 HD
BRANCH  23  25
HETATM   25  S1  UNL     1       3.379   3.316  26.945  1.00  0.00     0.226 S 
HETATM   26  C11 UNL     1       4.650   3.516  28.116  1.00  0.00     0.186 C 
HETATM   27  O1  UNL     1       2.840   1.936  26.829  1.00  0.00    -0.206 OA
HETATM   28  O2  UNL     1       2.202   4.199  27.528  1.00  0.00    -0.206 OA
ENDBRANCH  23  25
ENDBRANCH  22  23
ENDBRANCH   6  22
TORSDOF 6
ENDMDL
MODEL 3
REMARK VINA RESULT: -8.078510146      4.594      7.269
REMARK  6 active torsions:
REMARK  status: ('A' for Active; 'I' for Inactive)
REMARK    1  A    between atoms: C3_5  and  C4_6 
REMARK    2  A    between atoms: C5_7  and  N2_8 
REMARK    3  A    between atoms: N2_8  and  C6_10 
REMARK    4  A    between atoms: C9_15  and  C10_16 
REMARK    5  A    between atoms: C10_16  and  N4_17 
REMARK    6  A    between atoms: N4_17  and  S1_19 
ROOT
HETATM    1  C6  UNL     1       2.378  -2.294  23.860  1.00  0.00     0.697 A 
HETATM    2  N3  UNL     1       2.467  -1.072  24.462  1.00  0.00    -0.192 N 
ATOM      3  H3  UNL     1       2.380  -1.038  25.478  1.00  0.00     0.184 HD
HETATM    4  C7  UNL     1       2.649   0.025  23.849  1.00  0.00     0.052 A 
HETATM    5  C8  UNL     1       2.876   1.343  24.521  1.00  0.00     0.071 C 
HETATM    6  C9  UNL     1       2.782  -0.009  22.411  1.00  0.00     0.087 A 
HETATM    7  N5  UNL     1       2.713  -1.202  21.849  1.00  0.00    -0.283 N 
ATOM      8  H5  UNL     1       2.818  -1.265  20.836  1.00  0.00     0.187 HD
HETATM    9  N6  UNL     1       2.509  -2.353  22.549  1.00  0.00    -0.131 N 
ATOM     10  H6  UNL     1       2.458  -3.249  22.065  1.00  0.00     0.205 HD
ENDROOT
BRANCH   1  11
HETATM   11  N2  UNL     1       2.102  -3.324  24.624  1.00  0.00    -0.200 N 
ATOM     12  H2  UNL     1       2.763  -4.056  24.882  1.00  0.00     0.183 HD
BRANCH  11  13
HETATM   13  C5  UNL     1       0.725  -3.266  25.046  1.00  0.00     0.108 C 
HETATM   14  C4  UNL     1      -0.392  -3.089  24.541  1.00  0.00     0.047 C 
BRANCH  14  15
HETATM   15  C3  UNL     1      -0.793  -2.831  23.159  1.00  0.00     0.040 A 
HETATM   16  N1  UNL     1      -1.101  -3.839  22.372  1.00  0.00    -0.354 N 
HETATM   17  C2  UNL     1      -1.532  -3.603  21.130  1.00  0.00     0.047 A 
ATOM     18  H1  UNL     1      -1.011  -4.797  22.709  1.00  0.00     0.166 HD
HETATM   19  C1  UNL     1      -1.917  -4.663  20.121  1.00  0.00     0.076 C 
HETATM   20  S2  UNL     1      -1.514  -1.908  21.060  1.00  0.00    -0.087 SA
HETATM   21  C12 UNL     1      -0.947  -1.565  22.631  1.00  0.00     0.081 A 
ENDBRANCH  14  15
ENDBRANCH  11  13
ENDBRANCH   1  11
BRANCH   6  22
HETATM   22  C10 UNL     1       2.648   1.344  21.800  1.00  0.00     0.132 C 
BRANCH  22  23
HETATM   23  N4  UNL     1       3.158   1.602  20.533  1.00  0.00    -0.293 N 
ATOM     24  H4  UNL     1       3.158   0.937  19.760  1.00  0.00     0.177 HD
BRANCH  23  25
HETATM   25  S1  UNL     1       3.788   3.203  20.451  1.00  0.00     0.226 S 
HETATM   26  C11 UNL     1       4.135   3.856  22.026  1.00  0.00     0.186 C 
HETATM   27  O1  UNL     1       3.019   4.101  19.552  1.00  0.00    -0.206 OA
HETATM   28  O2  UNL     1       5.220   3.048  19.795  1.00  0.00    -0.206 OA
ENDBRANCH  23  25
ENDBRANCH  22  23
ENDBRANCH   6  22
TORSDOF 6
ENDMDL
MODEL 4
REMARK VINA RESULT: -7.944308479      4.210      5.608
REMARK  6 active torsions:
REMARK  status: ('A' for Active; 'I' for Inactive)
REMARK    1  A    between atoms: C3_5  and  C4_6 
REMARK    2  A    between atoms: C5_7  and  N2_8 
REMARK    3  A    between atoms: N2_8  and  C6_10 
REMARK    4  A    between atoms: C9_15  and  C10_16 
REMARK    5  A    between atoms: C10_16  and  N4_17 
REMARK    6  A    between atoms: N4_17  and  S1_19 
ROOT
HETATM    1  C6  UNL     1       2.120  -1.650  24.243  1.00  0.00     0.697 A 
HETATM    2  N3  UNL     1       0.842  -1.641  24.722  1.00  0.00    -0.192 N 
ATOM      3  H3  UNL     1       0.671  -1.165  25.608  1.00  0.00     0.184 HD
HETATM    4  C7  UNL     1      -0.151  -2.183  24.144  1.00  0.00     0.052 A 
HETATM    5  C8  UNL     1      -1.570  -2.060  24.605  1.00  0.00     0.071 C 
HETATM    6  C9  UNL     1       0.073  -2.853  22.885  1.00  0.00     0.087 A 
HETATM    7  N5  UNL     1       1.312  -2.835  22.429  1.00  0.00    -0.283 N 
ATOM      8  H5  UNL     1       1.504  -3.286  21.534  1.00  0.00     0.187 HD
HETATM    9  N6  UNL     1       2.348  -2.245  23.089  1.00  0.00    -0.131 N 
ATOM     10  H6  UNL     1       3.288  -2.264  22.695  1.00  0.00     0.205 HD
ENDROOT
BRANCH   1  11
HETATM   11  N2  UNL     1       3.051  -1.120  25.001  1.00  0.00    -0.200 N 
ATOM     12  H2  UNL     1       3.965  -1.534  25.181  1.00  0.00     0.183 HD
BRANCH  11  13
HETATM   13  C5  UNL     1       2.589   0.134  25.540  1.00  0.00     0.108 C 
HETATM   14  C4  UNL     1       2.617   1.336  25.245  1.00  0.00     0.047 C 
BRANCH  14  15
HETATM   15  C3  UNL     1       3.207   2.033  24.104  1.00  0.00     0.040 A 
HETATM   16  N1  UNL     1       2.725   1.828  22.897  1.00  0.00    -0.354 N 
HETATM   17  C2  UNL     1       3.217   2.512  21.862  1.00  0.00     0.047 A 
ATOM     18  H1  UNL     1       1.979   1.148  22.753  1.00  0.00     0.166 HD
HETATM   19  C1  UNL     1       2.761   2.376  20.425  1.00  0.00     0.076 C 
HETATM   20  S2  UNL     1       4.393   3.487  22.601  1.00  0.00    -0.087 SA
HETATM   21  C12 UNL     1       4.211   2.973  24.217  1.00  0.00     0.081 A 
ENDBRANCH  14  15
ENDBRANCH  11  13
ENDBRANCH   1  11
BRANCH   6  22
HETATM   22  C10 UNL     1      -1.074  -3.722  22.496  1.00  0.00     0.132 C 
BRANCH  22  23
HETATM   23  N4  UNL     1      -1.306  -4.033  21.161  1.00  0.00    -0.293 N 
ATOM     24  H4  UNL     1      -1.452  -4.976  20.801  1.00  0.00     0.177 HD
BRANCH  23  25
HETATM   25  S1  UNL     1      -1.313  -2.604  20.200  1.00  0.00     0.226 S 
HETATM   26  C11 UNL     1      -2.175  -2.820  18.704  1.00  0.00     0.186 C 
HETATM   27  O1  UNL     1       0.022  -1.965  20.073  1.00  0.00    -0.206 OA
HETATM   28  O2  UNL     1      -2.217  -1.577  20.997  1.00  0.00    -0.206 OA
ENDBRANCH  23  25
ENDBRANCH  22  23
ENDBRANCH   6  22
TORSDOF 6
ENDMDL
MODEL 5
REMARK VINA RESULT: -7.928559858      4.502      5.777
REMARK  6 active torsions:
REMARK  status: ('A' for Active; 'I' for Inactive)
REMARK    1  A    between atoms: C3_5  and  C4_6 
REMARK    2  A    between atoms: C5_7  and  N2_8 
REMARK    3  A    between atoms: N2_8  and  C6_10 
REMARK    4  A    between atoms: C9_15  and  C10_16 
REMARK    5  A    between atoms: C10_16  and  N4_17 
REMARK    6  A    between atoms: N4_17  and  S1_19 
ROOT
HETATM    1  C6  UNL     1       1.861  -0.293  24.199  1.00  0.00     0.697 A 
HETATM    2  N3  UNL     1       0.704  -0.561  24.872  1.00  0.00    -0.192 N 
ATOM      3  H3  UNL     1       0.726  -0.514  25.890  1.00  0.00     0.184 HD
HETATM    4  C7  UNL     1      -0.400  -0.864  24.320  1.00  0.00     0.052 A 
HETATM    5  C8  UNL     1      -1.695  -1.029  25.052  1.00  0.00     0.071 C 
HETATM    6  C9  UNL     1      -0.449  -0.926  22.878  1.00  0.00     0.087 A 
HETATM    7  N5  UNL     1       0.675  -0.645  22.245  1.00  0.00    -0.283 N 
ATOM      8  H5  UNL     1       0.673  -0.664  21.225  1.00  0.00     0.187 HD
HETATM    9  N6  UNL     1       1.839  -0.331  22.882  1.00  0.00    -0.131 N 
ATOM     10  H6  UNL     1       2.681  -0.127  22.345  1.00  0.00     0.205 HD
ENDROOT
BRANCH   1  11
HETATM   11  N2  UNL     1       2.939  -0.079  24.917  1.00  0.00    -0.200 N 
ATOM     12  H2  UNL     1       3.648  -0.780  25.131  1.00  0.00     0.183 HD
BRANCH  11  13
HETATM   13  C5  UNL     1       2.971   1.292  25.358  1.00  0.00     0.108 C 
HETATM   14  C4  UNL     1       3.255   2.407  24.899  1.00  0.00     0.047 C 
BRANCH  14  15
HETATM   15  C3  UNL     1       3.731   2.809  23.577  1.00  0.00     0.040 A 
HETATM   16  N1  UNL     1       2.992   2.562  22.516  1.00  0.00    -0.354 N 
HETATM   17  C2  UNL     1       3.393   2.987  21.316  1.00  0.00     0.047 A 
ATOM     18  H1  UNL     1       2.117   2.046  22.611  1.00  0.00     0.166 HD
HETATM   19  C1  UNL     1       2.647   2.772  20.016  1.00  0.00     0.076 C 
HETATM   20  S2  UNL     1       4.853   3.771  21.681  1.00  0.00    -0.087 SA
HETATM   21  C12 UNL     1       4.897   3.517  23.366  1.00  0.00     0.081 A 
ENDBRANCH  14  15
ENDBRANCH  11  13
ENDBRANCH   1  11
BRANCH   6  22
HETATM   22  C10 UNL     1      -1.676  -1.613  22.385  1.00  0.00     0.132 C 
BRANCH  22  23
HETATM   23  N4  UNL     1      -1.909  -1.755  21.021  1.00  0.00    -0.293 N 
ATOM     24  H4  UNL     1      -2.417  -1.084  20.446  1.00  0.00     0.177 HD
BRANCH  23  25
HETATM   25  S1  UNL     1      -1.218  -3.221  20.440  1.00  0.00     0.226 S 
HETATM   26  C11 UNL     1      -2.039  -4.626  21.058  1.00  0.00     0.186 C 
HETATM   27  O1  UNL     1       0.263  -3.262  20.539  1.00  0.00    -0.206 OA
HETATM   28  O2  UNL     1      -1.556  -3.251  18.894  1.00  0.00    -0.206 OA
ENDBRANCH  23  25
ENDBRANCH  22  23
ENDBRANCH   6  22
TORSDOF 6
ENDMDL
