MODEL 1
REMARK VINA RESULT: -7.152845816      0.000      0.000
REMARK  11 active torsions:
REMARK  status: ('A' for Active; 'I' for Inactive)
REMARK    1  A    between atoms: C2_2  and  N1_3 
REMARK    2  A    between atoms: C2_2  and  O1_7 
REMARK    3  A    between atoms: C2_2  and  C3_9 
REMARK    4  A    between atoms: C3_9  and  O2_10 
REMARK    5  A    between atoms: C3_9  and  C4_12 
REMARK    6  A    between atoms: C4_12  and  O3_13 
REMARK    7  A    between atoms: C4_12  and  N2_15 
REMARK    8  A    between atoms: N2_15  and  C5_17 
REMARK    9  A    between atoms: C6_23  and  N5_24 
REMARK   10  A    between atoms: C7_29  and  C8_30 
REMARK   11  A    between atoms: C12_38  and  N11_39 
ROOT
HETATM    1  C8  UNL     1       3.647   0.979  28.033  1.00  0.00     0.059 A 
HETATM    2  C9  UNL     1       4.733   1.235  27.203  1.00  0.00     0.101 A 
HETATM    3  C10 UNL     1       6.033   1.056  27.770  1.00  0.00     0.104 C 
HETATM    4  N8  UNL     1       7.095   0.890  28.240  1.00  0.00    -0.191 NA
HETATM    5  C11 UNL     1       4.598   1.640  25.899  1.00  0.00     0.139 A 
HETATM    6  N9  UNL     1       5.703   1.898  25.060  1.00  0.00    -0.081 NA
HETATM    7  N10 UNL     1       3.367   1.807  25.372  1.00  0.00    -0.329 N 
ATOM      8  H10 UNL     1       3.250   2.108  24.405  1.00  0.00     0.168 HD
HETATM    9  C12 UNL     1       2.297   1.566  26.153  1.00  0.00     0.122 A 
HETATM   10  C13 UNL     1       2.400   1.159  27.464  1.00  0.00     0.103 A 
HETATM   11  C14 UNL     1       1.219   0.916  28.254  1.00  0.00     0.104 C 
HETATM   12  N12 UNL     1       0.263   0.734  28.878  1.00  0.00    -0.191 NA
ENDROOT
BRANCH   1  13
HETATM   13  C7  UNL     1       3.833   0.549  29.416  1.00  0.00     0.151 A 
HETATM   14  N7  UNL     1       3.898   1.299  30.520  1.00  0.00    -0.267 N 
HETATM   15  N6  UNL     1       4.076   0.470  31.549  1.00  0.00    -0.218 N 
ATOM     16  H7  UNL     1       3.824   2.315  30.567  1.00  0.00     0.190 HD
HETATM   17  N5  UNL     1       4.127  -0.781  31.135  1.00  0.00    -0.158 N 
ATOM     18  H6  UNL     1       4.161   0.763  32.523  1.00  0.00     0.210 HD
HETATM   19  N13 UNL     1       3.976  -0.725  29.816  1.00  0.00    -0.259 N 
ATOM     20  H13 UNL     1       3.969  -1.534  29.195  1.00  0.00     0.191 HD
BRANCH  17  21
HETATM   21  C6  UNL     1       4.306  -1.944  31.952  1.00  0.00     0.214 A 
HETATM   22  C5  UNL     1       5.471  -2.646  32.155  1.00  0.00     0.175 A 
HETATM   23  N3  UNL     1       5.159  -3.651  32.987  1.00  0.00    -0.222 N 
HETATM   24  O4  UNL     1       3.904  -3.597  33.290  1.00  0.00    -0.153 OA
ATOM     25  H3  UNL     1       5.816  -4.354  33.328  1.00  0.00     0.198 HD
HETATM   26  N4  UNL     1       3.384  -2.591  32.684  1.00  0.00    -0.219 N 
ATOM     27  H4  UNL     1       2.402  -2.320  32.750  1.00  0.00     0.198 HD
BRANCH  22  28
HETATM   28  N2  UNL     1       6.755  -2.354  31.586  1.00  0.00    -0.343 N 
ATOM     29  H2  UNL     1       7.042  -2.775  30.702  1.00  0.00     0.164 HD
BRANCH  28  30
HETATM   30  C4  UNL     1       7.627  -1.458  32.290  1.00  0.00     0.253 C 
BRANCH  30  31
HETATM   31  C3  UNL     1       8.968  -1.238  31.699  1.00  0.00     0.228 C 
BRANCH  31  32
HETATM   32  C2  UNL     1       9.950  -0.473  32.537  1.00  0.00     0.248 C 
HETATM   33  C1  UNL     1      11.124   0.097  31.834  1.00  0.00     0.081 C 
BRANCH  32  34
HETATM   34  N1  UNL     1      10.360  -1.274  33.672  1.00  0.00    -0.045 N 
ATOM     35  H13 UNL     1      11.277  -1.695  33.522  1.00  0.00     0.278 HD
ATOM     36  H12 UNL     1      10.586  -0.693  34.479  1.00  0.00     0.278 HD
ATOM     37  H11 UNL     1       9.656  -1.976  33.898  1.00  0.00     0.278 HD
ENDBRANCH  32  34
BRANCH  32  38
HETATM   38  O1  UNL     1       9.189   0.585  33.108  1.00  0.00    -0.363 OA
ATOM     39  H1  UNL     1       9.420   0.677  34.025  1.00  0.00     0.212 HD
ENDBRANCH  32  38
ENDBRANCH  31  32
BRANCH  31  40
HETATM   40  O2  UNL     1       8.797  -0.429  30.531  1.00  0.00    -0.386 OA
ATOM     41  H2  UNL     1       9.114  -0.975  29.821  1.00  0.00     0.210 HD
ENDBRANCH  31  40
ENDBRANCH  30  31
BRANCH  30  42
HETATM   42  O3  UNL     1       7.676  -1.758  33.660  1.00  0.00    -0.374 OA
ATOM     43  H3  UNL     1       6.821  -1.734  34.075  1.00  0.00     0.212 HD
ENDBRANCH  30  42
ENDBRANCH  28  30
ENDBRANCH  22  28
ENDBRANCH  17  21
ENDBRANCH   1  13
BRANCH   9  44
HETATM   44  N11 UNL     1       1.125   1.727  25.646  1.00  0.00    -0.384 N 
ATOM     45 2H11 UNL     1       0.995   1.551  24.650  1.00  0.00     0.157 HD
ATOM     46 1H11 UNL     1       0.370   2.025  26.262  1.00  0.00     0.157 HD
ENDBRANCH   9  44
TORSDOF 11
ENDMDL
MODEL 2
REMARK VINA RESULT: -7.121952161      2.232      4.838
REMARK  11 active torsions:
REMARK  status: ('A' for Active; 'I' for Inactive)
REMARK    1  A    between atoms: C2_2  and  N1_3 
REMARK    2  A    between atoms: C2_2  and  O1_7 
REMARK    3  A    between atoms: C2_2  and  C3_9 
REMARK    4  A    between atoms: C3_9  and  O2_10 
REMARK    5  A    between atoms: C3_9  and  C4_12 
REMARK    6  A    between atoms: C4_12  and  O3_13 
REMARK    7  A    between atoms: C4_12  and  N2_15 
REMARK    8  A    between atoms: N2_15  and  C5_17 
REMARK    9  A    between atoms: C6_23  and  N5_24 
REMARK   10  A    between atoms: C7_29  and  C8_30 
REMARK   11  A    between atoms: C12_38  and  N11_39 
ROOT
HETATM    1  C8  UNL     1       6.189  -0.091  28.816  1.00  0.00     0.059 A 
HETATM    2  C9  UNL     1       5.992   0.472  27.559  1.00  0.00     0.101 A 
HETATM    3  C10 UNL     1       7.123   0.506  26.685  1.00  0.00     0.104 C 
HETATM    4  N8  UNL     1       8.053   0.515  25.971  1.00  0.00    -0.191 NA
HETATM    5  C11 UNL     1       4.786   0.979  27.147  1.00  0.00     0.139 A 
HETATM    6  N9  UNL     1       4.591   1.548  25.871  1.00  0.00    -0.081 NA
HETATM    7  N10 UNL     1       3.723   0.942  27.979  1.00  0.00    -0.329 N 
ATOM      8  H10 UNL     1       2.820   1.314  27.688  1.00  0.00     0.168 HD
HETATM    9  C12 UNL     1       3.884   0.403  29.201  1.00  0.00     0.122 A 
HETATM   10  C13 UNL     1       5.082  -0.113  29.644  1.00  0.00     0.103 A 
HETATM   11  C14 UNL     1       5.196  -0.679  30.964  1.00  0.00     0.104 C 
HETATM   12  N12 UNL     1       5.275  -1.121  32.030  1.00  0.00    -0.191 NA
ENDROOT
BRANCH   1  13
HETATM   13  C7  UNL     1       7.490  -0.619  29.217  1.00  0.00     0.151 A 
HETATM   14  N7  UNL     1       8.051  -1.786  28.890  1.00  0.00    -0.267 N 
HETATM   15  N6  UNL     1       9.241  -1.832  29.489  1.00  0.00    -0.218 N 
ATOM     16  H7  UNL     1       7.646  -2.506  28.293  1.00  0.00     0.190 HD
HETATM   17  N5  UNL     1       9.453  -0.733  30.187  1.00  0.00    -0.158 N 
ATOM     18  H6  UNL     1       9.898  -2.610  29.419  1.00  0.00     0.210 HD
HETATM   19  N13 UNL     1       8.367   0.012  30.014  1.00  0.00    -0.259 N 
ATOM     20  H13 UNL     1       8.220   0.933  30.428  1.00  0.00     0.191 HD
BRANCH  17  21
HETATM   21  C6  UNL     1      10.618  -0.425  30.961  1.00  0.00     0.214 A 
HETATM   22  C5  UNL     1      11.101  -1.116  32.047  1.00  0.00     0.175 A 
HETATM   23  N3  UNL     1      12.203  -0.463  32.445  1.00  0.00    -0.222 N 
HETATM   24  O4  UNL     1      12.408   0.558  31.678  1.00  0.00    -0.153 OA
ATOM     25  H3  UNL     1      12.792  -0.731  33.234  1.00  0.00     0.198 HD
HETATM   26  N4  UNL     1      11.477   0.595  30.795  1.00  0.00    -0.219 N 
ATOM     27  H4  UNL     1      11.400   1.304  30.065  1.00  0.00     0.198 HD
BRANCH  22  28
HETATM   28  N2  UNL     1      10.533  -2.297  32.631  1.00  0.00    -0.343 N 
ATOM     29  H2  UNL     1      10.742  -3.220  32.250  1.00  0.00     0.164 HD
BRANCH  28  30
HETATM   30  C4  UNL     1       9.664  -2.150  33.763  1.00  0.00     0.253 C 
BRANCH  30  31
HETATM   31  C3  UNL     1       8.214  -2.325  33.511  1.00  0.00     0.228 C 
BRANCH  31  32
HETATM   32  C2  UNL     1       7.550  -3.479  34.203  1.00  0.00     0.248 C 
HETATM   33  C1  UNL     1       8.339  -4.728  34.319  1.00  0.00     0.081 C 
BRANCH  32  34
HETATM   34  N1  UNL     1       6.256  -3.735  33.606  1.00  0.00    -0.045 N 
ATOM     35  H13 UNL     1       5.809  -2.872  33.296  1.00  0.00     0.278 HD
ATOM     36  H12 UNL     1       6.344  -4.198  32.702  1.00  0.00     0.278 HD
ATOM     37  H11 UNL     1       5.657  -4.262  34.242  1.00  0.00     0.278 HD
ENDBRANCH  32  34
BRANCH  32  38
HETATM   38  O1  UNL     1       7.250  -2.994  35.506  1.00  0.00    -0.363 OA
ATOM     39  H1  UNL     1       6.796  -2.163  35.433  1.00  0.00     0.212 HD
ENDBRANCH  32  38
ENDBRANCH  31  32
BRANCH  31  40
HETATM   40  O2  UNL     1       8.049  -2.608  32.118  1.00  0.00    -0.386 OA
ATOM     41  H2  UNL     1       8.914  -2.472  31.749  1.00  0.00     0.210 HD
ENDBRANCH  31  40
ENDBRANCH  30  31
BRANCH  30  42
HETATM   42  O3  UNL     1       9.957  -0.985  34.488  1.00  0.00    -0.374 OA
ATOM     43  H3  UNL     1      10.826  -0.646  34.308  1.00  0.00     0.212 HD
ENDBRANCH  30  42
ENDBRANCH  28  30
ENDBRANCH  22  28
ENDBRANCH  17  21
ENDBRANCH   1  13
BRANCH   9  44
HETATM   44  N11 UNL     1       2.868   0.371  29.991  1.00  0.00    -0.384 N 
ATOM     45 2H11 UNL     1       2.970   0.743  30.934  1.00  0.00     0.157 HD
ATOM     46 1H11 UNL     1       1.997  -0.027  29.640  1.00  0.00     0.157 HD
ENDBRANCH   9  44
TORSDOF 11
ENDMDL
MODEL 3
REMARK VINA RESULT: -7.108101564      2.295      5.166
REMARK  11 active torsions:
REMARK  status: ('A' for Active; 'I' for Inactive)
REMARK    1  A    between atoms: C2_2  and  N1_3 
REMARK    2  A    between atoms: C2_2  and  O1_7 
REMARK    3  A    between atoms: C2_2  and  C3_9 
REMARK    4  A    between atoms: C3_9  and  O2_10 
REMARK    5  A    between atoms: C3_9  and  C4_12 
REMARK    6  A    between atoms: C4_12  and  O3_13 
REMARK    7  A    between atoms: C4_12  and  N2_15 
REMARK    8  A    between atoms: N2_15  and  C5_17 
REMARK    9  A    between atoms: C6_23  and  N5_24 
REMARK   10  A    between atoms: C7_29  and  C8_30 
REMARK   11  A    between atoms: C12_38  and  N11_39 
ROOT
HETATM    1  C8  UNL     1       6.228  -0.110  28.720  1.00  0.00     0.059 A 
HETATM    2  C9  UNL     1       5.127  -0.081  29.571  1.00  0.00     0.101 A 
HETATM    3  C10 UNL     1       5.319  -0.597  30.890  1.00  0.00     0.104 C 
HETATM    4  N8  UNL     1       5.492  -1.008  31.974  1.00  0.00    -0.191 NA
HETATM    5  C11 UNL     1       3.904   0.412  29.193  1.00  0.00     0.139 A 
HETATM    6  N9  UNL     1       2.791   0.440  30.058  1.00  0.00    -0.081 NA
HETATM    7  N10 UNL     1       3.733   0.897  27.945  1.00  0.00    -0.329 N 
ATOM      8  H10 UNL     1       2.830   1.267  27.649  1.00  0.00     0.168 HD
HETATM    9  C12 UNL     1       4.780   0.882  27.101  1.00  0.00     0.122 A 
HETATM   10  C13 UNL     1       6.020   0.394  27.450  1.00  0.00     0.103 A 
HETATM   11  C14 UNL     1       7.107   0.402  26.504  1.00  0.00     0.104 C 
HETATM   12  N12 UNL     1       7.968   0.407  25.732  1.00  0.00    -0.191 NA
ENDROOT
BRANCH   1  13
HETATM   13  C7  UNL     1       7.514  -0.643  29.161  1.00  0.00     0.151 A 
HETATM   14  N7  UNL     1       8.042  -1.847  28.924  1.00  0.00    -0.267 N 
HETATM   15  N6  UNL     1       9.231  -1.882  29.526  1.00  0.00    -0.218 N 
ATOM     16  H7  UNL     1       7.616  -2.599  28.382  1.00  0.00     0.190 HD
HETATM   17  N5  UNL     1       9.475  -0.740  30.139  1.00  0.00    -0.158 N 
ATOM     18  H6  UNL     1       9.865  -2.682  29.515  1.00  0.00     0.210 HD
HETATM   19  N13 UNL     1       8.410   0.021  29.909  1.00  0.00    -0.259 N 
ATOM     20  H13 UNL     1       8.290   0.974  30.252  1.00  0.00     0.191 HD
BRANCH  17  21
HETATM   21  C6  UNL     1      10.649  -0.407  30.889  1.00  0.00     0.214 A 
HETATM   22  C5  UNL     1      11.155  -1.074  31.979  1.00  0.00     0.175 A 
HETATM   23  N3  UNL     1      12.257  -0.404  32.347  1.00  0.00    -0.222 N 
HETATM   24  O4  UNL     1      12.442   0.604  31.558  1.00  0.00    -0.153 OA
ATOM     25  H3  UNL     1      12.860  -0.652  33.132  1.00  0.00     0.198 HD
HETATM   26  N4  UNL     1      11.497   0.616  30.689  1.00  0.00    -0.219 N 
ATOM     27  H4  UNL     1      11.402   1.310  29.947  1.00  0.00     0.198 HD
BRANCH  22  28
HETATM   28  N2  UNL     1      10.606  -2.247  32.595  1.00  0.00    -0.343 N 
ATOM     29  H2  UNL     1      10.837  -3.177  32.244  1.00  0.00     0.164 HD
BRANCH  28  30
HETATM   30  C4  UNL     1       9.723  -2.084  33.714  1.00  0.00     0.253 C 
BRANCH  30  31
HETATM   31  C3  UNL     1       8.277  -2.266  33.449  1.00  0.00     0.228 C 
BRANCH  31  32
HETATM   32  C2  UNL     1       7.593  -3.367  34.208  1.00  0.00     0.248 C 
HETATM   33  C1  UNL     1       7.987  -3.542  35.626  1.00  0.00     0.081 C 
BRANCH  32  34
HETATM   34  N1  UNL     1       7.705  -4.613  33.479  1.00  0.00    -0.045 N 
ATOM     35  H13 UNL     1       8.449  -4.574  32.782  1.00  0.00     0.278 HD
ATOM     36  H12 UNL     1       8.080  -5.358  34.065  1.00  0.00     0.278 HD
ATOM     37  H11 UNL     1       6.812  -4.875  33.062  1.00  0.00     0.278 HD
ENDBRANCH  32  34
BRANCH  32  38
HETATM   38  O1  UNL     1       6.209  -3.042  34.144  1.00  0.00    -0.363 OA
ATOM     39  H1  UNL     1       5.698  -3.839  34.217  1.00  0.00     0.212 HD
ENDBRANCH  32  38
ENDBRANCH  31  32
BRANCH  31  40
HETATM   40  O2  UNL     1       8.134  -2.645  32.077  1.00  0.00    -0.386 OA
ATOM     41  H2  UNL     1       8.832  -3.274  31.935  1.00  0.00     0.210 HD
ENDBRANCH  31  40
ENDBRANCH  30  31
BRANCH  30  42
HETATM   42  O3  UNL     1      10.005  -0.906  34.423  1.00  0.00    -0.374 OA
ATOM     43  H3  UNL     1      10.922  -0.828  34.663  1.00  0.00     0.212 HD
ENDBRANCH  30  42
ENDBRANCH  28  30
ENDBRANCH  22  28
ENDBRANCH  17  21
ENDBRANCH   1  13
BRANCH   9  44
HETATM   44  N11 UNL     1       4.611   1.346  25.912  1.00  0.00    -0.384 N 
ATOM     45 2H11 UNL     1       4.310   0.707  25.176  1.00  0.00     0.157 HD
ATOM     46 1H11 UNL     1       4.785   2.337  25.752  1.00  0.00     0.157 HD
ENDBRANCH   9  44
TORSDOF 11
ENDMDL
MODEL 4
REMARK VINA RESULT: -7.105483919      2.170      4.682
REMARK  11 active torsions:
REMARK  status: ('A' for Active; 'I' for Inactive)
REMARK    1  A    between atoms: C2_2  and  N1_3 
REMARK    2  A    between atoms: C2_2  and  O1_7 
REMARK    3  A    between atoms: C2_2  and  C3_9 
REMARK    4  A    between atoms: C3_9  and  O2_10 
REMARK    5  A    between atoms: C3_9  and  C4_12 
REMARK    6  A    between atoms: C4_12  and  O3_13 
REMARK    7  A    between atoms: C4_12  and  N2_15 
REMARK    8  A    between atoms: N2_15  and  C5_17 
REMARK    9  A    between atoms: C6_23  and  N5_24 
REMARK   10  A    between atoms: C7_29  and  C8_30 
REMARK   11  A    between atoms: C12_38  and  N11_39 
ROOT
HETATM    1  C8  UNL     1       6.148   0.469  28.199  1.00  0.00     0.059 A 
HETATM    2  C9  UNL     1       6.090   0.867  26.868  1.00  0.00     0.101 A 
HETATM    3  C10 UNL     1       7.238   0.590  26.063  1.00  0.00     0.104 C 
HETATM    4  N8  UNL     1       8.179   0.345  25.407  1.00  0.00    -0.191 NA
HETATM    5  C11 UNL     1       4.999   1.495  26.323  1.00  0.00     0.139 A 
HETATM    6  N9  UNL     1       4.944   1.897  24.971  1.00  0.00    -0.081 NA
HETATM    7  N10 UNL     1       3.919   1.752  27.091  1.00  0.00    -0.329 N 
ATOM      8  H10 UNL     1       3.101   2.219  26.700  1.00  0.00     0.168 HD
HETATM    9  C12 UNL     1       3.947   1.378  28.383  1.00  0.00     0.122 A 
HETATM   10  C13 UNL     1       5.027   0.746  28.959  1.00  0.00     0.103 A 
HETATM   11  C14 UNL     1       5.002   0.367  30.349  1.00  0.00     0.104 C 
HETATM   12  N12 UNL     1       4.971   0.078  31.468  1.00  0.00    -0.191 NA
ENDROOT
BRANCH   1  13
HETATM   13  C7  UNL     1       7.328  -0.198  28.742  1.00  0.00     0.151 A 
HETATM   14  N7  UNL     1       7.521  -1.501  28.961  1.00  0.00    -0.267 N 
HETATM   15  N6  UNL     1       8.748  -1.639  29.464  1.00  0.00    -0.218 N 
ATOM     16  H7  UNL     1       6.855  -2.251  28.777  1.00  0.00     0.190 HD
HETATM   17  N5  UNL     1       9.340  -0.465  29.572  1.00  0.00    -0.158 N 
ATOM     18  H6  UNL     1       9.171  -2.529  29.730  1.00  0.00     0.210 HD
HETATM   19  N13 UNL     1       8.457   0.420  29.123  1.00  0.00    -0.259 N 
ATOM     20  H13 UNL     1       8.615   1.427  29.076  1.00  0.00     0.191 HD
BRANCH  17  21
HETATM   21  C6  UNL     1      10.661  -0.218  30.070  1.00  0.00     0.214 A 
HETATM   22  C5  UNL     1      11.026   0.021  31.373  1.00  0.00     0.175 A 
HETATM   23  N3  UNL     1      12.356   0.197  31.361  1.00  0.00    -0.222 N 
HETATM   24  O4  UNL     1      12.803   0.079  30.153  1.00  0.00    -0.153 OA
ATOM     25  H3  UNL     1      12.930   0.394  32.181  1.00  0.00     0.198 HD
HETATM   26  N4  UNL     1      11.811  -0.166  29.376  1.00  0.00    -0.219 N 
ATOM     27  H4  UNL     1      11.885  -0.302  28.368  1.00  0.00     0.198 HD
BRANCH  22  28
HETATM   28  N2  UNL     1      10.154   0.071  32.511  1.00  0.00    -0.343 N 
ATOM     29  H2  UNL     1       9.879   0.965  32.919  1.00  0.00     0.164 HD
BRANCH  28  30
HETATM   30  C4  UNL     1       9.677  -1.165  33.063  1.00  0.00     0.253 C 
BRANCH  30  31
HETATM   31  C3  UNL     1       8.207  -1.332  33.139  1.00  0.00     0.228 C 
BRANCH  31  32
HETATM   32  C2  UNL     1       7.673  -2.698  32.819  1.00  0.00     0.248 C 
HETATM   33  C1  UNL     1       6.883  -3.369  33.878  1.00  0.00     0.081 C 
BRANCH  32  34
HETATM   34  N1  UNL     1       8.747  -3.551  32.353  1.00  0.00    -0.045 N 
ATOM     35  H13 UNL     1       8.755  -4.446  32.842  1.00  0.00     0.278 HD
ATOM     36  H12 UNL     1       8.572  -3.892  31.407  1.00  0.00     0.278 HD
ATOM     37  H11 UNL     1       9.647  -3.076  32.420  1.00  0.00     0.278 HD
ENDBRANCH  32  34
BRANCH  32  38
HETATM   38  O1  UNL     1       6.852  -2.505  31.674  1.00  0.00    -0.363 OA
ATOM     39  H1  UNL     1       7.356  -2.696  30.892  1.00  0.00     0.212 HD
ENDBRANCH  32  38
ENDBRANCH  31  32
BRANCH  31  40
HETATM   40  O2  UNL     1       7.625  -0.486  32.143  1.00  0.00    -0.386 OA
ATOM     41  H2  UNL     1       7.118   0.145  32.641  1.00  0.00     0.210 HD
ENDBRANCH  31  40
ENDBRANCH  30  31
BRANCH  30  42
HETATM   42  O3  UNL     1      10.326  -1.473  34.268  1.00  0.00    -0.374 OA
ATOM     43  H3  UNL     1      10.492  -0.708  34.806  1.00  0.00     0.212 HD
ENDBRANCH  30  42
ENDBRANCH  28  30
ENDBRANCH  22  28
ENDBRANCH  17  21
ENDBRANCH   1  13
BRANCH   9  44
HETATM   44  N11 UNL     1       2.915   1.625  29.111  1.00  0.00    -0.384 N 
ATOM     45 2H11 UNL     1       2.057   1.104  28.936  1.00  0.00     0.157 HD
ATOM     46 1H11 UNL     1       2.996   2.336  29.837  1.00  0.00     0.157 HD
ENDBRANCH   9  44
TORSDOF 11
ENDMDL
MODEL 5
REMARK VINA RESULT: -6.932731475     11.782     13.364
REMARK  11 active torsions:
REMARK  status: ('A' for Active; 'I' for Inactive)
REMARK    1  A    between atoms: C2_2  and  N1_3 
REMARK    2  A    between atoms: C2_2  and  O1_7 
REMARK    3  A    between atoms: C2_2  and  C3_9 
REMARK    4  A    between atoms: C3_9  and  O2_10 
REMARK    5  A    between atoms: C3_9  and  C4_12 
REMARK    6  A    between atoms: C4_12  and  O3_13 
REMARK    7  A    between atoms: C4_12  and  N2_15 
REMARK    8  A    between atoms: N2_15  and  C5_17 
REMARK    9  A    between atoms: C6_23  and  N5_24 
REMARK   10  A    between atoms: C7_29  and  C8_30 
REMARK   11  A    between atoms: C12_38  and  N11_39 
ROOT
HETATM    1  C8  UNL     1       8.166 -13.084  23.168  1.00  0.00     0.059 A 
HETATM    2  C9  UNL     1       8.562 -13.728  24.337  1.00  0.00     0.101 A 
HETATM    3  C10 UNL     1       8.100 -13.167  25.568  1.00  0.00     0.104 C 
HETATM    4  N8  UNL     1       7.702 -12.709  26.571  1.00  0.00    -0.191 NA
HETATM    5  C11 UNL     1       9.356 -14.846  24.342  1.00  0.00     0.139 A 
HETATM    6  N9  UNL     1       9.755 -15.495  25.529  1.00  0.00    -0.081 NA
HETATM    7  N10 UNL     1       9.788 -15.368  23.174  1.00  0.00    -0.329 N 
ATOM      8  H10 UNL     1      10.379 -16.199  23.161  1.00  0.00     0.168 HD
HETATM    9  C12 UNL     1       9.420 -14.767  22.028  1.00  0.00     0.122 A 
HETATM   10  C13 UNL     1       8.624 -13.643  21.990  1.00  0.00     0.103 A 
HETATM   11  C14 UNL     1       8.261 -13.041  20.732  1.00  0.00     0.104 C 
HETATM   12  N12 UNL     1       7.986 -12.563  19.716  1.00  0.00    -0.191 NA
ENDROOT
BRANCH   1  13
HETATM   13  C7  UNL     1       7.319 -11.895  23.205  1.00  0.00     0.151 A 
HETATM   14  N7  UNL     1       7.267 -10.883  22.336  1.00  0.00    -0.267 N 
HETATM   15  N6  UNL     1       6.347 -10.027  22.782  1.00  0.00    -0.218 N 
ATOM     16  H7  UNL     1       7.826 -10.783  21.489  1.00  0.00     0.190 HD
HETATM   17  N5  UNL     1       5.814 -10.464  23.907  1.00  0.00    -0.158 N 
ATOM     18  H6  UNL     1       6.090  -9.155  22.319  1.00  0.00     0.210 HD
HETATM   19  N13 UNL     1       6.419 -11.619  24.162  1.00  0.00    -0.259 N 
ATOM     20  H13 UNL     1       6.227 -12.211  24.971  1.00  0.00     0.191 HD
BRANCH  17  21
HETATM   21  C6  UNL     1       4.795  -9.814  24.677  1.00  0.00     0.214 A 
HETATM   22  C5  UNL     1       4.960  -8.788  25.576  1.00  0.00     0.175 A 
HETATM   23  N3  UNL     1       3.737  -8.508  26.051  1.00  0.00    -0.222 N 
HETATM   24  O4  UNL     1       2.865  -9.288  25.501  1.00  0.00    -0.153 OA
ATOM     25  H3  UNL     1       3.527  -7.787  26.742  1.00  0.00     0.198 HD
HETATM   26  N4  UNL     1       3.475 -10.068  24.685  1.00  0.00    -0.219 N 
ATOM     27  H4  UNL     1       3.020 -10.785  24.120  1.00  0.00     0.198 HD
BRANCH  22  28
HETATM   28  N2  UNL     1       6.196  -8.151  25.930  1.00  0.00    -0.343 N 
ATOM     29  H2  UNL     1       6.545  -7.355  25.396  1.00  0.00     0.164 HD
BRANCH  28  30
HETATM   30  C4  UNL     1       6.931  -8.660  27.053  1.00  0.00     0.253 C 
BRANCH  30  31
HETATM   31  C3  UNL     1       7.651  -7.664  27.879  1.00  0.00     0.228 C 
BRANCH  31  32
HETATM   32  C2  UNL     1       6.804  -6.648  28.589  1.00  0.00     0.248 C 
HETATM   33  C1  UNL     1       7.456  -5.878  29.674  1.00  0.00     0.081 C 
BRANCH  32  34
HETATM   34  N1  UNL     1       5.578  -7.264  29.052  1.00  0.00    -0.045 N 
ATOM     35  H13 UNL     1       5.131  -6.709  29.781  1.00  0.00     0.278 HD
ATOM     36  H12 UNL     1       4.843  -7.215  28.347  1.00  0.00     0.278 HD
ATOM     37  H11 UNL     1       5.743  -8.224  29.357  1.00  0.00     0.278 HD
ENDBRANCH  32  34
BRANCH  32  38
HETATM   38  O1  UNL     1       6.385  -5.751  27.567  1.00  0.00    -0.363 OA
ATOM     39  H1  UNL     1       5.830  -6.216  26.952  1.00  0.00     0.212 HD
ENDBRANCH  32  38
ENDBRANCH  31  32
BRANCH  31  40
HETATM   40  O2  UNL     1       8.470  -6.886  27.001  1.00  0.00    -0.386 OA
ATOM     41  H2  UNL     1       9.240  -6.683  27.520  1.00  0.00     0.210 HD
ENDBRANCH  31  40
ENDBRANCH  30  31
BRANCH  30  42
HETATM   42  O3  UNL     1       7.733  -9.752  26.689  1.00  0.00    -0.374 OA
ATOM     43  H3  UNL     1       7.228 -10.524  26.459  1.00  0.00     0.212 HD
ENDBRANCH  30  42
ENDBRANCH  28  30
ENDBRANCH  22  28
ENDBRANCH  17  21
ENDBRANCH   1  13
BRANCH   9  44
HETATM   44  N11 UNL     1       9.834 -15.268  20.917  1.00  0.00    -0.384 N 
ATOM     45 2H11 UNL     1      10.390 -16.122  20.943  1.00  0.00     0.157 HD
ATOM     46 1H11 UNL     1       9.588 -14.791  20.051  1.00  0.00     0.157 HD
ENDBRANCH   9  44
TORSDOF 11
ENDMDL
