MODEL 1
REMARK VINA RESULT: -7.978497808      0.000      0.000
REMARK  6 active torsions:
REMARK  status: ('A' for Active; 'I' for Inactive)
REMARK    1  A    between atoms: S1_2  and  C2_3 
REMARK    2  A    between atoms: C4_11  and  C5_12 
REMARK    3  A    between atoms: C5_12  and  O3_14 
REMARK    4  A    between atoms: O3_14  and  C6_15 
REMARK    5  A    between atoms: C7_18  and  N4_19 
REMARK    6  A    between atoms: C8_24  and  N6_25 
REMARK       I    between atoms: N6_25  and  C9_27 
REMARK       I    between atoms: C9_27  and  N7_28 
REMARK       I    between atoms: C9_27  and  N8_32 
ROOT
HETATM    1  C6  UNL     1      27.770  47.677   8.428  1.00  0.00     0.260 A 
HETATM    2  N3  UNL     1      27.858  46.637   9.270  1.00  0.00    -0.154 N 
ATOM      3  H3  UNL     1      27.372  45.767   9.051  1.00  0.00     0.188 HD
HETATM    4  C7  UNL     1      28.581  46.729  10.399  1.00  0.00     0.693 A 
HETATM    5  N5  UNL     1      29.227  47.860  10.706  1.00  0.00    -0.022 N 
ATOM      6  H5  UNL     1      29.773  47.918  11.566  1.00  0.00     0.203 HD
HETATM    7  C8  UNL     1      29.158  48.916   9.885  1.00  0.00     0.698 A 
HETATM    8  N9  UNL     1      28.431  48.801   8.763  1.00  0.00    -0.153 N 
ATOM      9  H9  UNL     1      28.376  49.603   8.134  1.00  0.00     0.188 HD
ENDROOT
BRANCH   1  10
HETATM   10  O3  UNL     1      27.017  47.582   7.248  1.00  0.00    -0.239 OA
BRANCH  10  11
HETATM   11  C5  UNL     1      26.767  46.330   6.673  1.00  0.00     0.327 C 
HETATM   12  O2  UNL     1      25.940  45.607   7.273  1.00  0.00    -0.256 OA
BRANCH  11  13
HETATM   13  C4  UNL     1      27.422  45.894   5.456  1.00  0.00     0.188 A 
HETATM   14  C2  UNL     1      28.697  45.443   5.292  1.00  0.00     0.113 A 
HETATM   15  N1  UNL     1      28.901  45.137   3.978  1.00  0.00    -0.314 N 
HETATM   16  C3  UNL     1      27.723  45.416   3.377  1.00  0.00     0.223 A 
ATOM     17  H1  UNL     1      29.752  44.777   3.546  1.00  0.00     0.170 HD
HETATM   18  N2  UNL     1      27.428  45.286   2.126  1.00  0.00    -0.365 N 
HETATM   19  O1  UNL     1      26.857  45.864   4.275  1.00  0.00    -0.270 OA
ATOM     20  H22 UNL     1      28.094  44.941   1.435  1.00  0.00     0.159 HD
ATOM     21  H21 UNL     1      26.539  45.498   1.673  1.00  0.00     0.159 HD
BRANCH  14  22
HETATM   22  S1  UNL     1      29.895  45.283   6.585  1.00  0.00    -0.114 SA
HETATM   23  C1  UNL     1      30.869  46.789   6.676  1.00  0.00     0.097 C 
ENDBRANCH  14  22
ENDBRANCH  11  13
ENDBRANCH  10  11
ENDBRANCH   1  10
BRANCH   4  24
HETATM   24  N4  UNL     1      28.658  45.713  11.207  1.00  0.00    -0.234 N 
ATOM     25  H42 UNL     1      29.379  45.008  11.053  1.00  0.00     0.174 HD
ATOM     26  H41 UNL     1      28.003  45.628  11.984  1.00  0.00     0.174 HD
ENDBRANCH   4  24
BRANCH   7  27
HETATM   27  N6  UNL     1      29.753  50.007  10.136  1.00  0.00    -0.173 N 
HETATM   28  C9  UNL     1      30.624  50.280  11.228  1.00  0.00     0.494 C 
HETATM   29  N7  UNL     1      31.563  51.353  10.941  1.00  0.00    -0.032 N 
HETATM   30  N8  UNL     1      29.981  50.549  12.472  1.00  0.00    -0.032 N 
ATOM     31  H73 UNL     1      32.092  51.158  10.091  1.00  0.00     0.278 HD
ATOM     32  H72 UNL     1      31.074  52.196  10.643  1.00  0.00     0.278 HD
ATOM     33  H71 UNL     1      32.187  51.548  11.724  1.00  0.00     0.278 HD
ATOM     34  H83 UNL     1      29.310  51.309  12.362  1.00  0.00     0.278 HD
ATOM     35  H82 UNL     1      29.350  49.785  12.712  1.00  0.00     0.278 HD
ATOM     36  H81 UNL     1      30.605  50.745  13.255  1.00  0.00     0.278 HD
ATOM     37  H6  UNL     1      29.590  50.773   9.484  1.00  0.00     0.181 HD
ENDBRANCH   7  27
TORSDOF 6
ENDMDL
MODEL 2
REMARK VINA RESULT: -7.875678959      2.842      4.362
REMARK  6 active torsions:
REMARK  status: ('A' for Active; 'I' for Inactive)
REMARK    1  A    between atoms: S1_2  and  C2_3 
REMARK    2  A    between atoms: C4_11  and  C5_12 
REMARK    3  A    between atoms: C5_12  and  O3_14 
REMARK    4  A    between atoms: O3_14  and  C6_15 
REMARK    5  A    between atoms: C7_18  and  N4_19 
REMARK    6  A    between atoms: C8_24  and  N6_25 
REMARK       I    between atoms: N6_25  and  C9_27 
REMARK       I    between atoms: C9_27  and  N7_28 
REMARK       I    between atoms: C9_27  and  N8_32 
ROOT
HETATM    1  C6  UNL     1      27.462  45.431   5.863  1.00  0.00     0.260 A 
HETATM    2  N3  UNL     1      28.087  46.516   5.383  1.00  0.00    -0.154 N 
ATOM      3  H3  UNL     1      28.142  46.662   4.375  1.00  0.00     0.188 HD
HETATM    4  C7  UNL     1      28.640  47.412   6.217  1.00  0.00     0.693 A 
HETATM    5  N5  UNL     1      28.578  47.241   7.543  1.00  0.00    -0.022 N 
ATOM      6  H5  UNL     1      29.002  47.928   8.166  1.00  0.00     0.203 HD
HETATM    7  C8  UNL     1      27.961  46.167   8.052  1.00  0.00     0.698 A 
HETATM    8  N9  UNL     1      27.415  45.285   7.200  1.00  0.00    -0.153 N 
ATOM      9  H9  UNL     1      26.943  44.465   7.584  1.00  0.00     0.188 HD
ENDROOT
BRANCH   1  10
HETATM   10  O3  UNL     1      26.883  44.494   4.994  1.00  0.00    -0.239 OA
BRANCH  10  11
HETATM   11  C5  UNL     1      27.284  44.438   3.653  1.00  0.00     0.327 C 
HETATM   12  O2  UNL     1      26.840  45.342   2.910  1.00  0.00    -0.256 OA
BRANCH  11  13
HETATM   13  C4  UNL     1      28.159  43.397   3.150  1.00  0.00     0.188 A 
HETATM   14  C2  UNL     1      29.487  43.472   2.858  1.00  0.00     0.113 A 
HETATM   15  N1  UNL     1      29.920  42.258   2.412  1.00  0.00    -0.314 N 
HETATM   16  C3  UNL     1      28.821  41.472   2.448  1.00  0.00     0.223 A 
ATOM     17  H1  UNL     1      30.862  42.001   2.117  1.00  0.00     0.170 HD
HETATM   18  N2  UNL     1      28.733  40.226   2.116  1.00  0.00    -0.365 N 
HETATM   19  O1  UNL     1      27.785  42.169   2.891  1.00  0.00    -0.270 OA
ATOM     20  H22 UNL     1      29.530  39.689   1.775  1.00  0.00     0.159 HD
ATOM     21  H21 UNL     1      27.904  39.634   2.143  1.00  0.00     0.159 HD
BRANCH  14  22
HETATM   22  S1  UNL     1      30.489  44.922   3.032  1.00  0.00    -0.114 SA
HETATM   23  C1  UNL     1      31.600  45.042   1.628  1.00  0.00     0.097 C 
ENDBRANCH  14  22
ENDBRANCH  11  13
ENDBRANCH  10  11
ENDBRANCH   1  10
BRANCH   4  24
HETATM   24  N4  UNL     1      29.243  48.460   5.739  1.00  0.00    -0.234 N 
ATOM     25  H42 UNL     1      29.465  48.497   4.744  1.00  0.00     0.174 HD
ATOM     26  H41 UNL     1      29.490  49.233   6.357  1.00  0.00     0.174 HD
ENDBRANCH   4  24
BRANCH   7  27
HETATM   27  N6  UNL     1      27.879  45.963   9.301  1.00  0.00    -0.173 N 
HETATM   28  C9  UNL     1      28.911  46.124  10.268  1.00  0.00     0.494 C 
HETATM   29  N7  UNL     1      28.394  46.379  11.602  1.00  0.00    -0.032 N 
HETATM   30  N8  UNL     1      29.858  45.060  10.335  1.00  0.00    -0.032 N 
ATOM     31  H73 UNL     1      27.764  47.181  11.603  1.00  0.00     0.278 HD
ATOM     32  H72 UNL     1      27.737  45.652  11.885  1.00  0.00     0.278 HD
ATOM     33  H71 UNL     1      29.134  46.494  12.295  1.00  0.00     0.278 HD
ATOM     34  H83 UNL     1      29.378  44.172  10.481  1.00  0.00     0.278 HD
ATOM     35  H82 UNL     1      30.265  44.896   9.414  1.00  0.00     0.278 HD
ATOM     36  H81 UNL     1      30.598  45.175  11.027  1.00  0.00     0.278 HD
ATOM     37  H6  UNL     1      26.974  45.650   9.651  1.00  0.00     0.181 HD
ENDBRANCH   7  27
TORSDOF 6
ENDMDL
MODEL 3
REMARK VINA RESULT: -7.867371580      1.558      2.386
REMARK  6 active torsions:
REMARK  status: ('A' for Active; 'I' for Inactive)
REMARK    1  A    between atoms: S1_2  and  C2_3 
REMARK    2  A    between atoms: C4_11  and  C5_12 
REMARK    3  A    between atoms: C5_12  and  O3_14 
REMARK    4  A    between atoms: O3_14  and  C6_15 
REMARK    5  A    between atoms: C7_18  and  N4_19 
REMARK    6  A    between atoms: C8_24  and  N6_25 
REMARK       I    between atoms: N6_25  and  C9_27 
REMARK       I    between atoms: C9_27  and  N7_28 
REMARK       I    between atoms: C9_27  and  N8_32 
ROOT
HETATM    1  C6  UNL     1      27.569  46.763   8.857  1.00  0.00     0.260 A 
HETATM    2  N3  UNL     1      28.004  45.739   9.605  1.00  0.00    -0.154 N 
ATOM      3  H3  UNL     1      27.652  44.798   9.426  1.00  0.00     0.188 HD
HETATM    4  C7  UNL     1      28.899  45.939  10.586  1.00  0.00     0.693 A 
HETATM    5  N5  UNL     1      29.375  47.164  10.837  1.00  0.00    -0.022 N 
ATOM      6  H5  UNL     1      30.055  47.303  11.585  1.00  0.00     0.203 HD
HETATM    7  C8  UNL     1      28.960  48.207  10.108  1.00  0.00     0.698 A 
HETATM    8  N9  UNL     1      28.065  47.984   9.132  1.00  0.00    -0.153 N 
ATOM      9  H9  UNL     1      27.747  48.777   8.573  1.00  0.00     0.188 HD
ENDROOT
BRANCH   1  10
HETATM   10  O3  UNL     1      26.635  46.557   7.831  1.00  0.00    -0.239 OA
BRANCH  10  11
HETATM   11  C5  UNL     1      26.959  46.885   6.508  1.00  0.00     0.327 C 
HETATM   12  O2  UNL     1      26.011  47.284   5.795  1.00  0.00    -0.256 OA
BRANCH  11  13
HETATM   13  C4  UNL     1      28.308  46.771   5.992  1.00  0.00     0.188 A 
HETATM   14  C2  UNL     1      28.803  45.871   5.097  1.00  0.00     0.113 A 
HETATM   15  N1  UNL     1      30.127  46.123   4.888  1.00  0.00    -0.314 N 
HETATM   16  C3  UNL     1      30.399  47.186   5.678  1.00  0.00     0.223 A 
ATOM     17  H1  UNL     1      30.769  45.622   4.275  1.00  0.00     0.170 HD
HETATM   18  N2  UNL     1      31.531  47.792   5.820  1.00  0.00    -0.365 N 
HETATM   19  O1  UNL     1      29.302  47.556   6.325  1.00  0.00    -0.270 OA
ATOM     20  H22 UNL     1      32.375  47.508   5.322  1.00  0.00     0.159 HD
ATOM     21  H21 UNL     1      31.735  48.594   6.416  1.00  0.00     0.159 HD
BRANCH  14  22
HETATM   22  S1  UNL     1      27.867  44.579   4.328  1.00  0.00    -0.114 SA
HETATM   23  C1  UNL     1      27.658  44.959   2.587  1.00  0.00     0.097 C 
ENDBRANCH  14  22
ENDBRANCH  11  13
ENDBRANCH  10  11
ENDBRANCH   1  10
BRANCH   4  24
HETATM   24  N4  UNL     1      29.312  44.937  11.304  1.00  0.00    -0.234 N 
ATOM     25  H42 UNL     1      28.908  44.013  11.150  1.00  0.00     0.174 HD
ATOM     26  H41 UNL     1      30.032  45.079  12.012  1.00  0.00     0.174 HD
ENDBRANCH   4  24
BRANCH   7  27
HETATM   27  N6  UNL     1      29.383  49.385  10.311  1.00  0.00    -0.173 N 
HETATM   28  C9  UNL     1      30.372  49.794  11.249  1.00  0.00     0.494 C 
HETATM   29  N7  UNL     1      31.034  51.029  10.863  1.00  0.00    -0.032 N 
HETATM   30  N8  UNL     1      29.926  49.911  12.598  1.00  0.00    -0.032 N 
ATOM     31  H73 UNL     1      31.428  50.956   9.925  1.00  0.00     0.278 HD
ATOM     32  H72 UNL     1      30.356  51.772  10.699  1.00  0.00     0.278 HD
ATOM     33  H71 UNL     1      31.744  51.322  11.535  1.00  0.00     0.278 HD
ATOM     34  H83 UNL     1      29.120  50.534  12.647  1.00  0.00     0.278 HD
ATOM     35  H82 UNL     1      29.497  49.036  12.901  1.00  0.00     0.278 HD
ATOM     36  H81 UNL     1      30.635  50.203  13.271  1.00  0.00     0.278 HD
ATOM     37  H6  UNL     1      28.969  50.121   9.739  1.00  0.00     0.181 HD
ENDBRANCH   7  27
TORSDOF 6
ENDMDL
MODEL 4
REMARK VINA RESULT: -7.809187054      1.903      2.943
REMARK  6 active torsions:
REMARK  status: ('A' for Active; 'I' for Inactive)
REMARK    1  A    between atoms: S1_2  and  C2_3 
REMARK    2  A    between atoms: C4_11  and  C5_12 
REMARK    3  A    between atoms: C5_12  and  O3_14 
REMARK    4  A    between atoms: O3_14  and  C6_15 
REMARK    5  A    between atoms: C7_18  and  N4_19 
REMARK    6  A    between atoms: C8_24  and  N6_25 
REMARK       I    between atoms: N6_25  and  C9_27 
REMARK       I    between atoms: C9_27  and  N7_28 
REMARK       I    between atoms: C9_27  and  N8_32 
ROOT
HETATM    1  C6  UNL     1      27.316  46.334   7.963  1.00  0.00     0.260 A 
HETATM    2  N3  UNL     1      27.749  47.586   7.752  1.00  0.00    -0.154 N 
ATOM      3  H3  UNL     1      27.494  48.070   6.891  1.00  0.00     0.188 HD
HETATM    4  C7  UNL     1      28.516  48.208   8.663  1.00  0.00     0.693 A 
HETATM    5  N5  UNL     1      28.863  47.592   9.799  1.00  0.00    -0.022 N 
ATOM      6  H5  UNL     1      29.444  48.075  10.484  1.00  0.00     0.203 HD
HETATM    7  C8  UNL     1      28.446  46.343  10.039  1.00  0.00     0.698 A 
HETATM    8  N9  UNL     1      27.680  45.740   9.115  1.00  0.00    -0.153 N 
ATOM      9  H9  UNL     1      27.360  44.788   9.294  1.00  0.00     0.188 HD
ENDROOT
BRANCH   1  10
HETATM   10  O3  UNL     1      26.515  45.683   7.013  1.00  0.00    -0.239 OA
BRANCH  10  11
HETATM   11  C5  UNL     1      26.654  45.983   5.652  1.00  0.00     0.327 C 
HETATM   12  O2  UNL     1      26.191  47.086   5.285  1.00  0.00    -0.256 OA
BRANCH  11  13
HETATM   13  C4  UNL     1      27.295  45.075   4.722  1.00  0.00     0.188 A 
HETATM   14  C2  UNL     1      28.619  44.951   4.429  1.00  0.00     0.113 A 
HETATM   15  N1  UNL     1      28.786  43.970   3.496  1.00  0.00    -0.314 N 
HETATM   16  C3  UNL     1      27.535  43.522   3.248  1.00  0.00     0.223 A 
ATOM     17  H1  UNL     1      29.659  43.648   3.079  1.00  0.00     0.170 HD
HETATM   18  N2  UNL     1      27.182  42.588   2.428  1.00  0.00    -0.365 N 
HETATM   19  O1  UNL     1      26.663  44.192   3.988  1.00  0.00    -0.270 OA
ATOM     20  H22 UNL     1      27.853  42.072   1.858  1.00  0.00     0.159 HD
ATOM     21  H21 UNL     1      26.238  42.250   2.241  1.00  0.00     0.159 HD
BRANCH  14  22
HETATM   22  S1  UNL     1      29.916  45.917   5.151  1.00  0.00    -0.114 SA
HETATM   23  C1  UNL     1      30.369  45.204   6.735  1.00  0.00     0.097 C 
ENDBRANCH  14  22
ENDBRANCH  11  13
ENDBRANCH  10  11
ENDBRANCH   1  10
BRANCH   4  24
HETATM   24  N4  UNL     1      28.929  49.422   8.446  1.00  0.00    -0.234 N 
ATOM     25  H42 UNL     1      29.915  49.645   8.585  1.00  0.00     0.174 HD
ATOM     26  H41 UNL     1      28.271  50.139   8.142  1.00  0.00     0.174 HD
ENDBRANCH   4  24
BRANCH   7  27
HETATM   27  N6  UNL     1      28.750  45.720  11.101  1.00  0.00    -0.173 N 
HETATM   28  C9  UNL     1      28.851  46.259  12.415  1.00  0.00     0.494 C 
HETATM   29  N7  UNL     1      28.642  45.258  13.448  1.00  0.00    -0.032 N 
HETATM   30  N8  UNL     1      30.055  46.969  12.695  1.00  0.00    -0.032 N 
ATOM     31  H73 UNL     1      27.752  44.777  13.317  1.00  0.00     0.278 HD
ATOM     32  H72 UNL     1      29.276  44.469  13.327  1.00  0.00     0.278 HD
ATOM     33  H71 UNL     1      28.714  45.645  14.390  1.00  0.00     0.278 HD
ATOM     34  H83 UNL     1      30.863  46.379  12.497  1.00  0.00     0.278 HD
ATOM     35  H82 UNL     1      30.195  47.706  12.004  1.00  0.00     0.278 HD
ATOM     36  H81 UNL     1      30.127  47.356  13.636  1.00  0.00     0.278 HD
ATOM     37  H6  UNL     1      28.945  44.724  11.003  1.00  0.00     0.181 HD
ENDBRANCH   7  27
TORSDOF 6
ENDMDL
MODEL 5
REMARK VINA RESULT: -7.695381590      1.084      1.220
REMARK  6 active torsions:
REMARK  status: ('A' for Active; 'I' for Inactive)
REMARK    1  A    between atoms: S1_2  and  C2_3 
REMARK    2  A    between atoms: C4_11  and  C5_12 
REMARK    3  A    between atoms: C5_12  and  O3_14 
REMARK    4  A    between atoms: O3_14  and  C6_15 
REMARK    5  A    between atoms: C7_18  and  N4_19 
REMARK    6  A    between atoms: C8_24  and  N6_25 
REMARK       I    between atoms: N6_25  and  C9_27 
REMARK       I    between atoms: C9_27  and  N7_28 
REMARK       I    between atoms: C9_27  and  N8_32 
ROOT
HETATM    1  C6  UNL     1      27.580  46.270   8.777  1.00  0.00     0.260 A 
HETATM    2  N3  UNL     1      27.991  45.379   9.692  1.00  0.00    -0.154 N 
ATOM      3  H3  UNL     1      27.622  44.429   9.673  1.00  0.00     0.188 HD
HETATM    4  C7  UNL     1      28.886  45.727  10.631  1.00  0.00     0.693 A 
HETATM    5  N5  UNL     1      29.384  46.968  10.674  1.00  0.00    -0.022 N 
ATOM      6  H5  UNL     1      30.064  47.220  11.392  1.00  0.00     0.203 HD
HETATM    7  C8  UNL     1      28.993  47.880   9.774  1.00  0.00     0.698 A 
HETATM    8  N9  UNL     1      28.098  47.510   8.844  1.00  0.00    -0.153 N 
ATOM      9  H9  UNL     1      27.798  48.202   8.156  1.00  0.00     0.188 HD
ENDROOT
BRANCH   1  10
HETATM   10  O3  UNL     1      26.646  45.908   7.794  1.00  0.00    -0.239 OA
BRANCH  10  11
HETATM   11  C5  UNL     1      26.824  46.325   6.469  1.00  0.00     0.327 C 
HETATM   12  O2  UNL     1      26.513  47.511   6.221  1.00  0.00    -0.256 OA
BRANCH  11  13
HETATM   13  C4  UNL     1      27.337  45.439   5.443  1.00  0.00     0.188 A 
HETATM   14  C2  UNL     1      28.628  45.074   5.203  1.00  0.00     0.113 A 
HETATM   15  N1  UNL     1      28.664  44.221   4.138  1.00  0.00    -0.314 N 
HETATM   16  C3  UNL     1      27.373  44.094   3.760  1.00  0.00     0.223 A 
ATOM     17  H1  UNL     1      29.483  43.778   3.721  1.00  0.00     0.170 HD
HETATM   18  N2  UNL     1      26.903  43.384   2.789  1.00  0.00    -0.365 N 
HETATM   19  O1  UNL     1      26.600  44.827   4.550  1.00  0.00    -0.270 OA
ATOM     20  H22 UNL     1      27.498  42.820   2.181  1.00  0.00     0.159 HD
ATOM     21  H21 UNL     1      25.929  43.289   2.503  1.00  0.00     0.159 HD
BRANCH  14  22
HETATM   22  S1  UNL     1      30.032  45.624   6.131  1.00  0.00    -0.114 SA
HETATM   23  C1  UNL     1      30.266  47.382   5.857  1.00  0.00     0.097 C 
ENDBRANCH  14  22
ENDBRANCH  11  13
ENDBRANCH  10  11
ENDBRANCH   1  10
BRANCH   4  24
HETATM   24  N4  UNL     1      29.277  44.855  11.513  1.00  0.00    -0.234 N 
ATOM     25  H42 UNL     1      30.043  45.092  12.143  1.00  0.00     0.174 HD
ATOM     26  H41 UNL     1      28.820  43.944  11.567  1.00  0.00     0.174 HD
ENDBRANCH   4  24
BRANCH   7  27
HETATM   27  N6  UNL     1      29.438  49.067   9.777  1.00  0.00    -0.173 N 
HETATM   28  C9  UNL     1      30.417  49.616  10.652  1.00  0.00     0.494 C 
HETATM   29  N7  UNL     1      31.114  50.752  10.070  1.00  0.00    -0.032 N 
HETATM   30  N8  UNL     1      29.947  49.977  11.949  1.00  0.00    -0.032 N 
ATOM     31  H73 UNL     1      31.524  50.507   9.169  1.00  0.00     0.278 HD
ATOM     32  H72 UNL     1      30.455  51.467   9.763  1.00  0.00     0.278 HD
ATOM     33  H71 UNL     1      31.816  51.145  10.697  1.00  0.00     0.278 HD
ATOM     34  H83 UNL     1      29.154  50.613  11.869  1.00  0.00     0.278 HD
ATOM     35  H82 UNL     1      29.494  49.178  12.391  1.00  0.00     0.278 HD
ATOM     36  H81 UNL     1      30.650  50.370  12.576  1.00  0.00     0.278 HD
ATOM     37  H6  UNL     1      29.051  49.698   9.076  1.00  0.00     0.181 HD
ENDBRANCH   7  27
TORSDOF 6
ENDMDL
