MODEL 1
REMARK VINA RESULT: -6.789072636      0.000      0.000
REMARK  8 active torsions:
REMARK  status: ('A' for Active; 'I' for Inactive)
REMARK    1  A    between atoms: C2_2  and  C3_3 
REMARK    2  A    between atoms: C3_3  and  C4_4 
REMARK    3  A    between atoms: C6_8  and  N2_9 
REMARK    4  A    between atoms: N2_9  and  C7_11 
REMARK    5  A    between atoms: C7_11  and  N3_13 
REMARK    6  A    between atoms: N3_13  and  C8_15 
REMARK    7  A    between atoms: C10_17  and  O1_18 
REMARK    8  A    between atoms: C13_21  and  O2_22 
ROOT
HETATM    1  C7  UNL     1      66.598  50.768  19.190  1.00  0.00     0.191 C 
HETATM    2  S1  UNL     1      67.433  49.511  19.762  1.00  0.00    -0.040 SA
ENDROOT
BRANCH   1   3
HETATM    3  N2  UNL     1      65.348  50.442  18.529  1.00  0.00    -0.166 N 
ATOM      4  H2  UNL     1      65.225  49.573  18.009  1.00  0.00     0.186 HD
BRANCH   3   5
HETATM    5  C6  UNL     1      64.410  51.306  18.633  1.00  0.00     0.684 A 
HETATM    6  N1  UNL     1      64.102  52.199  17.668  1.00  0.00    -0.201 N 
HETATM    7  C5  UNL     1      63.110  53.100  17.798  1.00  0.00     0.115 A 
ATOM      8  H1  UNL     1      64.644  52.189  16.804  1.00  0.00     0.183 HD
HETATM    9  C4  UNL     1      62.361  53.138  18.956  1.00  0.00    -0.023 A 
HETATM   10  C16 UNL     1      62.681  52.223  19.938  1.00  0.00     0.115 A 
HETATM   11  N4  UNL     1      63.677  51.336  19.777  1.00  0.00    -0.201 N 
ATOM     12  H4  UNL     1      63.886  50.675  20.524  1.00  0.00     0.183 HD
BRANCH   9  13
HETATM   13  C3  UNL     1      61.276  54.131  19.088  1.00  0.00     0.067 C 
BRANCH  13  14
HETATM   14  C2  UNL     1      59.958  53.525  18.832  1.00  0.00    -0.032 C 
HETATM   15  C1  UNL     1      59.011  54.215  18.240  1.00  0.00     0.007 C 
ENDBRANCH  13  14
ENDBRANCH   9  13
ENDBRANCH   3   5
ENDBRANCH   1   3
BRANCH   1  16
HETATM   16  N3  UNL     1      67.045  52.095  19.274  1.00  0.00    -0.333 N 
ATOM     17  H3  UNL     1      67.190  52.624  18.413  1.00  0.00     0.168 HD
BRANCH  16  18
HETATM   18  C8  UNL     1      67.301  52.722  20.515  1.00  0.00     0.039 A 
HETATM   19  C9  UNL     1      66.389  52.771  21.535  1.00  0.00     0.066 A 
HETATM   20  C10 UNL     1      66.683  53.370  22.768  1.00  0.00     0.073 A 
HETATM   21  C12 UNL     1      67.921  53.927  22.964  1.00  0.00     0.073 A 
HETATM   22  C13 UNL     1      68.890  53.905  21.955  1.00  0.00     0.073 A 
HETATM   23  C15 UNL     1      68.537  53.304  20.777  1.00  0.00     0.066 A 
BRANCH  20  24
HETATM   24  O1  UNL     1      65.735  53.398  23.771  1.00  0.00    -0.356 OA
HETATM   25  C11 UNL     1      65.602  52.270  24.638  1.00  0.00     0.210 C 
ENDBRANCH  20  24
BRANCH  22  26
HETATM   26  O2  UNL     1      70.150  54.461  22.125  1.00  0.00    -0.356 OA
HETATM   27  C14 UNL     1      71.310  53.976  21.528  1.00  0.00     0.210 C 
ENDBRANCH  22  26
ENDBRANCH  16  18
ENDBRANCH   1  16
TORSDOF 8
ENDMDL
MODEL 2
REMARK VINA RESULT: -6.756867025      0.077      2.645
REMARK  8 active torsions:
REMARK  status: ('A' for Active; 'I' for Inactive)
REMARK    1  A    between atoms: C2_2  and  C3_3 
REMARK    2  A    between atoms: C3_3  and  C4_4 
REMARK    3  A    between atoms: C6_8  and  N2_9 
REMARK    4  A    between atoms: N2_9  and  C7_11 
REMARK    5  A    between atoms: C7_11  and  N3_13 
REMARK    6  A    between atoms: N3_13  and  C8_15 
REMARK    7  A    between atoms: C10_17  and  O1_18 
REMARK    8  A    between atoms: C13_21  and  O2_22 
ROOT
HETATM    1  C7  UNL     1      66.601  50.746  19.207  1.00  0.00     0.191 C 
HETATM    2  S1  UNL     1      67.432  49.483  19.773  1.00  0.00    -0.040 SA
ENDROOT
BRANCH   1   3
HETATM    3  N2  UNL     1      65.353  50.428  18.538  1.00  0.00    -0.166 N 
ATOM      4  H2  UNL     1      65.228  49.560  18.018  1.00  0.00     0.186 HD
BRANCH   3   5
HETATM    5  C6  UNL     1      64.419  51.297  18.638  1.00  0.00     0.684 A 
HETATM    6  N1  UNL     1      64.105  52.175  17.662  1.00  0.00    -0.201 N 
HETATM    7  C5  UNL     1      63.118  53.082  17.787  1.00  0.00     0.115 A 
ATOM      8  H1  UNL     1      64.638  52.150  16.793  1.00  0.00     0.183 HD
HETATM    9  C4  UNL     1      62.379  53.141  18.952  1.00  0.00    -0.023 A 
HETATM   10  C16 UNL     1      62.706  52.241  19.945  1.00  0.00     0.115 A 
HETATM   11  N4  UNL     1      63.697  51.348  19.788  1.00  0.00    -0.201 N 
ATOM     12  H4  UNL     1      63.911  50.698  20.544  1.00  0.00     0.183 HD
BRANCH   9  13
HETATM   13  C3  UNL     1      61.299  54.140  19.078  1.00  0.00     0.067 C 
BRANCH  13  14
HETATM   14  C2  UNL     1      59.976  53.534  18.852  1.00  0.00    -0.032 C 
HETATM   15  C1  UNL     1      59.029  54.209  18.244  1.00  0.00     0.007 C 
ENDBRANCH  13  14
ENDBRANCH   9  13
ENDBRANCH   3   5
ENDBRANCH   1   3
BRANCH   1  16
HETATM   16  N3  UNL     1      67.050  52.072  19.303  1.00  0.00    -0.333 N 
ATOM     17  H3  UNL     1      67.135  52.628  18.452  1.00  0.00     0.168 HD
BRANCH  16  18
HETATM   18  C8  UNL     1      67.388  52.659  20.543  1.00  0.00     0.039 A 
HETATM   19  C9  UNL     1      68.606  53.232  20.797  1.00  0.00     0.066 A 
HETATM   20  C10 UNL     1      68.902  53.837  22.027  1.00  0.00     0.073 A 
HETATM   21  C12 UNL     1      67.946  53.858  23.011  1.00  0.00     0.073 A 
HETATM   22  C13 UNL     1      66.686  53.288  22.804  1.00  0.00     0.073 A 
HETATM   23  C15 UNL     1      66.463  52.714  21.581  1.00  0.00     0.066 A 
BRANCH  20  24
HETATM   24  O1  UNL     1      70.142  54.404  22.242  1.00  0.00    -0.356 OA
HETATM   25  C11 UNL     1      71.278  53.883  21.551  1.00  0.00     0.210 C 
ENDBRANCH  20  24
BRANCH  22  26
HETATM   26  O2  UNL     1      65.700  53.294  23.781  1.00  0.00    -0.356 OA
HETATM   27  C14 UNL     1      65.441  52.231  24.643  1.00  0.00     0.210 C 
ENDBRANCH  22  26
ENDBRANCH  16  18
ENDBRANCH   1  16
TORSDOF 8
ENDMDL
MODEL 3
REMARK VINA RESULT: -6.748837388      1.182      2.906
REMARK  8 active torsions:
REMARK  status: ('A' for Active; 'I' for Inactive)
REMARK    1  A    between atoms: C2_2  and  C3_3 
REMARK    2  A    between atoms: C3_3  and  C4_4 
REMARK    3  A    between atoms: C6_8  and  N2_9 
REMARK    4  A    between atoms: N2_9  and  C7_11 
REMARK    5  A    between atoms: C7_11  and  N3_13 
REMARK    6  A    between atoms: N3_13  and  C8_15 
REMARK    7  A    between atoms: C10_17  and  O1_18 
REMARK    8  A    between atoms: C13_21  and  O2_22 
ROOT
HETATM    1  C7  UNL     1      66.099  52.317  19.050  1.00  0.00     0.191 C 
HETATM    2  S1  UNL     1      67.020  50.995  19.149  1.00  0.00    -0.040 SA
ENDROOT
BRANCH   1   3
HETATM    3  N2  UNL     1      64.945  52.215  18.176  1.00  0.00    -0.166 N 
ATOM      4  H2  UNL     1      65.035  51.947  17.196  1.00  0.00     0.186 HD
BRANCH   3   5
HETATM    5  C6  UNL     1      63.810  52.480  18.703  1.00  0.00     0.684 A 
HETATM    6  N1  UNL     1      63.041  53.529  18.339  1.00  0.00    -0.201 N 
HETATM    7  C5  UNL     1      61.849  53.790  18.907  1.00  0.00     0.115 A 
ATOM      8  H1  UNL     1      63.378  54.149  17.603  1.00  0.00     0.183 HD
HETATM    9  C4  UNL     1      61.366  52.970  19.907  1.00  0.00    -0.023 A 
HETATM   10  C16 UNL     1      62.157  51.901  20.274  1.00  0.00     0.115 A 
HETATM   11  N4  UNL     1      63.342  51.668  19.687  1.00  0.00    -0.201 N 
ATOM     12  H4  UNL     1      63.901  50.868  19.985  1.00  0.00     0.183 HD
BRANCH   9  13
HETATM   13  C3  UNL     1      60.057  53.267  20.523  1.00  0.00     0.067 C 
BRANCH  13  14
HETATM   14  C2  UNL     1      59.142  53.903  19.561  1.00  0.00    -0.032 C 
HETATM   15  C1  UNL     1      57.996  54.403  19.961  1.00  0.00     0.007 C 
ENDBRANCH  13  14
ENDBRANCH   9  13
ENDBRANCH   3   5
ENDBRANCH   1   3
BRANCH   1  16
HETATM   16  N3  UNL     1      66.392  53.515  19.720  1.00  0.00    -0.333 N 
ATOM     17  H3  UNL     1      66.193  54.402  19.258  1.00  0.00     0.168 HD
BRANCH  16  18
HETATM   18  C8  UNL     1      66.956  53.528  21.016  1.00  0.00     0.039 A 
HETATM   19  C9  UNL     1      68.273  53.816  21.260  1.00  0.00     0.066 A 
HETATM   20  C10 UNL     1      68.797  53.855  22.560  1.00  0.00     0.073 A 
HETATM   21  C12 UNL     1      67.970  53.596  23.624  1.00  0.00     0.073 A 
HETATM   22  C13 UNL     1      66.618  53.296  23.431  1.00  0.00     0.073 A 
HETATM   23  C15 UNL     1      66.172  53.275  22.137  1.00  0.00     0.066 A 
BRANCH  20  24
HETATM   24  O1  UNL     1      70.130  54.150  22.764  1.00  0.00    -0.356 OA
HETATM   25  C11 UNL     1      71.016  54.192  21.643  1.00  0.00     0.210 C 
ENDBRANCH  20  24
BRANCH  22  26
HETATM   26  O2  UNL     1      65.759  53.029  24.488  1.00  0.00    -0.356 OA
HETATM   27  C14 UNL     1      66.176  52.654  25.763  1.00  0.00     0.210 C 
ENDBRANCH  22  26
ENDBRANCH  16  18
ENDBRANCH   1  16
TORSDOF 8
ENDMDL
MODEL 4
REMARK VINA RESULT: -6.743794039      1.140      1.523
REMARK  8 active torsions:
REMARK  status: ('A' for Active; 'I' for Inactive)
REMARK    1  A    between atoms: C2_2  and  C3_3 
REMARK    2  A    between atoms: C3_3  and  C4_4 
REMARK    3  A    between atoms: C6_8  and  N2_9 
REMARK    4  A    between atoms: N2_9  and  C7_11 
REMARK    5  A    between atoms: C7_11  and  N3_13 
REMARK    6  A    between atoms: N3_13  and  C8_15 
REMARK    7  A    between atoms: C10_17  and  O1_18 
REMARK    8  A    between atoms: C13_21  and  O2_22 
ROOT
HETATM    1  C7  UNL     1      66.190  52.235  19.070  1.00  0.00     0.191 C 
HETATM    2  S1  UNL     1      67.181  50.964  19.168  1.00  0.00    -0.040 SA
ENDROOT
BRANCH   1   3
HETATM    3  N2  UNL     1      65.025  52.057  18.224  1.00  0.00    -0.166 N 
ATOM      4  H2  UNL     1      65.105  51.740  17.258  1.00  0.00     0.186 HD
BRANCH   3   5
HETATM    5  C6  UNL     1      63.892  52.322  18.757  1.00  0.00     0.684 A 
HETATM    6  N1  UNL     1      63.342  51.593  19.752  1.00  0.00    -0.201 N 
HETATM    7  C5  UNL     1      62.149  51.890  20.299  1.00  0.00     0.115 A 
ATOM      8  H1  UNL     1      63.854  50.784  20.103  1.00  0.00     0.183 HD
HETATM    9  C4  UNL     1      61.432  52.978  19.843  1.00  0.00    -0.023 A 
HETATM   10  C16 UNL     1      62.000  53.719  18.827  1.00  0.00     0.115 A 
HETATM   11  N4  UNL     1      63.194  53.396  18.303  1.00  0.00    -0.201 N 
ATOM     12  H4  UNL     1      63.582  53.966  17.552  1.00  0.00     0.183 HD
BRANCH   9  13
HETATM   13  C3  UNL     1      60.124  53.294  20.451  1.00  0.00     0.067 C 
BRANCH  13  14
HETATM   14  C2  UNL     1      59.231  53.962  19.490  1.00  0.00    -0.032 C 
HETATM   15  C1  UNL     1      58.064  54.425  19.875  1.00  0.00     0.007 C 
ENDBRANCH  13  14
ENDBRANCH   9  13
ENDBRANCH   3   5
ENDBRANCH   1   3
BRANCH   1  16
HETATM   16  N3  UNL     1      66.434  53.456  19.715  1.00  0.00    -0.333 N 
ATOM     17  H3  UNL     1      66.265  54.326  19.209  1.00  0.00     0.168 HD
BRANCH  16  18
HETATM   18  C8  UNL     1      66.906  53.519  21.046  1.00  0.00     0.039 A 
HETATM   19  C9  UNL     1      66.117  53.268  22.137  1.00  0.00     0.066 A 
HETATM   20  C10 UNL     1      66.622  53.304  23.445  1.00  0.00     0.073 A 
HETATM   21  C12 UNL     1      67.947  53.601  23.644  1.00  0.00     0.073 A 
HETATM   22  C13 UNL     1      68.797  53.865  22.565  1.00  0.00     0.073 A 
HETATM   23  C15 UNL     1      68.239  53.813  21.316  1.00  0.00     0.066 A 
BRANCH  20  24
HETATM   24  O1  UNL     1      65.793  53.045  24.518  1.00  0.00    -0.356 OA
HETATM   25  C11 UNL     1      66.369  52.688  25.775  1.00  0.00     0.210 C 
ENDBRANCH  20  24
BRANCH  22  26
HETATM   26  O2  UNL     1      70.141  54.169  22.736  1.00  0.00    -0.356 OA
HETATM   27  C14 UNL     1      71.085  54.158  21.713  1.00  0.00     0.210 C 
ENDBRANCH  22  26
ENDBRANCH  16  18
ENDBRANCH   1  16
TORSDOF 8
ENDMDL
MODEL 5
REMARK VINA RESULT: -6.701659644      1.223      3.040
REMARK  8 active torsions:
REMARK  status: ('A' for Active; 'I' for Inactive)
REMARK    1  A    between atoms: C2_2  and  C3_3 
REMARK    2  A    between atoms: C3_3  and  C4_4 
REMARK    3  A    between atoms: C6_8  and  N2_9 
REMARK    4  A    between atoms: N2_9  and  C7_11 
REMARK    5  A    between atoms: C7_11  and  N3_13 
REMARK    6  A    between atoms: N3_13  and  C8_15 
REMARK    7  A    between atoms: C10_17  and  O1_18 
REMARK    8  A    between atoms: C13_21  and  O2_22 
ROOT
HETATM    1  C7  UNL     1      66.433  52.653  18.977  1.00  0.00     0.191 C 
HETATM    2  S1  UNL     1      67.337  51.321  19.099  1.00  0.00    -0.040 SA
ENDROOT
BRANCH   1   3
HETATM    3  N2  UNL     1      65.474  52.662  17.889  1.00  0.00    -0.166 N 
ATOM      4  H2  UNL     1      65.768  52.657  16.912  1.00  0.00     0.186 HD
BRANCH   3   5
HETATM    5  C6  UNL     1      64.239  52.678  18.223  1.00  0.00     0.684 A 
HETATM    6  N1  UNL     1      63.744  52.028  19.298  1.00  0.00    -0.201 N 
HETATM    7  C5  UNL     1      62.440  52.059  19.631  1.00  0.00     0.115 A 
ATOM      8  H1  UNL     1      64.385  51.492  19.881  1.00  0.00     0.183 HD
HETATM    9  C4  UNL     1      61.547  52.775  18.860  1.00  0.00    -0.023 A 
HETATM   10  C16 UNL     1      62.059  53.437  17.764  1.00  0.00     0.115 A 
HETATM   11  N4  UNL     1      63.366  53.387  17.458  1.00  0.00    -0.201 N 
ATOM     12  H4  UNL     1      63.710  53.888  16.639  1.00  0.00     0.183 HD
BRANCH   9  13
HETATM   13  C3  UNL     1      60.119  52.801  19.236  1.00  0.00     0.067 C 
BRANCH  13  14
HETATM   14  C2  UNL     1      59.388  53.848  18.504  1.00  0.00    -0.032 C 
HETATM   15  C1  UNL     1      58.477  54.574  19.110  1.00  0.00     0.007 C 
ENDBRANCH  13  14
ENDBRANCH   9  13
ENDBRANCH   3   5
ENDBRANCH   1   3
BRANCH   1  16
HETATM   16  N3  UNL     1      66.572  53.761  19.826  1.00  0.00    -0.333 N 
ATOM     17  H3  UNL     1      66.284  54.681  19.491  1.00  0.00     0.168 HD
BRANCH  16  18
HETATM   18  C8  UNL     1      67.098  53.641  21.133  1.00  0.00     0.039 A 
HETATM   19  C9  UNL     1      68.423  53.821  21.429  1.00  0.00     0.066 A 
HETATM   20  C10 UNL     1      68.911  53.729  22.741  1.00  0.00     0.073 A 
HETATM   21  C12 UNL     1      68.039  53.449  23.763  1.00  0.00     0.073 A 
HETATM   22  C13 UNL     1      66.676  53.256  23.515  1.00  0.00     0.073 A 
HETATM   23  C15 UNL     1      66.267  53.360  22.213  1.00  0.00     0.066 A 
BRANCH  20  24
HETATM   24  O1  UNL     1      70.254  53.918  22.997  1.00  0.00    -0.356 OA
HETATM   25  C11 UNL     1      71.141  54.197  21.912  1.00  0.00     0.210 C 
ENDBRANCH  20  24
BRANCH  22  26
HETATM   26  O2  UNL     1      65.772  52.971  24.528  1.00  0.00    -0.356 OA
HETATM   27  C14 UNL     1      66.131  52.653  25.835  1.00  0.00     0.210 C 
ENDBRANCH  22  26
ENDBRANCH  16  18
ENDBRANCH   1  16
TORSDOF 8
ENDMDL
