MODEL 1
REMARK VINA RESULT: -6.795574553      0.000      0.000
REMARK  4 active torsions:
REMARK  status: ('A' for Active; 'I' for Inactive)
REMARK    1  A    between atoms: C2_2  and  C3_3 
REMARK    2  A    between atoms: C3_3  and  C4_4 
REMARK    3  A    between atoms: C3_3  and  C5_9 
REMARK    4  A    between atoms: N1_5  and  O1_7 
ROOT
HETATM    1  C5  UNL     1     102.138  99.884  79.535  1.00  0.00     0.025 C 
HETATM    2  C6  UNL     1     102.903 100.070  80.813  1.00  0.00     0.034 C 
HETATM    3  C7  UNL     1     103.931 101.102  80.826  1.00  0.00    -0.024 C 
HETATM    4  C8  UNL     1     104.203 101.902  79.817  1.00  0.00     0.022 C 
HETATM    5  C9  UNL     1     103.397 101.713  78.621  1.00  0.00     0.020 C 
HETATM    6  N2  UNL     1     103.135 102.715  77.835  1.00  0.00    -0.401 N 
ATOM      7  H21 UNL     1     102.570 102.582  76.997  1.00  0.00     0.156 HD
ATOM      8  H22 UNL     1     103.468 103.664  78.006  1.00  0.00     0.156 HD
HETATM    9  C10 UNL     1     102.913 100.331  78.373  1.00  0.00     0.147 C 
HETATM   10  C11 UNL     1     102.169 100.392  77.114  1.00  0.00     0.070 C 
HETATM   11  N3  UNL     1     101.591 100.460  76.107  1.00  0.00    -0.197 NA
ENDROOT
BRANCH   1  12
HETATM   12  C3  UNL     1     101.726  98.425  79.508  1.00  0.00     0.054 C 
BRANCH  12  13
HETATM   13  C2  UNL     1     102.295  97.778  80.698  1.00  0.00    -0.026 C 
HETATM   14  C1  UNL     1     102.160  96.584  81.175  1.00  0.00     0.007 C 
ENDBRANCH  12  13
BRANCH  12  15
HETATM   15  C4  UNL     1     100.351  98.161  79.199  1.00  0.00     0.095 C 
HETATM   16  N1  UNL     1      99.860  97.337  78.379  1.00  0.00    -0.284 N 
ATOM     17  H1  UNL     1     100.520  96.767  77.849  1.00  0.00     0.192 HD
BRANCH  16  18
HETATM   18  O1  UNL     1      98.546  97.136  78.133  1.00  0.00    -0.291 OA
ATOM     19  H1  UNL     1      97.918  97.791  77.852  1.00  0.00     0.244 HD
ENDBRANCH  16  18
ENDBRANCH  12  15
ENDBRANCH   1  12
TORSDOF 4
ENDMDL
MODEL 2
REMARK VINA RESULT: -6.692754435      2.181      3.283
REMARK  4 active torsions:
REMARK  status: ('A' for Active; 'I' for Inactive)
REMARK    1  A    between atoms: C2_2  and  C3_3 
REMARK    2  A    between atoms: C3_3  and  C4_4 
REMARK    3  A    between atoms: C3_3  and  C5_9 
REMARK    4  A    between atoms: N1_5  and  O1_7 
ROOT
HETATM    1  C5  UNL     1     101.949  99.214  79.544  1.00  0.00     0.025 C 
HETATM    2  C6  UNL     1     101.040  99.275  78.351  1.00  0.00     0.034 C 
HETATM    3  C7  UNL     1     101.369 100.245  77.317  1.00  0.00    -0.024 C 
HETATM    4  C8  UNL     1     102.424 101.034  77.336  1.00  0.00     0.022 C 
HETATM    5  C9  UNL     1     103.298 100.897  78.490  1.00  0.00     0.020 C 
HETATM    6  N2  UNL     1     104.573 101.128  78.385  1.00  0.00    -0.401 N 
ATOM      7  H21 UNL     1     105.186 101.032  79.193  1.00  0.00     0.156 HD
ATOM      8  H22 UNL     1     105.022 101.409  77.513  1.00  0.00     0.156 HD
HETATM    9  C10 UNL     1     102.644 100.487  79.759  1.00  0.00     0.147 C 
HETATM   10  C11 UNL     1     103.710 100.453  80.762  1.00  0.00     0.070 C 
HETATM   11  N3  UNL     1     104.569 100.443  81.545  1.00  0.00    -0.197 NA
ENDROOT
BRANCH   1  12
HETATM   12  C3  UNL     1     101.083  98.753  80.701  1.00  0.00     0.054 C 
BRANCH  12  13
HETATM   13  C2  UNL     1      99.750  99.346  80.525  1.00  0.00    -0.026 C 
HETATM   14  C1  UNL     1      98.878  99.771  81.380  1.00  0.00     0.007 C 
ENDBRANCH  12  13
BRANCH  12  15
HETATM   15  C4  UNL     1     101.153  97.359  81.029  1.00  0.00     0.095 C 
HETATM   16  N1  UNL     1     100.353  96.428  80.740  1.00  0.00    -0.284 N 
ATOM     17  H1  UNL     1      99.530  96.683  80.193  1.00  0.00     0.192 HD
BRANCH  16  18
HETATM   18  O1  UNL     1     100.479  95.126  81.082  1.00  0.00    -0.291 OA
ATOM     19  H1  UNL     1     100.970  94.464  80.610  1.00  0.00     0.244 HD
ENDBRANCH  16  18
ENDBRANCH  12  15
ENDBRANCH   1  12
TORSDOF 4
ENDMDL
MODEL 3
REMARK VINA RESULT: -6.503225820      2.157      4.710
REMARK  4 active torsions:
REMARK  status: ('A' for Active; 'I' for Inactive)
REMARK    1  A    between atoms: C2_2  and  C3_3 
REMARK    2  A    between atoms: C3_3  and  C4_4 
REMARK    3  A    between atoms: C3_3  and  C5_9 
REMARK    4  A    between atoms: N1_5  and  O1_7 
ROOT
HETATM    1  C5  UNL     1     101.553  98.601  80.100  1.00  0.00     0.025 C 
HETATM    2  C6  UNL     1     102.758  97.707  80.142  1.00  0.00     0.034 C 
HETATM    3  C7  UNL     1     102.725  96.595  81.083  1.00  0.00    -0.024 C 
HETATM    4  C8  UNL     1     101.704  96.300  81.860  1.00  0.00     0.022 C 
HETATM    5  C9  UNL     1     100.543  97.168  81.742  1.00  0.00     0.020 C 
HETATM    6  N2  UNL     1      99.347  96.707  81.956  1.00  0.00    -0.401 N 
ATOM      7  H21 UNL     1      98.534  97.316  81.873  1.00  0.00     0.156 HD
ATOM      8  H22 UNL     1      99.157  95.738  82.210  1.00  0.00     0.156 HD
HETATM    9  C10 UNL     1     100.821  98.580  81.371  1.00  0.00     0.147 C 
HETATM   10  C11 UNL     1      99.518  99.247  81.350  1.00  0.00     0.070 C 
HETATM   11  N3  UNL     1      98.475  99.761  81.350  1.00  0.00    -0.197 NA
ENDROOT
BRANCH   1  12
HETATM   12  C3  UNL     1     102.065  99.965  79.679  1.00  0.00     0.054 C 
BRANCH  12  13
HETATM   13  C2  UNL     1     103.279 100.247  80.457  1.00  0.00    -0.026 C 
HETATM   14  C1  UNL     1     104.084 101.258  80.458  1.00  0.00     0.007 C 
ENDBRANCH  12  13
BRANCH  12  15
HETATM   15  C4  UNL     1     102.105 100.218  78.268  1.00  0.00     0.095 C 
HETATM   16  N1  UNL     1     101.389  99.735  77.348  1.00  0.00    -0.284 N 
ATOM     17  H1  UNL     1     100.671  99.066  77.628  1.00  0.00     0.192 HD
BRANCH  16  18
HETATM   18  O1  UNL     1     101.478 100.017  76.029  1.00  0.00    -0.291 OA
ATOM     19  H1  UNL     1     102.274 100.037  75.510  1.00  0.00     0.244 HD
ENDBRANCH  16  18
ENDBRANCH  12  15
ENDBRANCH   1  12
TORSDOF 4
ENDMDL
MODEL 4
REMARK VINA RESULT: -6.335219975      1.618      1.618
REMARK  4 active torsions:
REMARK  status: ('A' for Active; 'I' for Inactive)
REMARK    1  A    between atoms: C2_2  and  C3_3 
REMARK    2  A    between atoms: C3_3  and  C4_4 
REMARK    3  A    between atoms: C3_3  and  C5_9 
REMARK    4  A    between atoms: N1_5  and  O1_7 
ROOT
HETATM    1  C5  UNL     1     102.155  99.994  79.985  1.00  0.00     0.025 C 
HETATM    2  C6  UNL     1     103.254 100.065  81.004  1.00  0.00     0.034 C 
HETATM    3  C7  UNL     1     104.418 100.873  80.668  1.00  0.00    -0.024 C 
HETATM    4  C8  UNL     1     104.550 101.573  79.561  1.00  0.00     0.022 C 
HETATM    5  C9  UNL     1     103.434 101.510  78.632  1.00  0.00     0.020 C 
HETATM    6  N2  UNL     1     103.158 102.518  77.859  1.00  0.00    -0.401 N 
ATOM      7  H21 UNL     1     102.375 102.473  77.208  1.00  0.00     0.156 HD
ATOM      8  H22 UNL     1     103.691 103.388  77.861  1.00  0.00     0.156 HD
HETATM    9  C10 UNL     1     102.658 100.243  78.630  1.00  0.00     0.147 C 
HETATM   10  C11 UNL     1     101.628 100.410  77.604  1.00  0.00     0.070 C 
HETATM   11  N3  UNL     1     100.824 100.559  76.777  1.00  0.00    -0.197 NA
ENDROOT
BRANCH   1  12
HETATM   12  C3  UNL     1     101.492  98.644  80.185  1.00  0.00     0.054 C 
BRANCH  12  13
HETATM   13  C2  UNL     1     102.542  97.679  80.537  1.00  0.00    -0.026 C 
HETATM   14  C1  UNL     1     102.497  96.549  81.163  1.00  0.00     0.007 C 
ENDBRANCH  12  13
BRANCH  12  15
HETATM   15  C4  UNL     1     100.291  98.638  80.969  1.00  0.00     0.095 C 
HETATM   16  N1  UNL     1      99.438  99.553  81.131  1.00  0.00    -0.284 N 
ATOM     17  H1  UNL     1      99.609 100.433  80.644  1.00  0.00     0.192 HD
BRANCH  16  18
HETATM   18  O1  UNL     1      98.320  99.483  81.889  1.00  0.00    -0.291 OA
ATOM     19  H1  UNL     1      98.127 100.004  82.659  1.00  0.00     0.244 HD
ENDBRANCH  16  18
ENDBRANCH  12  15
ENDBRANCH   1  12
TORSDOF 4
ENDMDL
MODEL 5
REMARK VINA RESULT: -6.219111002      1.462      1.541
REMARK  4 active torsions:
REMARK  status: ('A' for Active; 'I' for Inactive)
REMARK    1  A    between atoms: C2_2  and  C3_3 
REMARK    2  A    between atoms: C3_3  and  C4_4 
REMARK    3  A    between atoms: C3_3  and  C5_9 
REMARK    4  A    between atoms: N1_5  and  O1_7 
ROOT
HETATM    1  C5  UNL     1     101.661  99.989  79.496  1.00  0.00     0.025 C 
HETATM    2  C6  UNL     1     102.259  99.629  80.825  1.00  0.00     0.034 C 
HETATM    3  C7  UNL     1     103.595 100.133  81.108  1.00  0.00    -0.024 C 
HETATM    4  C8  UNL     1     104.290 100.911  80.304  1.00  0.00     0.022 C 
HETATM    5  C9  UNL     1     103.643 101.270  79.053  1.00  0.00     0.020 C 
HETATM    6  N2  UNL     1     103.899 102.408  78.479  1.00  0.00    -0.401 N 
ATOM      7  H21 UNL     1     103.445 102.660  77.601  1.00  0.00     0.156 HD
ATOM      8  H22 UNL     1     104.548 103.096  78.861  1.00  0.00     0.156 HD
HETATM    9  C10 UNL     1     102.697 100.269  78.496  1.00  0.00     0.147 C 
HETATM   10  C11 UNL     1     102.211 100.839  77.238  1.00  0.00     0.070 C 
HETATM   11  N3  UNL     1     101.846 101.304  76.237  1.00  0.00    -0.197 NA
ENDROOT
BRANCH   1  12
HETATM   12  C3  UNL     1     100.722  98.852  79.144  1.00  0.00     0.054 C 
BRANCH  12  13
HETATM   13  C2  UNL     1     100.710  97.915  80.275  1.00  0.00    -0.026 C 
HETATM   14  C1  UNL     1      99.849  97.025  80.647  1.00  0.00     0.007 C 
ENDBRANCH  12  13
BRANCH  12  15
HETATM   15  C4  UNL     1      99.459  99.226  78.576  1.00  0.00     0.095 C 
HETATM   16  N1  UNL     1      99.213  99.779  77.469  1.00  0.00    -0.284 N 
ATOM     17  H1  UNL     1     100.014 100.000  76.877  1.00  0.00     0.192 HD
BRANCH  16  18
HETATM   18  O1  UNL     1      97.991 100.107  76.990  1.00  0.00    -0.291 OA
ATOM     19  H1  UNL     1      97.501 100.896  77.190  1.00  0.00     0.244 HD
ENDBRANCH  16  18
ENDBRANCH  12  15
ENDBRANCH   1  12
TORSDOF 4
ENDMDL
