MODEL 1
REMARK VINA RESULT: -8.655732184      0.000      0.000
REMARK  9 active torsions:
REMARK  status: ('A' for Active; 'I' for Inactive)
REMARK    1  A    between atoms: C3_5  and  O1_6 
REMARK    2  A    between atoms: C4_8  and  C5_9 
REMARK    3  A    between atoms: C6_12  and  C7_13 
REMARK    4  A    between atoms: C7_13  and  O3_14 
REMARK    5  A    between atoms: C7_13  and  C8_16 
REMARK    6  A    between atoms: C8_16  and  N3_17 
REMARK    7  A    between atoms: C9_18  and  N4_19 
REMARK    8  A    between atoms: C10_20  and  C11_21 
REMARK    9  A    between atoms: C11_21  and  O4_22 
ROOT
HETATM    1  N3  UNL     1     144.046  60.701 132.168  1.00  0.00    -0.149 N 
HETATM    2  C9  UNL     1     142.836  61.346 132.247  1.00  0.00     0.699 A 
HETATM    3  N6  UNL     1     143.002  62.531 132.905  1.00  0.00    -0.173 N 
ATOM      4  H6  UNL     1     142.264  63.205 133.106  1.00  0.00     0.186 HD
HETATM    5  C15 UNL     1     144.260  62.663 133.236  1.00  0.00     0.160 A 
HETATM    6  C16 UNL     1     144.926  61.556 132.797  1.00  0.00     0.169 A 
HETATM    7  C17 UNL     1     146.294  61.461 133.013  1.00  0.00     0.281 A 
HETATM    8  O5  UNL     1     146.978  60.488 132.646  1.00  0.00    -0.265 OA
HETATM    9  N7  UNL     1     146.888  62.502 133.666  1.00  0.00    -0.273 N 
ATOM     10  H7  UNL     1     147.892  62.461 133.841  1.00  0.00     0.173 HD
HETATM   11  C18 UNL     1     146.205  63.579 134.087  1.00  0.00     0.330 A 
HETATM   12  O6  UNL     1     146.776  64.534 134.691  1.00  0.00    -0.246 OA
HETATM   13  N8  UNL     1     144.886  63.690 133.887  1.00  0.00    -0.287 N 
HETATM   14  C19 UNL     1     144.149  64.858 134.343  1.00  0.00     0.163 C 
ENDROOT
BRANCH   1  15
HETATM   15  C8  UNL     1     144.354  59.497 131.595  1.00  0.00     0.125 C 
BRANCH  15  16
HETATM   16  C7  UNL     1     144.534  58.977 130.253  1.00  0.00     0.194 C 
BRANCH  16  17
HETATM   17  C6  UNL     1     144.892  57.626 129.877  1.00  0.00     0.017 A 
HETATM   18  C2  UNL     1     146.134  57.349 129.203  1.00  0.00     0.017 A 
HETATM   19  C1  UNL     1     147.173  58.371 128.964  1.00  0.00     0.069 C 
HETATM   20  N1  UNL     1     146.209  56.068 128.875  1.00  0.00    -0.340 N 
HETATM   21  C3  UNL     1     145.119  55.438 129.267  1.00  0.00     0.156 A 
ATOM     22  H1  UNL     1     146.994  55.634 128.389  1.00  0.00     0.168 HD
HETATM   23  C4  UNL     1     144.278  56.412 129.896  1.00  0.00     0.091 A 
BRANCH  21  24
HETATM   24  O1  UNL     1     144.779  54.096 129.133  1.00  0.00    -0.345 OA
ATOM     25  H1  UNL     1     144.963  53.367 129.714  1.00  0.00     0.219 HD
ENDBRANCH  21  24
BRANCH  23  26
HETATM   26  C5  UNL     1     142.948  56.051 130.339  1.00  0.00     0.270 C 
HETATM   27  N2  UNL     1     142.592  55.111 131.292  1.00  0.00    -0.057 NA
HETATM   28  O2  UNL     1     141.938  56.659 129.811  1.00  0.00    -0.271 OA
ENDBRANCH  23  26
ENDBRANCH  16  17
BRANCH  16  29
HETATM   29  O3  UNL     1     143.331  59.321 129.465  1.00  0.00    -0.386 OA
ATOM     30  H3  UNL     1     142.742  59.769 130.062  1.00  0.00     0.210 HD
ENDBRANCH  16  29
ENDBRANCH  15  16
ENDBRANCH   1  15
BRANCH   2  31
HETATM   31  N4  UNL     1     141.560  61.021 131.714  1.00  0.00    -0.136 N 
HETATM   32  C10 UNL     1     140.831  59.948 132.056  1.00  0.00     0.074 A 
HETATM   33  C12 UNL     1     139.664  59.963 131.283  1.00  0.00     0.117 A 
HETATM   34  N5  UNL     1     139.731  61.034 130.508  1.00  0.00    -0.353 N 
HETATM   35  C13 UNL     1     140.889  61.671 130.773  1.00  0.00     0.101 A 
ATOM     36  H5  UNL     1     139.028  61.326 129.829  1.00  0.00     0.166 HD
HETATM   37  C14 UNL     1     141.298  62.900 129.987  1.00  0.00     0.090 C 
BRANCH  32  38
HETATM   38  C11 UNL     1     141.140  58.835 133.019  1.00  0.00     0.223 C 
BRANCH  38  39
HETATM   39  O4  UNL     1     140.814  57.617 132.421  1.00  0.00    -0.395 OA
ATOM     40  H4  UNL     1     141.603  57.095 132.336  1.00  0.00     0.209 HD
ENDBRANCH  38  39
ENDBRANCH  32  38
ENDBRANCH   2  31
TORSDOF 9
ENDMDL
MODEL 2
REMARK VINA RESULT: -8.265620279      1.161      1.878
REMARK  9 active torsions:
REMARK  status: ('A' for Active; 'I' for Inactive)
REMARK    1  A    between atoms: C3_5  and  O1_6 
REMARK    2  A    between atoms: C4_8  and  C5_9 
REMARK    3  A    between atoms: C6_12  and  C7_13 
REMARK    4  A    between atoms: C7_13  and  O3_14 
REMARK    5  A    between atoms: C7_13  and  C8_16 
REMARK    6  A    between atoms: C8_16  and  N3_17 
REMARK    7  A    between atoms: C9_18  and  N4_19 
REMARK    8  A    between atoms: C10_20  and  C11_21 
REMARK    9  A    between atoms: C11_21  and  O4_22 
ROOT
HETATM    1  N3  UNL     1     144.063  60.599 132.149  1.00  0.00    -0.149 N 
HETATM    2  C9  UNL     1     142.828  61.190 132.265  1.00  0.00     0.699 A 
HETATM    3  N6  UNL     1     142.961  62.383 132.915  1.00  0.00    -0.173 N 
ATOM      4  H6  UNL     1     142.199  63.024 133.138  1.00  0.00     0.186 HD
HETATM    5  C15 UNL     1     144.220  62.572 133.207  1.00  0.00     0.160 A 
HETATM    6  C16 UNL     1     144.922  61.495 132.749  1.00  0.00     0.169 A 
HETATM    7  C17 UNL     1     146.299  61.463 132.924  1.00  0.00     0.281 A 
HETATM    8  O5  UNL     1     147.015  60.521 132.537  1.00  0.00    -0.265 OA
HETATM    9  N7  UNL     1     146.865  62.532 133.556  1.00  0.00    -0.273 N 
ATOM     10  H7  UNL     1     147.875  62.537 133.700  1.00  0.00     0.173 HD
HETATM   11  C18 UNL     1     146.147  63.578 133.996  1.00  0.00     0.330 A 
HETATM   12  O6  UNL     1     146.693  64.560 134.580  1.00  0.00    -0.246 OA
HETATM   13  N8  UNL     1     144.819  63.629 133.836  1.00  0.00    -0.287 N 
HETATM   14  C19 UNL     1     144.045  64.764 134.313  1.00  0.00     0.163 C 
ENDROOT
BRANCH   1  15
HETATM   15  C8  UNL     1     144.407  59.409 131.569  1.00  0.00     0.125 C 
BRANCH  15  16
HETATM   16  C7  UNL     1     144.576  58.895 130.224  1.00  0.00     0.194 C 
BRANCH  16  17
HETATM   17  C6  UNL     1     144.935  57.547 129.838  1.00  0.00     0.017 A 
HETATM   18  C2  UNL     1     146.201  57.269 129.211  1.00  0.00     0.017 A 
HETATM   19  C1  UNL     1     147.259  58.283 129.033  1.00  0.00     0.069 C 
HETATM   20  N1  UNL     1     146.276  55.993 128.863  1.00  0.00    -0.340 N 
HETATM   21  C3  UNL     1     145.164  55.368 129.199  1.00  0.00     0.156 A 
ATOM     22  H1  UNL     1     147.076  55.559 128.402  1.00  0.00     0.168 HD
HETATM   23  C4  UNL     1     144.308  56.339 129.811  1.00  0.00     0.091 A 
BRANCH  21  24
HETATM   24  O1  UNL     1     144.817  54.032 129.028  1.00  0.00    -0.345 OA
ATOM     25  H1  UNL     1     144.362  53.447 129.623  1.00  0.00     0.219 HD
ENDBRANCH  21  24
BRANCH  23  26
HETATM   26  C5  UNL     1     142.958  55.985 130.193  1.00  0.00     0.270 C 
HETATM   27  N2  UNL     1     141.770  56.474 129.676  1.00  0.00    -0.057 NA
HETATM   28  O2  UNL     1     142.793  55.102 131.122  1.00  0.00    -0.271 OA
ENDBRANCH  23  26
ENDBRANCH  16  17
BRANCH  16  29
HETATM   29  O3  UNL     1     143.363  59.237 129.450  1.00  0.00    -0.386 OA
ATOM     30  H3  UNL     1     143.573  59.070 128.538  1.00  0.00     0.210 HD
ENDBRANCH  16  29
ENDBRANCH  15  16
ENDBRANCH   1  15
BRANCH   2  31
HETATM   31  N4  UNL     1     141.552  60.805 131.772  1.00  0.00    -0.136 N 
HETATM   32  C10 UNL     1     140.842  61.483 130.858  1.00  0.00     0.074 A 
HETATM   33  C12 UNL     1     139.631  60.805 130.671  1.00  0.00     0.117 A 
HETATM   34  N5  UNL     1     139.654  59.753 131.473  1.00  0.00    -0.353 N 
HETATM   35  C13 UNL     1     140.824  59.761 132.143  1.00  0.00     0.101 A 
ATOM     36  H5  UNL     1     138.914  59.056 131.569  1.00  0.00     0.166 HD
HETATM   37  C14 UNL     1     141.121  58.722 133.205  1.00  0.00     0.090 C 
BRANCH  32  38
HETATM   38  C11 UNL     1     141.154  62.775 130.153  1.00  0.00     0.223 C 
BRANCH  38  39
HETATM   39  O4  UNL     1     140.137  63.693 130.423  1.00  0.00    -0.395 OA
ATOM     40  H4  UNL     1     140.449  64.566 130.219  1.00  0.00     0.209 HD
ENDBRANCH  38  39
ENDBRANCH  32  38
ENDBRANCH   2  31
TORSDOF 9
ENDMDL
MODEL 3
REMARK VINA RESULT: -7.798791397      1.979      2.421
REMARK  9 active torsions:
REMARK  status: ('A' for Active; 'I' for Inactive)
REMARK    1  A    between atoms: C3_5  and  O1_6 
REMARK    2  A    between atoms: C4_8  and  C5_9 
REMARK    3  A    between atoms: C6_12  and  C7_13 
REMARK    4  A    between atoms: C7_13  and  O3_14 
REMARK    5  A    between atoms: C7_13  and  C8_16 
REMARK    6  A    between atoms: C8_16  and  N3_17 
REMARK    7  A    between atoms: C9_18  and  N4_19 
REMARK    8  A    between atoms: C10_20  and  C11_21 
REMARK    9  A    between atoms: C11_21  and  O4_22 
ROOT
HETATM    1  N3  UNL     1     142.133  60.957 131.566  1.00  0.00    -0.149 N 
HETATM    2  C9  UNL     1     141.414  62.096 131.297  1.00  0.00     0.699 A 
HETATM    3  N6  UNL     1     142.153  63.187 131.653  1.00  0.00    -0.173 N 
ATOM      4  H6  UNL     1     141.855  64.159 131.564  1.00  0.00     0.186 HD
HETATM    5  C15 UNL     1     143.304  62.788 132.125  1.00  0.00     0.160 A 
HETATM    6  C16 UNL     1     143.322  61.424 132.085  1.00  0.00     0.169 A 
HETATM    7  C17 UNL     1     144.455  60.751 132.521  1.00  0.00     0.281 A 
HETATM    8  O5  UNL     1     144.556  59.510 132.518  1.00  0.00    -0.265 OA
HETATM    9  N7  UNL     1     145.491  61.516 132.973  1.00  0.00    -0.273 N 
ATOM     10  H7  UNL     1     146.337  61.050 133.302  1.00  0.00     0.173 HD
HETATM   11  C18 UNL     1     145.443  62.858 133.001  1.00  0.00     0.330 A 
HETATM   12  O6  UNL     1     146.416  63.549 133.425  1.00  0.00    -0.246 OA
HETATM   13  N8  UNL     1     144.361  63.526 132.583  1.00  0.00    -0.287 N 
HETATM   14  C19 UNL     1     144.313  64.979 132.615  1.00  0.00     0.163 C 
ENDROOT
BRANCH   1  15
HETATM   15  C8  UNL     1     141.794  59.647 131.367  1.00  0.00     0.125 C 
BRANCH  15  16
HETATM   16  C7  UNL     1     141.654  58.747 130.238  1.00  0.00     0.194 C 
BRANCH  16  17
HETATM   17  C6  UNL     1     142.627  57.793 129.752  1.00  0.00     0.017 A 
HETATM   18  C2  UNL     1     143.187  57.915 128.431  1.00  0.00     0.017 A 
HETATM   19  C1  UNL     1     142.923  59.063 127.540  1.00  0.00     0.069 C 
HETATM   20  N1  UNL     1     143.979  56.888 128.165  1.00  0.00    -0.340 N 
HETATM   21  C3  UNL     1     144.011  56.065 129.195  1.00  0.00     0.156 A 
ATOM     22  H1  UNL     1     144.489  56.753 127.292  1.00  0.00     0.168 HD
HETATM   23  C4  UNL     1     143.157  56.623 130.201  1.00  0.00     0.091 A 
BRANCH  21  24
HETATM   24  O1  UNL     1     144.710  54.873 129.351  1.00  0.00    -0.345 OA
ATOM     25  H1  UNL     1     145.122  54.325 128.693  1.00  0.00     0.219 HD
ENDBRANCH  21  24
BRANCH  23  26
HETATM   26  C5  UNL     1     142.892  55.891 131.421  1.00  0.00     0.270 C 
HETATM   27  N2  UNL     1     141.877  54.982 131.667  1.00  0.00    -0.057 NA
HETATM   28  O2  UNL     1     143.678  56.074 132.430  1.00  0.00    -0.271 OA
ENDBRANCH  23  26
ENDBRANCH  16  17
BRANCH  16  29
HETATM   29  O3  UNL     1     140.389  57.999 130.406  1.00  0.00    -0.386 OA
ATOM     30  H3  UNL     1     139.899  58.454 131.081  1.00  0.00     0.210 HD
ENDBRANCH  16  29
ENDBRANCH  15  16
ENDBRANCH   1  15
BRANCH   2  31
HETATM   31  N4  UNL     1     140.150  62.285 130.677  1.00  0.00    -0.136 N 
HETATM   32  C10 UNL     1     138.965  61.997 131.236  1.00  0.00     0.074 A 
HETATM   33  C12 UNL     1     137.969  62.287 130.295  1.00  0.00     0.117 A 
HETATM   34  N5  UNL     1     138.584  62.733 129.211  1.00  0.00    -0.353 N 
HETATM   35  C13 UNL     1     139.911  62.726 129.449  1.00  0.00     0.101 A 
ATOM     36  H5  UNL     1     138.132  63.030 128.346  1.00  0.00     0.166 HD
HETATM   37  C14 UNL     1     140.898  63.109 128.365  1.00  0.00     0.090 C 
BRANCH  32  38
HETATM   38  C11 UNL     1     138.648  61.405 132.582  1.00  0.00     0.223 C 
BRANCH  38  39
HETATM   39  O4  UNL     1     137.380  60.823 132.531  1.00  0.00    -0.395 OA
ATOM     40  H4  UNL     1     137.078  60.668 133.418  1.00  0.00     0.209 HD
ENDBRANCH  38  39
ENDBRANCH  32  38
ENDBRANCH   2  31
TORSDOF 9
ENDMDL
MODEL 4
REMARK VINA RESULT: -7.761927415      2.017      2.983
REMARK  9 active torsions:
REMARK  status: ('A' for Active; 'I' for Inactive)
REMARK    1  A    between atoms: C3_5  and  O1_6 
REMARK    2  A    between atoms: C4_8  and  C5_9 
REMARK    3  A    between atoms: C6_12  and  C7_13 
REMARK    4  A    between atoms: C7_13  and  O3_14 
REMARK    5  A    between atoms: C7_13  and  C8_16 
REMARK    6  A    between atoms: C8_16  and  N3_17 
REMARK    7  A    between atoms: C9_18  and  N4_19 
REMARK    8  A    between atoms: C10_20  and  C11_21 
REMARK    9  A    between atoms: C11_21  and  O4_22 
ROOT
HETATM    1  N3  UNL     1     142.272  60.827 132.205  1.00  0.00    -0.149 N 
HETATM    2  C9  UNL     1     141.560  61.816 131.572  1.00  0.00     0.699 A 
HETATM    3  N6  UNL     1     142.209  63.007 131.731  1.00  0.00    -0.173 N 
ATOM      4  H6  UNL     1     141.895  63.906 131.365  1.00  0.00     0.186 HD
HETATM    5  C15 UNL     1     143.297  62.811 132.428  1.00  0.00     0.160 A 
HETATM    6  C16 UNL     1     143.364  61.483 132.734  1.00  0.00     0.169 A 
HETATM    7  C17 UNL     1     144.447  61.012 133.463  1.00  0.00     0.281 A 
HETATM    8  O5  UNL     1     144.588  59.818 133.784  1.00  0.00    -0.265 OA
HETATM    9  N7  UNL     1     145.387  61.930 133.833  1.00  0.00    -0.273 N 
ATOM     10  H7  UNL     1     146.194  61.615 134.371  1.00  0.00     0.173 HD
HETATM   11  C18 UNL     1     145.293  63.232 133.517  1.00  0.00     0.330 A 
HETATM   12  O6  UNL     1     146.176  64.068 133.870  1.00  0.00    -0.246 OA
HETATM   13  N8  UNL     1     144.257  63.706 132.813  1.00  0.00    -0.287 N 
HETATM   14  C19 UNL     1     144.158  65.116 132.472  1.00  0.00     0.163 C 
ENDROOT
BRANCH   1  15
HETATM   15  C8  UNL     1     142.005  59.489 132.302  1.00  0.00     0.125 C 
BRANCH  15  16
HETATM   16  C7  UNL     1     141.238  58.504 131.563  1.00  0.00     0.194 C 
BRANCH  16  17
HETATM   17  C6  UNL     1     141.623  57.826 130.344  1.00  0.00     0.017 A 
HETATM   18  C2  UNL     1     140.677  57.628 129.276  1.00  0.00     0.017 A 
HETATM   19  C1  UNL     1     139.315  58.198 129.282  1.00  0.00     0.069 C 
HETATM   20  N1  UNL     1     141.217  56.909 128.304  1.00  0.00    -0.340 N 
HETATM   21  C3  UNL     1     142.460  56.594 128.615  1.00  0.00     0.156 A 
ATOM     22  H1  UNL     1     140.742  56.638 127.444  1.00  0.00     0.168 HD
HETATM   23  C4  UNL     1     142.726  57.163 129.902  1.00  0.00     0.091 A 
BRANCH  21  24
HETATM   24  O1  UNL     1     143.391  55.857 127.890  1.00  0.00    -0.345 OA
ATOM     25  H1  UNL     1     144.069  56.161 127.296  1.00  0.00     0.219 HD
ENDBRANCH  21  24
BRANCH  23  26
HETATM   26  C5  UNL     1     143.981  56.898 130.572  1.00  0.00     0.270 C 
HETATM   27  N2  UNL     1     144.176  56.411 131.854  1.00  0.00    -0.057 NA
HETATM   28  O2  UNL     1     145.080  57.121 129.931  1.00  0.00    -0.271 OA
ENDBRANCH  23  26
ENDBRANCH  16  17
BRANCH  16  29
HETATM   29  O3  UNL     1     140.821  57.448 132.510  1.00  0.00    -0.386 OA
ATOM     30  H3  UNL     1     141.076  56.621 132.115  1.00  0.00     0.210 HD
ENDBRANCH  16  29
ENDBRANCH  15  16
ENDBRANCH   1  15
BRANCH   2  31
HETATM   31  N4  UNL     1     140.387  61.765 130.772  1.00  0.00    -0.136 N 
HETATM   32  C10 UNL     1     139.135  61.670 131.243  1.00  0.00     0.074 A 
HETATM   33  C12 UNL     1     138.270  61.607 130.144  1.00  0.00     0.117 A 
HETATM   34  N5  UNL     1     139.026  61.663 129.058  1.00  0.00    -0.353 N 
HETATM   35  C13 UNL     1     140.313  61.756 129.447  1.00  0.00     0.101 A 
ATOM     36  H5  UNL     1     138.692  61.641 128.094  1.00  0.00     0.166 HD
HETATM   37  C14 UNL     1     141.436  61.759 128.430  1.00  0.00     0.090 C 
BRANCH  32  38
HETATM   38  C11 UNL     1     138.639  61.570 132.660  1.00  0.00     0.223 C 
BRANCH  38  39
HETATM   39  O4  UNL     1     137.493  60.772 132.681  1.00  0.00    -0.395 OA
ATOM     40  H4  UNL     1     137.178  60.711 133.574  1.00  0.00     0.209 HD
ENDBRANCH  38  39
ENDBRANCH  32  38
ENDBRANCH   2  31
TORSDOF 9
ENDMDL
MODEL 5
REMARK VINA RESULT: -7.658794330      2.197      2.878
REMARK  9 active torsions:
REMARK  status: ('A' for Active; 'I' for Inactive)
REMARK    1  A    between atoms: C3_5  and  O1_6 
REMARK    2  A    between atoms: C4_8  and  C5_9 
REMARK    3  A    between atoms: C6_12  and  C7_13 
REMARK    4  A    between atoms: C7_13  and  O3_14 
REMARK    5  A    between atoms: C7_13  and  C8_16 
REMARK    6  A    between atoms: C8_16  and  N3_17 
REMARK    7  A    between atoms: C9_18  and  N4_19 
REMARK    8  A    between atoms: C10_20  and  C11_21 
REMARK    9  A    between atoms: C11_21  and  O4_22 
ROOT
HETATM    1  N3  UNL     1     142.307  60.796 132.493  1.00  0.00    -0.149 N 
HETATM    2  C9  UNL     1     141.598  61.686 131.724  1.00  0.00     0.699 A 
HETATM    3  N6  UNL     1     142.178  62.919 131.816  1.00  0.00    -0.173 N 
ATOM      4  H6  UNL     1     141.850  63.764 131.348  1.00  0.00     0.186 HD
HETATM    5  C15 UNL     1     143.220  62.843 132.602  1.00  0.00     0.160 A 
HETATM    6  C16 UNL     1     143.325  61.552 133.032  1.00  0.00     0.169 A 
HETATM    7  C17 UNL     1     144.373  61.205 133.875  1.00  0.00     0.281 A 
HETATM    8  O5  UNL     1     144.544  60.053 134.313  1.00  0.00    -0.265 OA
HETATM    9  N7  UNL     1     145.240  62.200 134.222  1.00  0.00    -0.273 N 
ATOM     10  H7  UNL     1     146.019  61.977 134.841  1.00  0.00     0.173 HD
HETATM   11  C18 UNL     1     145.109  63.462 133.782  1.00  0.00     0.330 A 
HETATM   12  O6  UNL     1     145.925  64.371 134.117  1.00  0.00    -0.246 OA
HETATM   13  N8  UNL     1     144.107  63.817 132.968  1.00  0.00    -0.287 N 
HETATM   14  C19 UNL     1     143.969  65.184 132.493  1.00  0.00     0.163 C 
ENDROOT
BRANCH   1  15
HETATM   15  C8  UNL     1     142.095  59.459 132.693  1.00  0.00     0.125 C 
BRANCH  15  16
HETATM   16  C7  UNL     1     141.339  58.398 132.056  1.00  0.00     0.194 C 
BRANCH  16  17
HETATM   17  C6  UNL     1     141.722  57.625 130.893  1.00  0.00     0.017 A 
HETATM   18  C2  UNL     1     143.031  57.035 130.794  1.00  0.00     0.017 A 
HETATM   19  C1  UNL     1     144.017  57.057 131.894  1.00  0.00     0.069 C 
HETATM   20  N1  UNL     1     143.193  56.457 129.614  1.00  0.00    -0.340 N 
HETATM   21  C3  UNL     1     142.100  56.602 128.889  1.00  0.00     0.156 A 
ATOM     22  H1  UNL     1     144.037  55.973 129.310  1.00  0.00     0.168 HD
HETATM   23  C4  UNL     1     141.167  57.341 129.683  1.00  0.00     0.091 A 
BRANCH  21  24
HETATM   24  O1  UNL     1     141.831  56.153 127.600  1.00  0.00    -0.345 OA
ATOM     25  H1  UNL     1     141.827  56.638 126.782  1.00  0.00     0.219 HD
ENDBRANCH  21  24
BRANCH  23  26
HETATM   26  C5  UNL     1     139.901  57.761 129.121  1.00  0.00     0.270 C 
HETATM   27  N2  UNL     1     138.658  57.773 129.734  1.00  0.00    -0.057 NA
HETATM   28  O2  UNL     1     139.881  58.190 127.903  1.00  0.00    -0.271 OA
ENDBRANCH  23  26
ENDBRANCH  16  17
BRANCH  16  29
HETATM   29  O3  UNL     1     140.963  57.418 133.097  1.00  0.00    -0.386 OA
ATOM     30  H3  UNL     1     141.521  57.598 133.846  1.00  0.00     0.210 HD
ENDBRANCH  16  29
ENDBRANCH  15  16
ENDBRANCH   1  15
BRANCH   2  31
HETATM   31  N4  UNL     1     140.491  61.504 130.853  1.00  0.00    -0.136 N 
HETATM   32  C10 UNL     1     139.205  61.483 131.234  1.00  0.00     0.074 A 
HETATM   33  C12 UNL     1     138.427  61.240 130.095  1.00  0.00     0.117 A 
HETATM   34  N5  UNL     1     139.265  61.122 129.077  1.00  0.00    -0.353 N 
HETATM   35  C13 UNL     1     140.520  61.280 129.546  1.00  0.00     0.101 A 
ATOM     36  H5  UNL     1     139.007  60.943 128.106  1.00  0.00     0.166 HD
HETATM   37  C14 UNL     1     141.718  61.122 128.632  1.00  0.00     0.090 C 
BRANCH  32  38
HETATM   38  C11 UNL     1     138.599  61.612 132.605  1.00  0.00     0.223 C 
BRANCH  38  39
HETATM   39  O4  UNL     1     137.498  60.758 132.693  1.00  0.00    -0.395 OA
ATOM     40  H4  UNL     1     137.165  60.777 133.582  1.00  0.00     0.209 HD
ENDBRANCH  38  39
ENDBRANCH  32  38
ENDBRANCH   2  31
TORSDOF 9
ENDMDL
