MODEL 1
REMARK VINA RESULT: -7.097423644      0.000      0.000
REMARK  9 active torsions:
REMARK  status: ('A' for Active; 'I' for Inactive)
REMARK    1  A    between atoms: C4_5  and  N2_6 
REMARK    2  A    between atoms: N2_6  and  C5_8 
REMARK    3  A    between atoms: C6_11  and  N4_12 
REMARK    4  A    between atoms: C11_20  and  N6_21 
REMARK    5  A    between atoms: N6_21  and  C12_22 
REMARK    6  A    between atoms: C12_22  and  C13_23 
REMARK    7  A    between atoms: C13_23  and  C14_24 
REMARK    8  A    between atoms: C14_24  and  C15_25 
REMARK    9  A    between atoms: C15_25  and  O2_26 
ROOT
HETATM    1  C5  UNL     1      -0.956  -1.214  17.536  1.00  0.00     0.696 A 
HETATM    2  N3  UNL     1      -2.100  -1.072  16.858  1.00  0.00    -0.022 N 
ATOM      3  H3  UNL     1      -2.716  -0.279  17.036  1.00  0.00     0.203 HD
HETATM    4  C6  UNL     1      -2.422  -1.999  15.936  1.00  0.00     0.698 A 
HETATM    5  N5  UNL     1      -1.614  -3.034  15.706  1.00  0.00    -0.148 N 
ATOM      6  H5  UNL     1      -1.888  -3.718  15.000  1.00  0.00     0.188 HD
HETATM    7  C11 UNL     1      -0.423  -3.225  16.378  1.00  0.00     0.287 A 
HETATM    8  N7  UNL     1      -0.147  -2.248  17.308  1.00  0.00    -0.148 N 
ATOM      9  H7  UNL     1       0.715  -2.319  17.846  1.00  0.00     0.188 HD
ENDROOT
BRANCH   1  10
HETATM   10  N2  UNL     1      -0.633  -0.345  18.419  1.00  0.00    -0.219 N 
ATOM     11  H2  UNL     1      -0.149  -0.702  19.243  1.00  0.00     0.178 HD
BRANCH  10  12
HETATM   12  C4  UNL     1      -0.868   1.061  18.388  1.00  0.00     0.129 C 
HETATM   13  C3  UNL     1      -0.556   1.727  19.708  1.00  0.00     0.057 C 
HETATM   14  C2  UNL     1       0.602   2.614  19.408  1.00  0.00     0.274 C 
HETATM   15  N1  UNL     1       1.245   2.086  18.244  1.00  0.00     0.086 N 
HETATM   16  C1  UNL     1       2.109   0.963  18.504  1.00  0.00     0.310 C 
HETATM   17  C16 UNL     1       0.116   1.676  17.409  1.00  0.00     0.297 C 
ENDBRANCH  10  12
ENDBRANCH   1  10
BRANCH   4  18
HETATM   18  N4  UNL     1      -3.625  -1.855  15.214  1.00  0.00    -0.213 N 
HETATM   19  C7  UNL     1      -3.999  -2.868  14.257  1.00  0.00     0.167 C 
HETATM   20  C8  UNL     1      -5.511  -3.055  14.235  1.00  0.00     0.188 C 
HETATM   21  O1  UNL     1      -6.165  -1.824  14.293  1.00  0.00    -0.388 OA
HETATM   22  C9  UNL     1      -5.893  -1.257  15.533  1.00  0.00     0.188 C 
HETATM   23  C10 UNL     1      -4.464  -0.702  15.457  1.00  0.00     0.167 C 
ENDBRANCH   4  18
BRANCH   7  24
HETATM   24  N6  UNL     1       0.298  -4.169  16.154  1.00  0.00    -0.387 NA
BRANCH  24  25
HETATM   25  C12 UNL     1       0.998  -5.280  16.020  1.00  0.00     0.159 C 
BRANCH  25  26
HETATM   26  C13 UNL     1       0.453  -6.314  15.003  1.00  0.00     0.061 C 
BRANCH  26  27
HETATM   27  C14 UNL     1       0.583  -7.650  15.702  1.00  0.00     0.032 C 
BRANCH  27  28
HETATM   28  C15 UNL     1      -0.781  -8.210  16.073  1.00  0.00     0.164 C 
BRANCH  28  29
HETATM   29  O2  UNL     1      -1.650  -8.168  14.990  1.00  0.00    -0.401 OA
ATOM     30  H2  UNL     1      -2.554  -8.159  15.278  1.00  0.00     0.209 HD
ENDBRANCH  28  29
ENDBRANCH  27  28
ENDBRANCH  26  27
ENDBRANCH  25  26
ENDBRANCH  24  25
ENDBRANCH   7  24
TORSDOF 9
ENDMDL
MODEL 2
REMARK VINA RESULT: -6.950845544      1.066      1.303
REMARK  9 active torsions:
REMARK  status: ('A' for Active; 'I' for Inactive)
REMARK    1  A    between atoms: C4_5  and  N2_6 
REMARK    2  A    between atoms: N2_6  and  C5_8 
REMARK    3  A    between atoms: C6_11  and  N4_12 
REMARK    4  A    between atoms: C11_20  and  N6_21 
REMARK    5  A    between atoms: N6_21  and  C12_22 
REMARK    6  A    between atoms: C12_22  and  C13_23 
REMARK    7  A    between atoms: C13_23  and  C14_24 
REMARK    8  A    between atoms: C14_24  and  C15_25 
REMARK    9  A    between atoms: C15_25  and  O2_26 
ROOT
HETATM    1  C5  UNL     1      -0.904  -0.850  18.117  1.00  0.00     0.696 A 
HETATM    2  N3  UNL     1      -2.222  -0.817  17.895  1.00  0.00    -0.022 N 
ATOM      3  H3  UNL     1      -2.800  -0.080  18.299  1.00  0.00     0.203 HD
HETATM    4  C6  UNL     1      -2.772  -1.776  17.127  1.00  0.00     0.698 A 
HETATM    5  N5  UNL     1      -2.014  -2.739  16.600  1.00  0.00    -0.148 N 
ATOM      6  H5  UNL     1      -2.463  -3.451  16.023  1.00  0.00     0.188 HD
HETATM    7  C11 UNL     1      -0.650  -2.817  16.800  1.00  0.00     0.287 A 
HETATM    8  N7  UNL     1      -0.145  -1.812  17.592  1.00  0.00    -0.148 N 
ATOM      9  H7  UNL     1       0.856  -1.801  17.786  1.00  0.00     0.188 HD
ENDROOT
BRANCH   1  10
HETATM   10  N2  UNL     1      -0.363   0.051  18.847  1.00  0.00    -0.219 N 
ATOM     11  H2  UNL     1       0.259  -0.282  19.584  1.00  0.00     0.178 HD
BRANCH  10  12
HETATM   12  C4  UNL     1      -0.525   1.464  18.752  1.00  0.00     0.129 C 
HETATM   13  C3  UNL     1       0.270   2.208  19.800  1.00  0.00     0.057 C 
HETATM   14  C2  UNL     1       1.286   2.968  19.021  1.00  0.00     0.274 C 
HETATM   15  N1  UNL     1       1.444   2.296  17.768  1.00  0.00     0.086 N 
HETATM   16  C1  UNL     1       2.288   1.130  17.824  1.00  0.00     0.310 C 
HETATM   17  C16 UNL     1       0.072   1.914  17.431  1.00  0.00     0.297 C 
ENDBRANCH  10  12
ENDBRANCH   1  10
BRANCH   4  18
HETATM   18  N4  UNL     1      -4.161  -1.747  16.885  1.00  0.00    -0.213 N 
HETATM   19  C7  UNL     1      -4.703  -0.740  16.005  1.00  0.00     0.167 C 
HETATM   20  C8  UNL     1      -5.878  -1.296  15.210  1.00  0.00     0.188 C 
HETATM   21  O1  UNL     1      -6.699  -2.081  16.021  1.00  0.00    -0.388 OA
HETATM   22  C9  UNL     1      -5.970  -3.198  16.410  1.00  0.00     0.188 C 
HETATM   23  C10 UNL     1      -5.011  -2.733  17.515  1.00  0.00     0.167 C 
ENDBRANCH   4  18
BRANCH   7  24
HETATM   24  N6  UNL     1       0.022  -3.697  16.312  1.00  0.00    -0.387 NA
BRANCH  24  25
HETATM   25  C12 UNL     1       0.663  -4.640  15.648  1.00  0.00     0.159 C 
BRANCH  25  26
HETATM   26  C13 UNL     1      -0.214  -5.750  15.017  1.00  0.00     0.061 C 
BRANCH  26  27
HETATM   27  C14 UNL     1       0.415  -7.048  15.474  1.00  0.00     0.032 C 
BRANCH  27  28
HETATM   28  C15 UNL     1      -0.645  -8.063  15.869  1.00  0.00     0.164 C 
BRANCH  28  29
HETATM   29  O2  UNL     1      -1.666  -8.113  14.927  1.00  0.00    -0.401 OA
ATOM     30  H2  UNL     1      -2.410  -7.593  15.203  1.00  0.00     0.209 HD
ENDBRANCH  28  29
ENDBRANCH  27  28
ENDBRANCH  26  27
ENDBRANCH  25  26
ENDBRANCH  24  25
ENDBRANCH   7  24
TORSDOF 9
ENDMDL
MODEL 3
REMARK VINA RESULT: -6.932895390      1.885      6.383
REMARK  9 active torsions:
REMARK  status: ('A' for Active; 'I' for Inactive)
REMARK    1  A    between atoms: C4_5  and  N2_6 
REMARK    2  A    between atoms: N2_6  and  C5_8 
REMARK    3  A    between atoms: C6_11  and  N4_12 
REMARK    4  A    between atoms: C11_20  and  N6_21 
REMARK    5  A    between atoms: N6_21  and  C12_22 
REMARK    6  A    between atoms: C12_22  and  C13_23 
REMARK    7  A    between atoms: C13_23  and  C14_24 
REMARK    8  A    between atoms: C14_24  and  C15_25 
REMARK    9  A    between atoms: C15_25  and  O2_26 
ROOT
HETATM    1  C5  UNL     1      -0.973  -3.446  16.552  1.00  0.00     0.696 A 
HETATM    2  N3  UNL     1      -2.100  -3.404  15.833  1.00  0.00    -0.022 N 
ATOM      3  H3  UNL     1      -2.437  -4.234  15.346  1.00  0.00     0.203 HD
HETATM    4  C6  UNL     1      -2.780  -2.244  15.766  1.00  0.00     0.698 A 
HETATM    5  N5  UNL     1      -2.337  -1.161  16.406  1.00  0.00    -0.148 N 
ATOM      6  H5  UNL     1      -2.877  -0.299  16.333  1.00  0.00     0.188 HD
HETATM    7  C11 UNL     1      -1.180  -1.153  17.160  1.00  0.00     0.287 A 
HETATM    8  N7  UNL     1      -0.528  -2.364  17.192  1.00  0.00    -0.148 N 
ATOM      9  H7  UNL     1       0.335  -2.438  17.729  1.00  0.00     0.188 HD
ENDROOT
BRANCH   1  10
HETATM   10  N2  UNL     1      -0.310  -4.538  16.627  1.00  0.00    -0.219 N 
ATOM     11  H2  UNL     1      -0.381  -5.046  17.508  1.00  0.00     0.178 HD
BRANCH  10  12
HETATM   12  C4  UNL     1       0.515  -5.128  15.625  1.00  0.00     0.129 C 
HETATM   13  C3  UNL     1       1.539  -6.076  16.206  1.00  0.00     0.057 C 
HETATM   14  C2  UNL     1       1.141  -7.413  15.685  1.00  0.00     0.274 C 
HETATM   15  N1  UNL     1      -0.248  -7.338  15.351  1.00  0.00     0.086 N 
HETATM   16  C1  UNL     1      -1.135  -7.460  16.480  1.00  0.00     0.310 C 
HETATM   17  C16 UNL     1      -0.366  -6.006  14.755  1.00  0.00     0.297 C 
ENDBRANCH  10  12
ENDBRANCH   1  10
BRANCH   4  18
HETATM   18  N4  UNL     1      -3.971  -2.193  15.012  1.00  0.00    -0.213 N 
HETATM   19  C7  UNL     1      -4.130  -3.074  13.882  1.00  0.00     0.167 C 
HETATM   20  C8  UNL     1      -5.581  -3.518  13.745  1.00  0.00     0.188 C 
HETATM   21  O1  UNL     1      -6.451  -2.451  13.971  1.00  0.00    -0.388 OA
HETATM   22  C9  UNL     1      -6.317  -2.068  15.300  1.00  0.00     0.188 C 
HETATM   23  C10 UNL     1      -5.012  -1.265  15.397  1.00  0.00     0.167 C 
ENDBRANCH   4  18
BRANCH   7  24
HETATM   24  N6  UNL     1      -0.795  -0.161  17.735  1.00  0.00    -0.387 NA
BRANCH  24  25
HETATM   25  C12 UNL     1      -0.323   0.973  18.217  1.00  0.00     0.159 C 
BRANCH  25  26
HETATM   26  C13 UNL     1       0.141   2.021  17.174  1.00  0.00     0.061 C 
BRANCH  26  27
HETATM   27  C14 UNL     1      -1.098   2.333  16.363  1.00  0.00     0.032 C 
BRANCH  27  28
HETATM   28  C15 UNL     1      -0.738   3.001  15.046  1.00  0.00     0.164 C 
BRANCH  28  29
HETATM   29  O2  UNL     1      -1.287   2.314  13.971  1.00  0.00    -0.401 OA
ATOM     30  H2  UNL     1      -0.613   1.878  13.464  1.00  0.00     0.209 HD
ENDBRANCH  28  29
ENDBRANCH  27  28
ENDBRANCH  26  27
ENDBRANCH  25  26
ENDBRANCH  24  25
ENDBRANCH   7  24
TORSDOF 9
ENDMDL
MODEL 4
REMARK VINA RESULT: -6.882756758      2.975      6.383
REMARK  9 active torsions:
REMARK  status: ('A' for Active; 'I' for Inactive)
REMARK    1  A    between atoms: C4_5  and  N2_6 
REMARK    2  A    between atoms: N2_6  and  C5_8 
REMARK    3  A    between atoms: C6_11  and  N4_12 
REMARK    4  A    between atoms: C11_20  and  N6_21 
REMARK    5  A    between atoms: N6_21  and  C12_22 
REMARK    6  A    between atoms: C12_22  and  C13_23 
REMARK    7  A    between atoms: C13_23  and  C14_24 
REMARK    8  A    between atoms: C14_24  and  C15_25 
REMARK    9  A    between atoms: C15_25  and  O2_26 
ROOT
HETATM    1  C5  UNL     1      -2.119  -4.021  14.679  1.00  0.00     0.696 A 
HETATM    2  N3  UNL     1      -3.209  -4.593  14.157  1.00  0.00    -0.022 N 
ATOM      3  H3  UNL     1      -3.259  -5.604  14.034  1.00  0.00     0.203 HD
HETATM    4  C6  UNL     1      -4.241  -3.806  13.798  1.00  0.00     0.698 A 
HETATM    5  N5  UNL     1      -4.174  -2.484  13.961  1.00  0.00    -0.148 N 
ATOM      6  H5  UNL     1      -4.974  -1.918  13.678  1.00  0.00     0.188 HD
HETATM    7  C11 UNL     1      -3.071  -1.847  14.494  1.00  0.00     0.287 A 
HETATM    8  N7  UNL     1      -2.050  -2.700  14.842  1.00  0.00    -0.148 N 
ATOM      9  H7  UNL     1      -1.200  -2.304  15.243  1.00  0.00     0.188 HD
ENDROOT
BRANCH   1  10
HETATM   10  N2  UNL     1      -1.126  -4.751  15.025  1.00  0.00    -0.219 N 
ATOM     11  H2  UNL     1      -0.671  -5.273  14.276  1.00  0.00     0.178 HD
BRANCH  10  12
HETATM   12  C4  UNL     1      -0.580  -4.920  16.331  1.00  0.00     0.129 C 
HETATM   13  C3  UNL     1      -1.636  -5.258  17.358  1.00  0.00     0.057 C 
HETATM   14  C2  UNL     1      -1.300  -6.643  17.790  1.00  0.00     0.274 C 
HETATM   15  N1  UNL     1      -0.535  -7.238  16.738  1.00  0.00     0.086 N 
HETATM   16  C1  UNL     1      -1.325  -7.722  15.634  1.00  0.00     0.310 C 
HETATM   17  C16 UNL     1       0.326  -6.138  16.302  1.00  0.00     0.297 C 
ENDBRANCH  10  12
ENDBRANCH   1  10
BRANCH   4  18
HETATM   18  N4  UNL     1      -5.397  -4.402  13.250  1.00  0.00    -0.213 N 
HETATM   19  C7  UNL     1      -5.405  -4.777  11.857  1.00  0.00     0.167 C 
HETATM   20  C8  UNL     1      -6.215  -6.050  11.648  1.00  0.00     0.188 C 
HETATM   21  O1  UNL     1      -7.384  -6.026  12.407  1.00  0.00    -0.388 OA
HETATM   22  C9  UNL     1      -7.020  -6.051  13.749  1.00  0.00     0.188 C 
HETATM   23  C10 UNL     1      -6.544  -4.634  14.100  1.00  0.00     0.167 C 
ENDBRANCH   4  18
BRANCH   7  24
HETATM   24  N6  UNL     1      -3.029  -0.647  14.636  1.00  0.00    -0.387 NA
BRANCH  24  25
HETATM   25  C12 UNL     1      -3.014   0.637  14.947  1.00  0.00     0.159 C 
BRANCH  25  26
HETATM   26  C13 UNL     1      -3.231   0.981  16.442  1.00  0.00     0.061 C 
BRANCH  26  27
HETATM   27  C14 UNL     1      -1.837   1.090  17.019  1.00  0.00     0.032 C 
BRANCH  27  28
HETATM   28  C15 UNL     1      -1.540  -0.065  17.961  1.00  0.00     0.164 C 
BRANCH  28  29
HETATM   29  O2  UNL     1      -1.140  -1.194  17.257  1.00  0.00    -0.401 OA
ATOM     30  H2  UNL     1      -1.329  -1.986  17.746  1.00  0.00     0.209 HD
ENDBRANCH  28  29
ENDBRANCH  27  28
ENDBRANCH  26  27
ENDBRANCH  25  26
ENDBRANCH  24  25
ENDBRANCH   7  24
TORSDOF 9
ENDMDL
MODEL 5
REMARK VINA RESULT: -6.794906729      2.121      5.890
REMARK  9 active torsions:
REMARK  status: ('A' for Active; 'I' for Inactive)
REMARK    1  A    between atoms: C4_5  and  N2_6 
REMARK    2  A    between atoms: N2_6  and  C5_8 
REMARK    3  A    between atoms: C6_11  and  N4_12 
REMARK    4  A    between atoms: C11_20  and  N6_21 
REMARK    5  A    between atoms: N6_21  and  C12_22 
REMARK    6  A    between atoms: C12_22  and  C13_23 
REMARK    7  A    between atoms: C13_23  and  C14_24 
REMARK    8  A    between atoms: C14_24  and  C15_25 
REMARK    9  A    between atoms: C15_25  and  O2_26 
ROOT
HETATM    1  C5  UNL     1      -2.725  -2.763  15.631  1.00  0.00     0.696 A 
HETATM    2  N3  UNL     1      -2.572  -1.735  16.474  1.00  0.00    -0.022 N 
ATOM      3  H3  UNL     1      -3.286  -1.010  16.545  1.00  0.00     0.203 HD
HETATM    4  C6  UNL     1      -1.458  -1.678  17.227  1.00  0.00     0.698 A 
HETATM    5  N5  UNL     1      -0.527  -2.629  17.133  1.00  0.00    -0.148 N 
ATOM      6  H5  UNL     1       0.305  -2.555  17.719  1.00  0.00     0.188 HD
HETATM    7  C11 UNL     1      -0.638  -3.708  16.279  1.00  0.00     0.287 A 
HETATM    8  N7  UNL     1      -1.795  -3.713  15.536  1.00  0.00    -0.148 N 
ATOM      9  H7  UNL     1      -1.950  -4.479  14.881  1.00  0.00     0.188 HD
ENDROOT
BRANCH   1  10
HETATM   10  N2  UNL     1      -3.775  -2.834  14.905  1.00  0.00    -0.219 N 
ATOM     11  H2  UNL     1      -3.661  -2.575  13.925  1.00  0.00     0.178 HD
BRANCH  10  12
HETATM   12  C4  UNL     1      -5.086  -3.231  15.302  1.00  0.00     0.129 C 
HETATM   13  C3  UNL     1      -6.163  -2.376  14.675  1.00  0.00     0.057 C 
HETATM   14  C2  UNL     1      -6.901  -3.310  13.780  1.00  0.00     0.274 C 
HETATM   15  N1  UNL     1      -6.013  -4.389  13.474  1.00  0.00     0.086 N 
HETATM   16  C1  UNL     1      -5.049  -4.088  12.447  1.00  0.00     0.310 C 
HETATM   17  C16 UNL     1      -5.337  -4.623  14.751  1.00  0.00     0.297 C 
ENDBRANCH  10  12
ENDBRANCH   1  10
BRANCH   4  18
HETATM   18  N4  UNL     1      -1.291  -0.600  18.121  1.00  0.00    -0.213 N 
HETATM   19  C7  UNL     1      -0.863  -0.863  19.473  1.00  0.00     0.167 C 
HETATM   20  C8  UNL     1       0.040   0.255  19.979  1.00  0.00     0.188 C 
HETATM   21  O1  UNL     1      -0.452   1.503  19.596  1.00  0.00    -0.388 OA
HETATM   22  C9  UNL     1      -0.377   1.582  18.210  1.00  0.00     0.188 C 
HETATM   23  C10 UNL     1      -1.543   0.748  17.660  1.00  0.00     0.167 C 
ENDBRANCH   4  18
BRANCH   7  24
HETATM   24  N6  UNL     1       0.216  -4.562  16.209  1.00  0.00    -0.387 NA
BRANCH  24  25
HETATM   25  C12 UNL     1       1.027  -5.601  16.135  1.00  0.00     0.159 C 
BRANCH  25  26
HETATM   26  C13 UNL     1       0.721  -6.631  15.020  1.00  0.00     0.061 C 
BRANCH  26  27
HETATM   27  C14 UNL     1       0.546  -7.947  15.746  1.00  0.00     0.032 C 
BRANCH  27  28
HETATM   28  C15 UNL     1      -0.913  -8.197  16.088  1.00  0.00     0.164 C 
BRANCH  28  29
HETATM   29  O2  UNL     1      -1.715  -8.100  14.957  1.00  0.00    -0.401 OA
ATOM     30  H2  UNL     1      -2.458  -8.688  15.014  1.00  0.00     0.209 HD
ENDBRANCH  28  29
ENDBRANCH  27  28
ENDBRANCH  26  27
ENDBRANCH  25  26
ENDBRANCH  24  25
ENDBRANCH   7  24
TORSDOF 9
ENDMDL
