MODEL 1
REMARK VINA RESULT: -7.776299964      0.000      0.000
REMARK  8 active torsions:
REMARK  status: ('A' for Active; 'I' for Inactive)
REMARK    1  A    between atoms: C2_2  and  O1_3 
REMARK    2  A    between atoms: O1_3  and  C3_4 
REMARK    3  A    between atoms: C3_4  and  O2_5 
REMARK    4  A    between atoms: O2_5  and  C4_6 
REMARK    5  A    between atoms: C5_7  and  C6_8 
REMARK    6  A    between atoms: C6_8  and  N1_9 
REMARK    7  A    between atoms: C11_17  and  O4_18 
REMARK    8  A    between atoms: C17_26  and  O6_27 
ROOT
HETATM    1  C4  UNL     1      -2.789  -1.527  15.157  1.00  0.00     0.165 C 
HETATM    2  C5  UNL     1      -2.549  -2.955  14.716  1.00  0.00     0.056 C 
HETATM    3  C12 UNL     1      -3.793  -3.748  14.563  1.00  0.00     0.020 C 
HETATM    4  C13 UNL     1      -5.038  -2.921  14.374  1.00  0.00     0.029 A 
HETATM    5  C14 UNL     1      -6.281  -3.611  14.897  1.00  0.00     0.043 A 
HETATM    6  C15 UNL     1      -6.296  -2.587  16.012  1.00  0.00     0.161 A 
HETATM    7  O5  UNL     1      -6.421  -1.282  15.615  1.00  0.00    -0.366 OA
HETATM    8  C16 UNL     1      -5.235  -1.929  15.480  1.00  0.00     0.119 A 
HETATM    9  C17 UNL     1      -4.005  -1.344  16.025  1.00  0.00     0.185 C 
ENDROOT
BRANCH   2  10
HETATM   10  C6  UNL     1      -1.487  -3.626  15.518  1.00  0.00     0.073 C 
BRANCH  10  11
HETATM   11  N1  UNL     1      -1.485  -4.991  15.693  1.00  0.00    -0.336 N 
HETATM   12  C7  UNL     1      -2.092  -5.654  16.743  1.00  0.00     0.166 C 
HETATM   13  C8  UNL     1      -1.535  -7.001  17.047  1.00  0.00     0.257 C 
HETATM   14  O3  UNL     1      -2.102  -7.677  17.940  1.00  0.00    -0.267 OA
HETATM   15  N2  UNL     1      -0.423  -7.536  16.391  1.00  0.00    -0.348 N 
HETATM   16  C9  UNL     1       0.214  -6.731  15.374  1.00  0.00     0.129 C 
ATOM     17  H2  UNL     1      -0.072  -8.466  16.622  1.00  0.00     0.163 HD
HETATM   18  C10 UNL     1       1.417  -6.070  15.991  1.00  0.00     0.036 C 
HETATM   19  C11 UNL     1      -0.739  -5.756  14.743  1.00  0.00     0.246 C 
BRANCH  19  20
HETATM   20  O4  UNL     1      -1.527  -6.441  13.820  1.00  0.00    -0.374 OA
ATOM     21  H4  UNL     1      -1.150  -6.490  12.948  1.00  0.00     0.212 HD
ENDBRANCH  19  20
ENDBRANCH  10  11
ENDBRANCH   2  10
BRANCH   1  22
HETATM   22  O2  UNL     1      -2.844  -0.663  14.075  1.00  0.00    -0.358 OA
BRANCH  22  23
HETATM   23  C3  UNL     1      -2.891   0.662  14.442  1.00  0.00     0.338 C 
BRANCH  23  24
HETATM   24  O1  UNL     1      -1.838   1.420  13.924  1.00  0.00    -0.367 OA
BRANCH  24  25
HETATM   25  C2  UNL     1      -1.385   2.224  14.983  1.00  0.00     0.166 C 
HETATM   26  C1  UNL     1      -0.647   3.440  14.462  1.00  0.00     0.033 C 
ENDBRANCH  24  25
ENDBRANCH  23  24
ENDBRANCH  22  23
ENDBRANCH   1  22
BRANCH   9  27
HETATM   27  O6  UNL     1      -3.774  -1.855  17.310  1.00  0.00    -0.390 OA
ATOM     28  H6  UNL     1      -4.058  -1.235  17.972  1.00  0.00     0.210 HD
ENDBRANCH   9  27
TORSDOF 8
ENDMDL
MODEL 2
REMARK VINA RESULT: -7.773519396      1.116      1.978
REMARK  8 active torsions:
REMARK  status: ('A' for Active; 'I' for Inactive)
REMARK    1  A    between atoms: C2_2  and  O1_3 
REMARK    2  A    between atoms: O1_3  and  C3_4 
REMARK    3  A    between atoms: C3_4  and  O2_5 
REMARK    4  A    between atoms: O2_5  and  C4_6 
REMARK    5  A    between atoms: C5_7  and  C6_8 
REMARK    6  A    between atoms: C6_8  and  N1_9 
REMARK    7  A    between atoms: C11_17  and  O4_18 
REMARK    8  A    between atoms: C17_26  and  O6_27 
ROOT
HETATM    1  C4  UNL     1      -2.777  -1.527  15.181  1.00  0.00     0.165 C 
HETATM    2  C5  UNL     1      -2.391  -2.949  14.832  1.00  0.00     0.056 C 
HETATM    3  C12 UNL     1      -3.552  -3.838  14.586  1.00  0.00     0.020 C 
HETATM    4  C13 UNL     1      -4.824  -3.115  14.230  1.00  0.00     0.029 A 
HETATM    5  C14 UNL     1      -6.064  -3.876  14.650  1.00  0.00     0.043 A 
HETATM    6  C15 UNL     1      -6.272  -2.814  15.710  1.00  0.00     0.161 A 
HETATM    7  O5  UNL     1      -6.445  -1.538  15.244  1.00  0.00    -0.366 OA
HETATM    8  C16 UNL     1      -5.209  -2.099  15.263  1.00  0.00     0.119 A 
HETATM    9  C17 UNL     1      -4.089  -1.404  15.907  1.00  0.00     0.185 C 
ENDROOT
BRANCH   2  10
HETATM   10  C6  UNL     1      -1.376  -3.507  15.771  1.00  0.00     0.073 C 
BRANCH  10  11
HETATM   11  N1  UNL     1      -1.393  -4.838  16.125  1.00  0.00    -0.336 N 
HETATM   12  C7  UNL     1      -1.217  -5.891  15.247  1.00  0.00     0.166 C 
HETATM   13  C8  UNL     1      -1.795  -7.189  15.692  1.00  0.00     0.257 C 
HETATM   14  O3  UNL     1      -1.595  -8.194  14.968  1.00  0.00    -0.267 OA
HETATM   15  N2  UNL     1      -2.542  -7.332  16.865  1.00  0.00    -0.348 N 
HETATM   16  C9  UNL     1      -2.765  -6.156  17.673  1.00  0.00     0.129 C 
ATOM     17  H2  UNL     1      -2.919  -8.239  17.141  1.00  0.00     0.163 HD
HETATM   18  C10 UNL     1      -4.137  -5.626  17.357  1.00  0.00     0.036 C 
HETATM   19  C11 UNL     1      -1.680  -5.131  17.494  1.00  0.00     0.246 C 
BRANCH  19  20
HETATM   20  O4  UNL     1      -0.569  -5.528  18.236  1.00  0.00    -0.374 OA
ATOM     21  H4  UNL     1      -0.654  -5.384  19.171  1.00  0.00     0.212 HD
ENDBRANCH  19  20
ENDBRANCH  10  11
ENDBRANCH   2  10
BRANCH   1  22
HETATM   22  O2  UNL     1      -2.775  -0.712  14.060  1.00  0.00    -0.358 OA
BRANCH  22  23
HETATM   23  C3  UNL     1      -2.880   0.626  14.365  1.00  0.00     0.338 C 
BRANCH  23  24
HETATM   24  O1  UNL     1      -1.814   1.391  13.886  1.00  0.00    -0.367 OA
BRANCH  24  25
HETATM   25  C2  UNL     1      -1.437   2.232  14.946  1.00  0.00     0.166 C 
HETATM   26  C1  UNL     1      -0.615   3.401  14.444  1.00  0.00     0.033 C 
ENDBRANCH  24  25
ENDBRANCH  23  24
ENDBRANCH  22  23
ENDBRANCH   1  22
BRANCH   9  27
HETATM   27  O6  UNL     1      -3.963  -1.847  17.230  1.00  0.00    -0.390 OA
ATOM     28  H6  UNL     1      -4.751  -1.654  17.724  1.00  0.00     0.210 HD
ENDBRANCH   9  27
TORSDOF 8
ENDMDL
MODEL 3
REMARK VINA RESULT: -7.678907251      1.744      2.014
REMARK  8 active torsions:
REMARK  status: ('A' for Active; 'I' for Inactive)
REMARK    1  A    between atoms: C2_2  and  O1_3 
REMARK    2  A    between atoms: O1_3  and  C3_4 
REMARK    3  A    between atoms: C3_4  and  O2_5 
REMARK    4  A    between atoms: O2_5  and  C4_6 
REMARK    5  A    between atoms: C5_7  and  C6_8 
REMARK    6  A    between atoms: C6_8  and  N1_9 
REMARK    7  A    between atoms: C11_17  and  O4_18 
REMARK    8  A    between atoms: C17_26  and  O6_27 
ROOT
HETATM    1  C4  UNL     1      -3.038  -3.171  16.654  1.00  0.00     0.165 C 
HETATM    2  C5  UNL     1      -3.028  -4.244  15.585  1.00  0.00     0.056 C 
HETATM    3  C12 UNL     1      -4.147  -4.130  14.618  1.00  0.00     0.020 C 
HETATM    4  C13 UNL     1      -4.769  -2.761  14.545  1.00  0.00     0.029 A 
HETATM    5  C14 UNL     1      -6.230  -2.804  14.149  1.00  0.00     0.043 A 
HETATM    6  C15 UNL     1      -6.556  -2.397  15.570  1.00  0.00     0.161 A 
HETATM    7  O5  UNL     1      -6.048  -1.189  15.971  1.00  0.00    -0.366 OA
HETATM    8  C16 UNL     1      -5.240  -2.277  15.883  1.00  0.00     0.119 A 
HETATM    9  C17 UNL     1      -4.411  -2.679  17.023  1.00  0.00     0.185 C 
ENDROOT
BRANCH   2  10
HETATM   10  C6  UNL     1      -2.842  -5.609  16.153  1.00  0.00     0.073 C 
BRANCH  10  11
HETATM   11  N1  UNL     1      -1.908  -6.475  15.630  1.00  0.00    -0.336 N 
HETATM   12  C7  UNL     1      -1.752  -7.794  16.013  1.00  0.00     0.166 C 
HETATM   13  C8  UNL     1      -0.404  -8.372  15.755  1.00  0.00     0.257 C 
HETATM   14  O3  UNL     1      -0.234  -9.588  16.012  1.00  0.00    -0.267 OA
HETATM   15  N2  UNL     1       0.664  -7.627  15.248  1.00  0.00    -0.348 N 
HETATM   16  C9  UNL     1       0.441  -6.227  14.971  1.00  0.00     0.129 C 
ATOM     17  H2  UNL     1       1.573  -8.058  15.079  1.00  0.00     0.163 HD
HETATM   18  C10 UNL     1       0.978  -5.431  16.129  1.00  0.00     0.036 C 
HETATM   19  C11 UNL     1      -1.001  -5.931  14.668  1.00  0.00     0.246 C 
BRANCH  19  20
HETATM   20  O4  UNL     1      -1.266  -6.315  13.355  1.00  0.00    -0.374 OA
ATOM     21  H4  UNL     1      -1.865  -5.738  12.895  1.00  0.00     0.212 HD
ENDBRANCH  19  20
ENDBRANCH  10  11
ENDBRANCH   2  10
BRANCH   1  22
HETATM   22  O2  UNL     1      -2.227  -2.102  16.307  1.00  0.00    -0.358 OA
BRANCH  22  23
HETATM   23  C3  UNL     1      -2.201  -1.112  17.261  1.00  0.00     0.338 C 
BRANCH  23  24
HETATM   24  O1  UNL     1      -1.840   0.139  16.754  1.00  0.00    -0.367 OA
BRANCH  24  25
HETATM   25  C2  UNL     1      -3.033   0.733  16.309  1.00  0.00     0.166 C 
HETATM   26  C1  UNL     1      -3.166   0.619  14.805  1.00  0.00     0.033 C 
ENDBRANCH  24  25
ENDBRANCH  23  24
ENDBRANCH  22  23
ENDBRANCH   1  22
BRANCH   9  27
HETATM   27  O6  UNL     1      -5.092  -3.642  17.780  1.00  0.00    -0.390 OA
ATOM     28  H6  UNL     1      -5.512  -3.241  18.532  1.00  0.00     0.210 HD
ENDBRANCH   9  27
TORSDOF 8
ENDMDL
MODEL 4
REMARK VINA RESULT: -7.676565535      2.321      6.075
REMARK  8 active torsions:
REMARK  status: ('A' for Active; 'I' for Inactive)
REMARK    1  A    between atoms: C2_2  and  O1_3 
REMARK    2  A    between atoms: O1_3  and  C3_4 
REMARK    3  A    between atoms: C3_4  and  O2_5 
REMARK    4  A    between atoms: O2_5  and  C4_6 
REMARK    5  A    between atoms: C5_7  and  C6_8 
REMARK    6  A    between atoms: C6_8  and  N1_9 
REMARK    7  A    between atoms: C11_17  and  O4_18 
REMARK    8  A    between atoms: C17_26  and  O6_27 
ROOT
HETATM    1  C4  UNL     1      -0.697  -4.290  15.261  1.00  0.00     0.165 C 
HETATM    2  C5  UNL     1      -2.143  -4.538  15.636  1.00  0.00     0.056 C 
HETATM    3  C12 UNL     1      -2.379  -5.864  16.256  1.00  0.00     0.020 C 
HETATM    4  C13 UNL     1      -1.150  -6.498  16.853  1.00  0.00     0.029 A 
HETATM    5  C14 UNL     1      -1.210  -8.011  16.841  1.00  0.00     0.043 A 
HETATM    6  C15 UNL     1      -0.139  -7.975  15.771  1.00  0.00     0.161 A 
HETATM    7  O5  UNL     1       1.046  -7.396  16.140  1.00  0.00    -0.366 OA
HETATM    8  C16 UNL     1      -0.036  -6.625  15.860  1.00  0.00     0.119 A 
HETATM    9  C17 UNL     1       0.065  -5.532  14.886  1.00  0.00     0.185 C 
ENDROOT
BRANCH   2  10
HETATM   10  C6  UNL     1      -3.082  -4.201  14.528  1.00  0.00     0.073 C 
BRANCH  10  11
HETATM   11  N1  UNL     1      -3.576  -2.925  14.378  1.00  0.00    -0.336 N 
HETATM   12  C7  UNL     1      -2.834  -1.836  13.960  1.00  0.00     0.166 C 
HETATM   13  C8  UNL     1      -3.369  -0.510  14.377  1.00  0.00     0.257 C 
HETATM   14  O3  UNL     1      -2.777   0.514  13.958  1.00  0.00    -0.267 OA
HETATM   15  N2  UNL     1      -4.485  -0.360  15.204  1.00  0.00    -0.348 N 
HETATM   16  C9  UNL     1      -5.141  -1.557  15.679  1.00  0.00     0.129 C 
ATOM     17  H2  UNL     1      -4.827   0.565  15.464  1.00  0.00     0.163 HD
HETATM   18  C10 UNL     1      -4.659  -1.828  17.078  1.00  0.00     0.036 C 
HETATM   19  C11 UNL     1      -4.941  -2.720  14.749  1.00  0.00     0.246 C 
BRANCH  19  20
HETATM   20  O4  UNL     1      -5.809  -2.577  13.668  1.00  0.00    -0.374 OA
ATOM     21  H4  UNL     1      -6.725  -2.701  13.887  1.00  0.00     0.212 HD
ENDBRANCH  19  20
ENDBRANCH  10  11
ENDBRANCH   2  10
BRANCH   1  22
HETATM   22  O2  UNL     1      -0.025  -3.603  16.259  1.00  0.00    -0.358 OA
BRANCH  22  23
HETATM   23  C3  UNL     1      -0.828  -2.719  16.941  1.00  0.00     0.338 C 
BRANCH  23  24
HETATM   24  O1  UNL     1      -0.125  -1.655  17.513  1.00  0.00    -0.367 OA
BRANCH  24  25
HETATM   25  C2  UNL     1      -1.027  -1.018  18.380  1.00  0.00     0.166 C 
HETATM   26  C1  UNL     1      -1.627   0.212  17.729  1.00  0.00     0.033 C 
ENDBRANCH  24  25
ENDBRANCH  23  24
ENDBRANCH  22  23
ENDBRANCH   1  22
BRANCH   9  27
HETATM   27  O6  UNL     1      -0.334  -5.993  13.624  1.00  0.00    -0.390 OA
ATOM     28  H6  UNL     1      -0.443  -6.937  13.632  1.00  0.00     0.210 HD
ENDBRANCH   9  27
TORSDOF 8
ENDMDL
MODEL 5
REMARK VINA RESULT: -7.674205714      2.178      6.505
REMARK  8 active torsions:
REMARK  status: ('A' for Active; 'I' for Inactive)
REMARK    1  A    between atoms: C2_2  and  O1_3 
REMARK    2  A    between atoms: O1_3  and  C3_4 
REMARK    3  A    between atoms: C3_4  and  O2_5 
REMARK    4  A    between atoms: O2_5  and  C4_6 
REMARK    5  A    between atoms: C5_7  and  C6_8 
REMARK    6  A    between atoms: C6_8  and  N1_9 
REMARK    7  A    between atoms: C11_17  and  O4_18 
REMARK    8  A    between atoms: C17_26  and  O6_27 
ROOT
HETATM    1  C4  UNL     1      -2.931  -5.065  14.996  1.00  0.00     0.165 C 
HETATM    2  C5  UNL     1      -1.787  -4.094  15.196  1.00  0.00     0.056 C 
HETATM    3  C12 UNL     1      -0.464  -4.751  15.322  1.00  0.00     0.020 C 
HETATM    4  C13 UNL     1      -0.403  -6.141  14.747  1.00  0.00     0.029 A 
HETATM    5  C14 UNL     1       0.616  -7.017  15.445  1.00  0.00     0.043 A 
HETATM    6  C15 UNL     1      -0.548  -7.784  16.035  1.00  0.00     0.161 A 
HETATM    7  O5  UNL     1      -1.380  -8.387  15.129  1.00  0.00    -0.366 OA
HETATM    8  C16 UNL     1      -1.445  -7.045  15.333  1.00  0.00     0.119 A 
HETATM    9  C17 UNL     1      -2.726  -6.405  15.649  1.00  0.00     0.185 C 
ENDROOT
BRANCH   2  10
HETATM   10  C6  UNL     1      -2.077  -3.086  16.256  1.00  0.00     0.073 C 
BRANCH  10  11
HETATM   11  N1  UNL     1      -2.714  -1.903  15.956  1.00  0.00    -0.336 N 
HETATM   12  C7  UNL     1      -2.770  -1.334  14.697  1.00  0.00     0.166 C 
HETATM   13  C8  UNL     1      -3.002   0.137  14.678  1.00  0.00     0.257 C 
HETATM   14  O3  UNL     1      -3.140   0.689  13.560  1.00  0.00    -0.267 OA
HETATM   15  N2  UNL     1      -3.072   0.916  15.836  1.00  0.00    -0.348 N 
HETATM   16  C9  UNL     1      -2.900   0.254  17.109  1.00  0.00     0.129 C 
ATOM     17  H2  UNL     1      -3.238   1.921  15.785  1.00  0.00     0.163 HD
HETATM   18  C10 UNL     1      -1.477   0.461  17.554  1.00  0.00     0.036 C 
HETATM   19  C11 UNL     1      -3.296  -1.195  17.052  1.00  0.00     0.246 C 
BRANCH  19  20
HETATM   20  O4  UNL     1      -4.687  -1.276  17.107  1.00  0.00    -0.374 OA
ATOM     21  H4  UNL     1      -5.135  -0.574  16.648  1.00  0.00     0.212 HD
ENDBRANCH  19  20
ENDBRANCH  10  11
ENDBRANCH   2  10
BRANCH   1  22
HETATM   22  O2  UNL     1      -3.227  -5.231  13.652  1.00  0.00    -0.358 OA
BRANCH  22  23
HETATM   23  C3  UNL     1      -4.363  -4.562  13.262  1.00  0.00     0.338 C 
BRANCH  23  24
HETATM   24  O1  UNL     1      -5.532  -5.311  13.418  1.00  0.00    -0.367 OA
BRANCH  24  25
HETATM   25  C2  UNL     1      -6.575  -4.379  13.544  1.00  0.00     0.166 C 
HETATM   26  C1  UNL     1      -6.066  -3.072  14.118  1.00  0.00     0.033 C 
ENDBRANCH  24  25
ENDBRANCH  23  24
ENDBRANCH  22  23
ENDBRANCH   1  22
BRANCH   9  27
HETATM   27  O6  UNL     1      -2.866  -6.302  17.039  1.00  0.00    -0.390 OA
ATOM     28  H6  UNL     1      -2.933  -7.164  17.433  1.00  0.00     0.210 HD
ENDBRANCH   9  27
TORSDOF 8
ENDMDL
