MODEL 1
REMARK VINA RESULT: -7.224159296      0.000      0.000
REMARK  9 active torsions:
REMARK  status: ('A' for Active; 'I' for Inactive)
REMARK    1  A    between atoms: N1_2  and  C2_3 
REMARK    2  A    between atoms: N1_2  and  S1_16 
REMARK    3  A    between atoms: C2_3  and  C3_4 
REMARK    4  A    between atoms: C5_7  and  O2_8 
REMARK    5  A    between atoms: C6_10  and  O3_11 
REMARK    6  A    between atoms: C7_13  and  O4_14 
REMARK    7  A    between atoms: S1_16  and  C8_19 
REMARK    8  A    between atoms: C8_19  and  C9_20 
REMARK    9  A    between atoms: C9_20  and  N2_21 
ROOT
HETATM    1  C2  UNL     1      -2.006  -3.579  15.382  1.00  0.00     0.169 C 
ENDROOT
BRANCH   1   2
HETATM    2  N1  UNL     1      -3.004  -2.995  14.564  1.00  0.00    -0.313 N 
HETATM    3  C1  UNL     1      -4.132  -3.851  14.427  1.00  0.00     0.162 C 
BRANCH   2   4
HETATM    4  S1  UNL     1      -3.291  -1.358  14.827  1.00  0.00     0.229 S 
HETATM    5  O5  UNL     1      -4.759  -1.060  14.721  1.00  0.00    -0.206 OA
HETATM    6  O6  UNL     1      -2.661  -0.507  13.712  1.00  0.00    -0.206 OA
BRANCH   4   7
HETATM    7  C8  UNL     1      -2.688  -0.687  16.329  1.00  0.00     0.193 C 
BRANCH   7   8
HETATM    8  C9  UNL     1      -2.599   0.792  16.346  1.00  0.00     0.289 C 
BRANCH   8   9
HETATM    9  N2  UNL     1      -1.299   1.308  16.009  1.00  0.00     0.089 N 
HETATM   10  C10 UNL     1      -0.500   1.737  17.098  1.00  0.00     0.272 C 
HETATM   11  C11 UNL     1       0.555   2.636  16.435  1.00  0.00     0.032 C 
HETATM   12  C12 UNL     1      -0.281   3.359  15.401  1.00  0.00     0.032 C 
HETATM   13  C13 UNL     1      -1.258   2.283  14.977  1.00  0.00     0.272 C 
ENDBRANCH   8   9
ENDBRANCH   7   8
ENDBRANCH   4   7
ENDBRANCH   2   4
ENDBRANCH   1   2
BRANCH   1  14
HETATM   14  C3  UNL     1      -2.032  -5.057  15.563  1.00  0.00     0.171 C 
HETATM   15  O1  UNL     1      -2.134  -5.458  16.880  1.00  0.00    -0.379 OA
HETATM   16  C4  UNL     1      -2.544  -6.808  16.917  1.00  0.00     0.202 C 
HETATM   17  C5  UNL     1      -1.456  -7.694  16.346  1.00  0.00     0.173 C 
HETATM   18  C6  UNL     1      -0.323  -6.775  15.908  1.00  0.00     0.180 C 
HETATM   19  C7  UNL     1      -0.930  -5.811  14.904  1.00  0.00     0.180 C 
BRANCH  17  20
HETATM   20  O2  UNL     1      -1.892  -8.336  15.166  1.00  0.00    -0.391 OA
ATOM     21  H2  UNL     1      -1.277  -8.196  14.455  1.00  0.00     0.210 HD
ENDBRANCH  17  20
BRANCH  18  22
HETATM   22  O3  UNL     1       0.736  -7.500  15.360  1.00  0.00    -0.390 OA
ATOM     23  H3  UNL     1       1.557  -7.029  15.443  1.00  0.00     0.210 HD
ENDBRANCH  18  22
BRANCH  19  24
HETATM   24  O4  UNL     1       0.060  -5.050  14.331  1.00  0.00    -0.390 OA
ATOM     25  H4  UNL     1       0.126  -5.100  13.385  1.00  0.00     0.210 HD
ENDBRANCH  19  24
ENDBRANCH   1  14
TORSDOF 9
ENDMDL
MODEL 2
REMARK VINA RESULT: -7.051946254      1.260      1.848
REMARK  9 active torsions:
REMARK  status: ('A' for Active; 'I' for Inactive)
REMARK    1  A    between atoms: N1_2  and  C2_3 
REMARK    2  A    between atoms: N1_2  and  S1_16 
REMARK    3  A    between atoms: C2_3  and  C3_4 
REMARK    4  A    between atoms: C5_7  and  O2_8 
REMARK    5  A    between atoms: C6_10  and  O3_11 
REMARK    6  A    between atoms: C7_13  and  O4_14 
REMARK    7  A    between atoms: S1_16  and  C8_19 
REMARK    8  A    between atoms: C8_19  and  C9_20 
REMARK    9  A    between atoms: C9_20  and  N2_21 
ROOT
HETATM    1  C2  UNL     1      -3.054  -3.785  14.528  1.00  0.00     0.169 C 
ENDROOT
BRANCH   1   2
HETATM    2  N1  UNL     1      -3.992  -2.912  15.132  1.00  0.00    -0.313 N 
HETATM    3  C1  UNL     1      -4.444  -3.418  16.382  1.00  0.00     0.162 C 
BRANCH   2   4
HETATM    4  S1  UNL     1      -3.622  -1.273  15.037  1.00  0.00     0.229 S 
HETATM    5  O5  UNL     1      -4.858  -0.474  14.735  1.00  0.00    -0.206 OA
HETATM    6  O6  UNL     1      -2.699  -0.990  13.839  1.00  0.00    -0.206 OA
BRANCH   4   7
HETATM    7  C8  UNL     1      -2.821  -0.567  16.425  1.00  0.00     0.193 C 
BRANCH   7   8
HETATM    8  C9  UNL     1      -2.684   0.907  16.369  1.00  0.00     0.289 C 
BRANCH   8   9
HETATM    9  N2  UNL     1      -1.391   1.362  15.931  1.00  0.00     0.089 N 
HETATM   10  C10 UNL     1      -0.539   1.879  16.939  1.00  0.00     0.272 C 
HETATM   11  C11 UNL     1       0.500   2.688  16.149  1.00  0.00     0.032 C 
HETATM   12  C12 UNL     1      -0.367   3.323  15.084  1.00  0.00     0.032 C 
HETATM   13  C13 UNL     1      -1.378   2.231  14.808  1.00  0.00     0.272 C 
ENDBRANCH   8   9
ENDBRANCH   7   8
ENDBRANCH   4   7
ENDBRANCH   2   4
ENDBRANCH   1   2
BRANCH   1  14
HETATM   14  C3  UNL     1      -1.859  -4.179  15.324  1.00  0.00     0.171 C 
HETATM   15  O1  UNL     1      -0.757  -3.373  15.118  1.00  0.00    -0.379 OA
HETATM   16  C4  UNL     1       0.158  -3.570  16.173  1.00  0.00     0.202 C 
HETATM   17  C5  UNL     1       0.717  -4.977  16.118  1.00  0.00     0.173 C 
HETATM   18  C6  UNL     1       0.042  -5.674  14.943  1.00  0.00     0.180 C 
HETATM   19  C7  UNL     1      -1.450  -5.607  15.217  1.00  0.00     0.180 C 
BRANCH  17  20
HETATM   20  O2  UNL     1       0.337  -5.719  17.258  1.00  0.00    -0.391 OA
ATOM     21  H2  UNL     1       0.794  -6.551  17.292  1.00  0.00     0.210 HD
ENDBRANCH  17  20
BRANCH  18  22
HETATM   22  O3  UNL     1       0.489  -6.988  14.807  1.00  0.00    -0.390 OA
ATOM     23  H3  UNL     1       0.744  -7.355  15.646  1.00  0.00     0.210 HD
ENDBRANCH  18  22
BRANCH  19  24
HETATM   24  O4  UNL     1      -2.128  -6.359  14.289  1.00  0.00    -0.390 OA
ATOM     25  H4  UNL     1      -2.805  -6.931  14.632  1.00  0.00     0.210 HD
ENDBRANCH  19  24
ENDBRANCH   1  14
TORSDOF 9
ENDMDL
MODEL 3
REMARK VINA RESULT: -6.966535613      0.762      1.261
REMARK  9 active torsions:
REMARK  status: ('A' for Active; 'I' for Inactive)
REMARK    1  A    between atoms: N1_2  and  C2_3 
REMARK    2  A    between atoms: N1_2  and  S1_16 
REMARK    3  A    between atoms: C2_3  and  C3_4 
REMARK    4  A    between atoms: C5_7  and  O2_8 
REMARK    5  A    between atoms: C6_10  and  O3_11 
REMARK    6  A    between atoms: C7_13  and  O4_14 
REMARK    7  A    between atoms: S1_16  and  C8_19 
REMARK    8  A    between atoms: C8_19  and  C9_20 
REMARK    9  A    between atoms: C9_20  and  N2_21 
ROOT
HETATM    1  C2  UNL     1      -2.049  -3.351  15.534  1.00  0.00     0.169 C 
ENDROOT
BRANCH   1   2
HETATM    2  N1  UNL     1      -2.903  -2.684  14.621  1.00  0.00    -0.313 N 
HETATM    3  C1  UNL     1      -4.016  -3.494  14.263  1.00  0.00     0.162 C 
BRANCH   2   4
HETATM    4  S1  UNL     1      -3.190  -1.060  14.952  1.00  0.00     0.229 S 
HETATM    5  O5  UNL     1      -4.659  -0.760  14.871  1.00  0.00    -0.206 OA
HETATM    6  O6  UNL     1      -2.570  -0.164  13.865  1.00  0.00    -0.206 OA
BRANCH   4   7
HETATM    7  C8  UNL     1      -2.574  -0.448  16.473  1.00  0.00     0.193 C 
BRANCH   7   8
HETATM    8  C9  UNL     1      -2.276   1.004  16.473  1.00  0.00     0.289 C 
BRANCH   8   9
HETATM    9  N2  UNL     1      -1.115   1.367  17.241  1.00  0.00     0.089 N 
HETATM   10  C10 UNL     1      -0.117   2.099  16.550  1.00  0.00     0.272 C 
HETATM   11  C11 UNL     1       1.130   1.919  17.428  1.00  0.00     0.032 C 
HETATM   12  C12 UNL     1       0.994   0.471  17.843  1.00  0.00     0.032 C 
HETATM   13  C13 UNL     1      -0.507   0.325  17.989  1.00  0.00     0.272 C 
ENDBRANCH   8   9
ENDBRANCH   7   8
ENDBRANCH   4   7
ENDBRANCH   2   4
ENDBRANCH   1   2
BRANCH   1  14
HETATM   14  C3  UNL     1      -2.128  -4.837  15.601  1.00  0.00     0.171 C 
HETATM   15  O1  UNL     1      -2.288  -5.331  16.880  1.00  0.00    -0.379 OA
HETATM   16  C4  UNL     1      -2.741  -6.666  16.801  1.00  0.00     0.202 C 
HETATM   17  C5  UNL     1      -1.663  -7.543  16.200  1.00  0.00     0.173 C 
HETATM   18  C6  UNL     1      -0.486  -6.633  15.869  1.00  0.00     0.180 C 
HETATM   19  C7  UNL     1      -1.028  -5.576  14.923  1.00  0.00     0.180 C 
BRANCH  17  20
HETATM   20  O2  UNL     1      -2.077  -8.080  14.961  1.00  0.00    -0.391 OA
ATOM     21  H2  UNL     1      -1.608  -8.882  14.763  1.00  0.00     0.210 HD
ENDBRANCH  17  20
BRANCH  18  22
HETATM   22  O3  UNL     1       0.567  -7.350  15.302  1.00  0.00    -0.390 OA
ATOM     23  H3  UNL     1       1.207  -7.601  15.958  1.00  0.00     0.210 HD
ENDBRANCH  18  22
BRANCH  19  24
HETATM   24  O4  UNL     1       0.005  -4.809  14.441  1.00  0.00    -0.390 OA
ATOM     25  H4  UNL     1      -0.144  -4.393  13.600  1.00  0.00     0.210 HD
ENDBRANCH  19  24
ENDBRANCH   1  14
TORSDOF 9
ENDMDL
MODEL 4
REMARK VINA RESULT: -6.890224969      1.033      1.364
REMARK  9 active torsions:
REMARK  status: ('A' for Active; 'I' for Inactive)
REMARK    1  A    between atoms: N1_2  and  C2_3 
REMARK    2  A    between atoms: N1_2  and  S1_16 
REMARK    3  A    between atoms: C2_3  and  C3_4 
REMARK    4  A    between atoms: C5_7  and  O2_8 
REMARK    5  A    between atoms: C6_10  and  O3_11 
REMARK    6  A    between atoms: C7_13  and  O4_14 
REMARK    7  A    between atoms: S1_16  and  C8_19 
REMARK    8  A    between atoms: C8_19  and  C9_20 
REMARK    9  A    between atoms: C9_20  and  N2_21 
ROOT
HETATM    1  C2  UNL     1      -2.185  -3.610  16.612  1.00  0.00     0.169 C 
ENDROOT
BRANCH   1   2
HETATM    2  N1  UNL     1      -3.425  -2.971  16.361  1.00  0.00    -0.313 N 
HETATM    3  C1  UNL     1      -4.124  -2.699  17.569  1.00  0.00     0.162 C 
BRANCH   2   4
HETATM    4  S1  UNL     1      -3.395  -1.769  15.184  1.00  0.00     0.229 S 
HETATM    5  O5  UNL     1      -4.550  -1.932  14.239  1.00  0.00    -0.206 OA
HETATM    6  O6  UNL     1      -2.157  -1.918  14.283  1.00  0.00    -0.206 OA
BRANCH   4   7
HETATM    7  C8  UNL     1      -3.364  -0.113  15.755  1.00  0.00     0.193 C 
BRANCH   7   8
HETATM    8  C9  UNL     1      -2.184   0.227  16.585  1.00  0.00     0.289 C 
BRANCH   8   9
HETATM    9  N2  UNL     1      -1.658   1.545  16.348  1.00  0.00     0.089 N 
HETATM   10  C10 UNL     1      -1.519   1.924  14.989  1.00  0.00     0.272 C 
HETATM   11  C11 UNL     1      -0.536   3.103  15.046  1.00  0.00     0.032 C 
HETATM   12  C12 UNL     1       0.435   2.628  16.105  1.00  0.00     0.032 C 
HETATM   13  C13 UNL     1      -0.477   1.886  17.059  1.00  0.00     0.272 C 
ENDBRANCH   8   9
ENDBRANCH   7   8
ENDBRANCH   4   7
ENDBRANCH   2   4
ENDBRANCH   1   2
BRANCH   1  14
HETATM   14  C3  UNL     1      -2.098  -5.077  16.372  1.00  0.00     0.171 C 
HETATM   15  O1  UNL     1      -1.811  -5.814  17.503  1.00  0.00    -0.379 OA
HETATM   16  C4  UNL     1      -2.138  -7.165  17.265  1.00  0.00     0.202 C 
HETATM   17  C5  UNL     1      -1.217  -7.741  16.209  1.00  0.00     0.173 C 
HETATM   18  C6  UNL     1      -0.290  -6.614  15.768  1.00  0.00     0.180 C 
HETATM   19  C7  UNL     1      -1.194  -5.502  15.267  1.00  0.00     0.180 C 
BRANCH  17  20
HETATM   20  O2  UNL     1      -1.938  -8.103  15.050  1.00  0.00    -0.391 OA
ATOM     21  H2  UNL     1      -1.585  -8.895  14.661  1.00  0.00     0.210 HD
ENDBRANCH  17  20
BRANCH  18  22
HETATM   22  O3  UNL     1       0.602  -7.044  14.786  1.00  0.00    -0.390 OA
ATOM     23  H3  UNL     1       1.199  -6.350  14.534  1.00  0.00     0.210 HD
ENDBRANCH  18  22
BRANCH  19  24
HETATM   24  O4  UNL     1      -0.436  -4.508  14.695  1.00  0.00    -0.390 OA
ATOM     25  H4  UNL     1      -0.783  -4.130  13.896  1.00  0.00     0.210 HD
ENDBRANCH  19  24
ENDBRANCH   1  14
TORSDOF 9
ENDMDL
MODEL 5
REMARK VINA RESULT: -6.828152263      2.759      4.280
REMARK  9 active torsions:
REMARK  status: ('A' for Active; 'I' for Inactive)
REMARK    1  A    between atoms: N1_2  and  C2_3 
REMARK    2  A    between atoms: N1_2  and  S1_16 
REMARK    3  A    between atoms: C2_3  and  C3_4 
REMARK    4  A    between atoms: C5_7  and  O2_8 
REMARK    5  A    between atoms: C6_10  and  O3_11 
REMARK    6  A    between atoms: C7_13  and  O4_14 
REMARK    7  A    between atoms: S1_16  and  C8_19 
REMARK    8  A    between atoms: C8_19  and  C9_20 
REMARK    9  A    between atoms: C9_20  and  N2_21 
ROOT
HETATM    1  C2  UNL     1      -1.838  -3.569  15.616  1.00  0.00     0.169 C 
ENDROOT
BRANCH   1   2
HETATM    2  N1  UNL     1      -2.620  -2.934  14.620  1.00  0.00    -0.313 N 
HETATM    3  C1  UNL     1      -3.667  -3.781  14.162  1.00  0.00     0.162 C 
BRANCH   2   4
HETATM    4  S1  UNL     1      -2.989  -1.318  14.910  1.00  0.00     0.229 S 
HETATM    5  O5  UNL     1      -2.719  -0.491  13.685  1.00  0.00    -0.206 OA
HETATM    6  O6  UNL     1      -2.046  -0.724  15.971  1.00  0.00    -0.206 OA
BRANCH   4   7
HETATM    7  C8  UNL     1      -4.611  -0.972  15.476  1.00  0.00     0.193 C 
BRANCH   7   8
HETATM    8  C9  UNL     1      -5.043  -1.793  16.632  1.00  0.00     0.289 C 
BRANCH   8   9
HETATM    9  N2  UNL     1      -6.297  -2.470  16.436  1.00  0.00     0.089 N 
HETATM   10  C10 UNL     1      -6.327  -3.840  16.800  1.00  0.00     0.272 C 
HETATM   11  C11 UNL     1      -7.561  -4.379  16.062  1.00  0.00     0.032 C 
HETATM   12  C12 UNL     1      -7.457  -3.650  14.740  1.00  0.00     0.032 C 
HETATM   13  C13 UNL     1      -6.908  -2.304  15.165  1.00  0.00     0.272 C 
ENDBRANCH   8   9
ENDBRANCH   7   8
ENDBRANCH   4   7
ENDBRANCH   2   4
ENDBRANCH   1   2
BRANCH   1  14
HETATM   14  C3  UNL     1      -1.911  -5.052  15.718  1.00  0.00     0.171 C 
HETATM   15  O1  UNL     1      -1.985  -5.522  17.014  1.00  0.00    -0.379 OA
HETATM   16  C4  UNL     1      -2.442  -6.857  16.992  1.00  0.00     0.202 C 
HETATM   17  C5  UNL     1      -1.407  -7.747  16.336  1.00  0.00     0.173 C 
HETATM   18  C6  UNL     1      -0.256  -6.845  15.909  1.00  0.00     0.180 C 
HETATM   19  C7  UNL     1      -0.861  -5.806  14.981  1.00  0.00     0.180 C 
BRANCH  17  20
HETATM   20  O2  UNL     1      -1.905  -8.307  15.139  1.00  0.00    -0.391 OA
ATOM     21  H2  UNL     1      -1.525  -7.881  14.380  1.00  0.00     0.210 HD
ENDBRANCH  17  20
BRANCH  18  22
HETATM   22  O3  UNL     1       0.757  -7.575  15.286  1.00  0.00    -0.390 OA
ATOM     23  H3  UNL     1       1.326  -7.991  15.923  1.00  0.00     0.210 HD
ENDBRANCH  18  22
BRANCH  19  24
HETATM   24  O4  UNL     1       0.137  -5.050  14.415  1.00  0.00    -0.390 OA
ATOM     25  H4  UNL     1      -0.054  -4.682  13.561  1.00  0.00     0.210 HD
ENDBRANCH  19  24
ENDBRANCH   1  14
TORSDOF 9
ENDMDL
