MODEL 1
REMARK VINA RESULT: -6.190904786      0.000      0.000
REMARK  2 active torsions:
REMARK  status: ('A' for Active; 'I' for Inactive)
REMARK    1  A    between atoms: C2_2  and  C3_3 
REMARK    2  A    between atoms: C3_3  and  C4_4 
ROOT
HETATM    1  C4  UNL     1      21.332  85.733  25.180  1.00  0.00    -0.001 C 
HETATM    2  C5  UNL     1      21.491  84.260  25.500  1.00  0.00     0.019 C 
HETATM    3  C6  UNL     1      20.565  85.885  23.907  1.00  0.00     0.102 C 
HETATM    4  N1  UNL     1      20.921  84.887  22.895  1.00  0.00    -0.375 N 
ATOM      5  H1  UNL     1      20.826  83.875  22.988  1.00  0.00     0.161 HD
HETATM    6  C7  UNL     1      21.421  85.582  21.761  1.00  0.00     0.096 C 
HETATM    7 CL1  UNL     1      21.563  84.951  20.132  1.00  0.00    -0.065 Cl
HETATM    8  C8  UNL     1      21.780  86.811  22.097  1.00  0.00     0.024 C 
HETATM    9  C9  UNL     1      21.526  86.995  23.524  1.00  0.00     0.058 C 
HETATM   10  C10 UNL     1      22.538  86.274  24.385  1.00  0.00     0.051 C 
HETATM   11  C11 UNL     1      23.383  87.244  25.160  1.00  0.00     0.034 C 
HETATM   12 CL2  UNL     1      23.496  85.038  23.583  1.00  0.00    -0.118 Cl
ENDROOT
BRANCH   1  13
HETATM   13  C3  UNL     1      21.018  86.633  26.293  1.00  0.00     0.013 C 
BRANCH  13  14
HETATM   14  C2  UNL     1      20.973  86.130  27.676  1.00  0.00    -0.004 C 
HETATM   15  C1  UNL     1      20.646  87.143  28.732  1.00  0.00     0.005 C 
ENDBRANCH  13  14
ENDBRANCH   1  13
TORSDOF 2
ENDMDL
MODEL 2
REMARK VINA RESULT: -6.183281790      2.027      3.037
REMARK  2 active torsions:
REMARK  status: ('A' for Active; 'I' for Inactive)
REMARK    1  A    between atoms: C2_2  and  C3_3 
REMARK    2  A    between atoms: C3_3  and  C4_4 
ROOT
HETATM    1  C4  UNL     1      21.861  84.540  25.173  1.00  0.00    -0.001 C 
HETATM    2  C5  UNL     1      21.675  86.010  25.491  1.00  0.00     0.019 C 
HETATM    3  C6  UNL     1      22.648  84.400  23.911  1.00  0.00     0.102 C 
HETATM    4  N1  UNL     1      22.291  85.394  22.894  1.00  0.00    -0.375 N 
ATOM      5  H1  UNL     1      22.368  86.407  22.989  1.00  0.00     0.161 HD
HETATM    6  C7  UNL     1      21.817  84.692  21.753  1.00  0.00     0.096 C 
HETATM    7 CL1  UNL     1      21.687  85.321  20.122  1.00  0.00    -0.065 Cl
HETATM    8  C8  UNL     1      21.472  83.457  22.084  1.00  0.00     0.024 C 
HETATM    9  C9  UNL     1      21.709  83.277  23.514  1.00  0.00     0.058 C 
HETATM   10  C10 UNL     1      20.674  83.982  24.361  1.00  0.00     0.051 C 
HETATM   11  C11 UNL     1      19.834  82.998  25.124  1.00  0.00     0.034 C 
HETATM   12 CL2  UNL     1      19.708  85.203  23.546  1.00  0.00    -0.118 Cl
ENDROOT
BRANCH   1  13
HETATM   13  C3  UNL     1      22.173  83.645  26.290  1.00  0.00     0.013 C 
BRANCH  13  14
HETATM   14  C2  UNL     1      22.267  84.163  27.665  1.00  0.00    -0.004 C 
HETATM   15  C1  UNL     1      22.647  83.165  28.717  1.00  0.00     0.005 C 
ENDBRANCH  13  14
ENDBRANCH   1  13
TORSDOF 2
ENDMDL
MODEL 3
REMARK VINA RESULT: -6.089580043      2.492      4.355
REMARK  2 active torsions:
REMARK  status: ('A' for Active; 'I' for Inactive)
REMARK    1  A    between atoms: C2_2  and  C3_3 
REMARK    2  A    between atoms: C3_3  and  C4_4 
ROOT
HETATM    1  C4  UNL     1      20.933  85.303  23.459  1.00  0.00    -0.001 C 
HETATM    2  C5  UNL     1      19.685  85.944  24.031  1.00  0.00     0.019 C 
HETATM    3  C6  UNL     1      21.993  85.254  24.511  1.00  0.00     0.102 C 
HETATM    4  N1  UNL     1      22.030  86.455  25.350  1.00  0.00    -0.375 N 
ATOM      5  H1  UNL     1      21.272  86.801  25.939  1.00  0.00     0.161 HD
HETATM    6  C7  UNL     1      23.311  87.050  25.195  1.00  0.00     0.096 C 
HETATM    7 CL1  UNL     1      24.057  88.214  26.274  1.00  0.00    -0.065 Cl
HETATM    8  C8  UNL     1      23.896  86.602  24.095  1.00  0.00     0.024 C 
HETATM    9  C9  UNL     1      22.994  85.654  23.444  1.00  0.00     0.058 C 
HETATM   10  C10 UNL     1      21.835  86.341  22.761  1.00  0.00     0.051 C 
HETATM   11  C11 UNL     1      21.903  86.171  21.270  1.00  0.00     0.034 C 
HETATM   12 CL2  UNL     1      21.532  88.006  23.234  1.00  0.00    -0.118 Cl
ENDROOT
BRANCH   1  13
HETATM   13  C3  UNL     1      20.754  84.130  22.599  1.00  0.00     0.013 C 
BRANCH  13  14
HETATM   14  C2  UNL     1      20.929  82.770  23.136  1.00  0.00    -0.004 C 
HETATM   15  C1  UNL     1      21.770  81.843  22.311  1.00  0.00     0.005 C 
ENDBRANCH  13  14
ENDBRANCH   1  13
TORSDOF 2
ENDMDL
MODEL 4
REMARK VINA RESULT: -6.080306807      2.549      4.241
REMARK  2 active torsions:
REMARK  status: ('A' for Active; 'I' for Inactive)
REMARK    1  A    between atoms: C2_2  and  C3_3 
REMARK    2  A    between atoms: C3_3  and  C4_4 
ROOT
HETATM    1  C4  UNL     1      22.285  85.008  23.431  1.00  0.00    -0.001 C 
HETATM    2  C5  UNL     1      23.544  84.389  24.003  1.00  0.00     0.019 C 
HETATM    3  C6  UNL     1      21.226  85.046  24.484  1.00  0.00     0.102 C 
HETATM    4  N1  UNL     1      21.209  83.849  25.329  1.00  0.00    -0.375 N 
ATOM      5  H1  UNL     1      21.973  83.517  25.919  1.00  0.00     0.161 HD
HETATM    6  C7  UNL     1      19.936  83.234  25.180  1.00  0.00     0.096 C 
HETATM    7 CL1  UNL     1      19.210  82.065  26.266  1.00  0.00    -0.065 Cl
HETATM    8  C8  UNL     1      19.343  83.668  24.078  1.00  0.00     0.024 C 
HETATM    9  C9  UNL     1      20.229  84.626  23.421  1.00  0.00     0.058 C 
HETATM   10  C10 UNL     1      21.398  83.953  22.739  1.00  0.00     0.051 C 
HETATM   11  C11 UNL     1      21.324  84.115  21.247  1.00  0.00     0.034 C 
HETATM   12 CL2  UNL     1      21.725  82.295  23.220  1.00  0.00    -0.118 Cl
ENDROOT
BRANCH   1  13
HETATM   13  C3  UNL     1      22.445  86.179  22.564  1.00  0.00     0.013 C 
BRANCH  13  14
HETATM   14  C2  UNL     1      22.296  87.540  23.105  1.00  0.00    -0.004 C 
HETATM   15  C1  UNL     1      21.470  88.485  22.284  1.00  0.00     0.005 C 
ENDBRANCH  13  14
ENDBRANCH   1  13
TORSDOF 2
ENDMDL
MODEL 5
REMARK VINA RESULT: -6.061877655      2.164      2.994
REMARK  2 active torsions:
REMARK  status: ('A' for Active; 'I' for Inactive)
REMARK    1  A    between atoms: C2_2  and  C3_3 
REMARK    2  A    between atoms: C3_3  and  C4_4 
ROOT
HETATM    1  C4  UNL     1      21.645  85.004  25.711  1.00  0.00    -0.001 C 
HETATM    2  C5  UNL     1      20.884  86.061  26.485  1.00  0.00     0.019 C 
HETATM    3  C6  UNL     1      22.585  85.666  24.757  1.00  0.00     0.102 C 
HETATM    4  N1  UNL     1      22.020  86.861  24.124  1.00  0.00    -0.375 N 
ATOM      5  H1  UNL     1      21.701  87.702  24.604  1.00  0.00     0.161 HD
HETATM    6  C7  UNL     1      21.996  86.635  22.721  1.00  0.00     0.096 C 
HETATM    7 CL1  UNL     1      21.856  87.856  21.471  1.00  0.00    -0.065 Cl
HETATM    8  C8  UNL     1      22.097  85.340  22.463  1.00  0.00     0.024 C 
HETATM    9  C9  UNL     1      22.194  84.620  23.730  1.00  0.00     0.058 C 
HETATM   10  C10 UNL     1      20.870  84.553  24.456  1.00  0.00     0.051 C 
HETATM   11  C11 UNL     1      20.364  83.141  24.536  1.00  0.00     0.034 C 
HETATM   12 CL2  UNL     1      19.634  85.680  23.917  1.00  0.00    -0.118 Cl
ENDROOT
BRANCH   1  13
HETATM   13  C3  UNL     1      22.120  83.835  26.457  1.00  0.00     0.013 C 
BRANCH  13  14
HETATM   14  C2  UNL     1      22.135  83.839  27.929  1.00  0.00    -0.004 C 
HETATM   15  C1  UNL     1      23.114  82.907  28.577  1.00  0.00     0.005 C 
ENDBRANCH  13  14
ENDBRANCH   1  13
TORSDOF 2
ENDMDL
