MODEL 1
REMARK VINA RESULT: -7.593948296      0.000      0.000
REMARK  5 active torsions:
REMARK  status: ('A' for Active; 'I' for Inactive)
REMARK    1  A    between atoms: C1_2  and  C2_4 
REMARK    2  A    between atoms: C2_4  and  C3_5 
REMARK    3  A    between atoms: C3_5  and  N2_6 
REMARK    4  A    between atoms: C3_5  and  C4_10 
REMARK       I    between atoms: C4_10  and  N3_12 
REMARK    5  A    between atoms: N3_12  and  N4_13 
REMARK       I    between atoms: C5_15  and  N6_17 
ROOT
HETATM    1  C4  UNL     1      27.951  64.719  12.914  1.00  0.00     0.343 C 
HETATM    2  O2  UNL     1      28.021  64.987  14.157  1.00  0.00    -0.253 OA
HETATM    3  N3  UNL     1      28.595  65.389  11.945  1.00  0.00    -0.282 NA
ENDROOT
BRANCH   3   4
HETATM    4  N4  UNL     1      29.240  66.060  10.975  1.00  0.00    -0.203 N 
HETATM    5  C5  UNL     1      29.771  65.466   9.975  1.00  0.00     0.215 C 
HETATM    6  N5  UNL     1      29.695  64.054   9.850  1.00  0.00    -0.061 NA
HETATM    7  N6  UNL     1      30.442  66.243   8.994  1.00  0.00    -0.354 N 
HETATM    8  C6  UNL     1      31.865  66.155   9.117  1.00  0.00     0.125 C 
HETATM    9  C11 UNL     1      29.569  66.957   8.082  1.00  0.00     0.125 C 
HETATM   10  C7  UNL     1      32.691  66.986   8.233  1.00  0.00     0.020 C 
HETATM   11  C8  UNL     1      32.096  67.418   6.944  1.00  0.00     0.002 C 
HETATM   12  C9  UNL     1      31.243  66.359   6.319  1.00  0.00     0.002 C 
HETATM   13  C10 UNL     1      29.781  66.526   6.643  1.00  0.00     0.020 C 
ATOM     14  H4  UNL     1      29.309  67.075  11.039  1.00  0.00     0.205 HD
ENDBRANCH   3   4
BRANCH   1  15
HETATM   15  C3  UNL     1      27.058  63.542  12.518  1.00  0.00     0.299 C 
BRANCH  15  16
HETATM   16  C2  UNL     1      25.985  63.926  11.567  1.00  0.00     0.143 C 
BRANCH  16  17
HETATM   17  C1  UNL     1      26.143  63.584  10.165  1.00  0.00     0.233 C 
HETATM   18  N1  UNL     1      25.870  62.251   9.755  1.00  0.00    -0.062 NA
HETATM   19  O1  UNL     1      26.504  64.407   9.314  1.00  0.00    -0.277 OA
ENDBRANCH  16  17
ENDBRANCH  15  16
BRANCH  15  20
HETATM   20  N2  UNL     1      27.965  62.678  11.718  1.00  0.00    -0.065 N 
ATOM     21  H23 UNL     1      27.752  62.659  10.721  1.00  0.00     0.275 HD
ATOM     22  H22 UNL     1      28.913  63.044  11.622  1.00  0.00     0.275 HD
ATOM     23  H21 UNL     1      27.913  61.768  12.174  1.00  0.00     0.275 HD
ENDBRANCH  15  20
ENDBRANCH   1  15
TORSDOF 5
ENDMDL
MODEL 2
REMARK VINA RESULT: -7.110143713      1.082      1.125
REMARK  5 active torsions:
REMARK  status: ('A' for Active; 'I' for Inactive)
REMARK    1  A    between atoms: C1_2  and  C2_4 
REMARK    2  A    between atoms: C2_4  and  C3_5 
REMARK    3  A    between atoms: C3_5  and  N2_6 
REMARK    4  A    between atoms: C3_5  and  C4_10 
REMARK       I    between atoms: C4_10  and  N3_12 
REMARK    5  A    between atoms: N3_12  and  N4_13 
REMARK       I    between atoms: C5_15  and  N6_17 
ROOT
HETATM    1  C4  UNL     1      28.041  64.886  13.042  1.00  0.00     0.343 C 
HETATM    2  O2  UNL     1      28.124  65.199  14.274  1.00  0.00    -0.253 OA
HETATM    3  N3  UNL     1      28.666  65.527  12.042  1.00  0.00    -0.282 NA
ENDROOT
BRANCH   3   4
HETATM    4  N4  UNL     1      29.293  66.169  11.041  1.00  0.00    -0.203 N 
HETATM    5  C5  UNL     1      29.769  65.549  10.029  1.00  0.00     0.215 C 
HETATM    6  N5  UNL     1      29.649  64.138   9.923  1.00  0.00    -0.061 NA
HETATM    7  N6  UNL     1      30.423  66.296   9.014  1.00  0.00    -0.354 N 
HETATM    8  C6  UNL     1      31.848  66.170   9.085  1.00  0.00     0.125 C 
HETATM    9  C11 UNL     1      29.537  67.024   8.127  1.00  0.00     0.125 C 
HETATM   10  C7  UNL     1      32.662  66.967   8.160  1.00  0.00     0.020 C 
HETATM   11  C8  UNL     1      32.031  67.401   6.890  1.00  0.00     0.002 C 
HETATM   12  C9  UNL     1      31.126  66.361   6.310  1.00  0.00     0.002 C 
HETATM   13  C10 UNL     1      29.682  66.571   6.686  1.00  0.00     0.020 C 
ATOM     14  H4  UNL     1      29.392  67.182  11.090  1.00  0.00     0.205 HD
ENDBRANCH   3   4
BRANCH   1  15
HETATM   15  C3  UNL     1      27.156  63.687  12.700  1.00  0.00     0.299 C 
BRANCH  15  16
HETATM   16  C2  UNL     1      26.319  63.912  11.495  1.00  0.00     0.143 C 
BRANCH  16  17
HETATM   17  C1  UNL     1      24.886  63.706  11.595  1.00  0.00     0.233 C 
HETATM   18  N1  UNL     1      24.373  63.035  12.738  1.00  0.00    -0.062 NA
HETATM   19  O1  UNL     1      24.094  64.092  10.726  1.00  0.00    -0.277 OA
ENDBRANCH  16  17
ENDBRANCH  15  16
BRANCH  15  20
HETATM   20  N2  UNL     1      28.132  62.649  12.280  1.00  0.00    -0.065 N 
ATOM     21  H23 UNL     1      27.786  61.693  12.361  1.00  0.00     0.275 HD
ATOM     22  H22 UNL     1      28.304  62.620  11.274  1.00  0.00     0.275 HD
ATOM     23  H21 UNL     1      28.962  62.842  12.840  1.00  0.00     0.275 HD
ENDBRANCH  15  20
ENDBRANCH   1  15
TORSDOF 5
ENDMDL
MODEL 3
REMARK VINA RESULT: -6.889322938      1.867      2.190
REMARK  5 active torsions:
REMARK  status: ('A' for Active; 'I' for Inactive)
REMARK    1  A    between atoms: C1_2  and  C2_4 
REMARK    2  A    between atoms: C2_4  and  C3_5 
REMARK    3  A    between atoms: C3_5  and  N2_6 
REMARK    4  A    between atoms: C3_5  and  C4_10 
REMARK       I    between atoms: C4_10  and  N3_12 
REMARK    5  A    between atoms: N3_12  and  N4_13 
REMARK       I    between atoms: C5_15  and  N6_17 
ROOT
HETATM    1  C4  UNL     1      28.261  64.356  13.075  1.00  0.00     0.343 C 
HETATM    2  O2  UNL     1      28.374  63.093  13.194  1.00  0.00    -0.253 OA
HETATM    3  N3  UNL     1      28.831  65.091  12.108  1.00  0.00    -0.282 NA
ENDROOT
BRANCH   3   4
HETATM    4  N4  UNL     1      29.402  65.828  11.139  1.00  0.00    -0.203 N 
HETATM    5  C5  UNL     1      29.808  65.312  10.041  1.00  0.00     0.215 C 
HETATM    6  N5  UNL     1      29.665  63.920   9.802  1.00  0.00    -0.061 NA
HETATM    7  N6  UNL     1      30.406  66.155   9.068  1.00  0.00    -0.354 N 
HETATM    8  C6  UNL     1      31.830  66.016   9.036  1.00  0.00     0.125 C 
HETATM    9  C11 UNL     1      29.474  66.974   8.317  1.00  0.00     0.125 C 
HETATM   10  C7  UNL     1      32.595  66.899   8.148  1.00  0.00     0.020 C 
HETATM   11  C8  UNL     1      31.891  67.463   6.969  1.00  0.00     0.002 C 
HETATM   12  C9  UNL     1      30.940  66.491   6.345  1.00  0.00     0.002 C 
HETATM   13  C10 UNL     1      29.525  66.669   6.831  1.00  0.00     0.020 C 
ATOM     14  H4  UNL     1      29.515  66.831  11.284  1.00  0.00     0.205 HD
ENDBRANCH   3   4
BRANCH   1  15
HETATM   15  C3  UNL     1      27.405  65.066  14.124  1.00  0.00     0.299 C 
BRANCH  15  16
HETATM   16  C2  UNL     1      26.059  65.433  13.619  1.00  0.00     0.143 C 
BRANCH  16  17
HETATM   17  C1  UNL     1      24.984  64.464  13.734  1.00  0.00     0.233 C 
HETATM   18  N1  UNL     1      24.995  63.332  12.875  1.00  0.00    -0.062 NA
HETATM   19  O1  UNL     1      24.063  64.583  14.551  1.00  0.00    -0.277 OA
ENDBRANCH  16  17
ENDBRANCH  15  16
BRANCH  15  20
HETATM   20  N2  UNL     1      27.142  64.003  15.129  1.00  0.00    -0.065 N 
ATOM     21  H23 UNL     1      26.158  63.893  15.372  1.00  0.00     0.275 HD
ATOM     22  H22 UNL     1      27.277  63.055  14.778  1.00  0.00     0.275 HD
ATOM     23  H21 UNL     1      27.743  64.246  15.916  1.00  0.00     0.275 HD
ENDBRANCH  15  20
ENDBRANCH   1  15
TORSDOF 5
ENDMDL
MODEL 4
REMARK VINA RESULT: -6.872149290      1.621      1.753
REMARK  5 active torsions:
REMARK  status: ('A' for Active; 'I' for Inactive)
REMARK    1  A    between atoms: C1_2  and  C2_4 
REMARK    2  A    between atoms: C2_4  and  C3_5 
REMARK    3  A    between atoms: C3_5  and  N2_6 
REMARK    4  A    between atoms: C3_5  and  C4_10 
REMARK       I    between atoms: C4_10  and  N3_12 
REMARK    5  A    between atoms: N3_12  and  N4_13 
REMARK       I    between atoms: C5_15  and  N6_17 
ROOT
HETATM    1  C4  UNL     1      26.305  65.785  11.944  1.00  0.00     0.343 C 
HETATM    2  O2  UNL     1      26.236  66.046  13.189  1.00  0.00    -0.253 OA
HETATM    3  N3  UNL     1      27.245  66.255  11.110  1.00  0.00    -0.282 NA
ENDROOT
BRANCH   3   4
HETATM    4  N4  UNL     1      28.188  66.725  10.275  1.00  0.00    -0.203 N 
HETATM    5  C5  UNL     1      28.924  65.950   9.574  1.00  0.00     0.215 C 
HETATM    6  N5  UNL     1      28.768  64.541   9.651  1.00  0.00    -0.061 NA
HETATM    7  N6  UNL     1      29.902  66.522   8.719  1.00  0.00    -0.354 N 
HETATM    8  C6  UNL     1      31.224  66.405   9.257  1.00  0.00     0.125 C 
HETATM    9  C11 UNL     1      29.379  67.100   7.496  1.00  0.00     0.125 C 
HETATM   10  C7  UNL     1      32.328  67.041   8.530  1.00  0.00     0.020 C 
HETATM   11  C8  UNL     1      32.152  67.267   7.074  1.00  0.00     0.002 C 
HETATM   12  C9  UNL     1      31.420  66.148   6.402  1.00  0.00     0.002 C 
HETATM   13  C10 UNL     1      29.945  66.420   6.263  1.00  0.00     0.020 C 
ATOM     14  H4  UNL     1      28.320  67.733  10.199  1.00  0.00     0.205 HD
ENDBRANCH   3   4
BRANCH   1  15
HETATM   15  C3  UNL     1      25.222  64.864  11.380  1.00  0.00     0.299 C 
BRANCH  15  16
HETATM   16  C2  UNL     1      24.664  65.351  10.094  1.00  0.00     0.143 C 
BRANCH  16  17
HETATM   17  C1  UNL     1      24.766  64.498   8.923  1.00  0.00     0.233 C 
HETATM   18  N1  UNL     1      25.769  64.784   7.959  1.00  0.00    -0.062 NA
HETATM   19  O1  UNL     1      24.016  63.532   8.734  1.00  0.00    -0.277 OA
ENDBRANCH  16  17
ENDBRANCH  15  16
BRANCH  15  20
HETATM   20  N2  UNL     1      25.975  63.636  11.011  1.00  0.00    -0.065 N 
ATOM     21  H23 UNL     1      25.393  62.886  10.640  1.00  0.00     0.275 HD
ATOM     22  H22 UNL     1      26.564  63.740  10.185  1.00  0.00     0.275 HD
ATOM     23  H21 UNL     1      26.485  63.390  11.859  1.00  0.00     0.275 HD
ENDBRANCH  15  20
ENDBRANCH   1  15
TORSDOF 5
ENDMDL
MODEL 5
REMARK VINA RESULT: -6.866159079      1.842      2.125
REMARK  5 active torsions:
REMARK  status: ('A' for Active; 'I' for Inactive)
REMARK    1  A    between atoms: C1_2  and  C2_4 
REMARK    2  A    between atoms: C2_4  and  C3_5 
REMARK    3  A    between atoms: C3_5  and  N2_6 
REMARK    4  A    between atoms: C3_5  and  C4_10 
REMARK       I    between atoms: C4_10  and  N3_12 
REMARK    5  A    between atoms: N3_12  and  N4_13 
REMARK       I    between atoms: C5_15  and  N6_17 
ROOT
HETATM    1  C4  UNL     1      27.350  66.366  13.031  1.00  0.00     0.343 C 
HETATM    2  O2  UNL     1      26.126  66.665  13.214  1.00  0.00    -0.253 OA
HETATM    3  N3  UNL     1      28.081  66.731  11.967  1.00  0.00    -0.282 NA
ENDROOT
BRANCH   3   4
HETATM    4  N4  UNL     1      28.813  67.098  10.901  1.00  0.00    -0.203 N 
HETATM    5  C5  UNL     1      29.260  66.247  10.057  1.00  0.00     0.215 C 
HETATM    6  N5  UNL     1      28.991  64.862  10.216  1.00  0.00    -0.061 NA
HETATM    7  N6  UNL     1      30.031  66.711   8.959  1.00  0.00    -0.354 N 
HETATM    8  C6  UNL     1      31.429  66.461   9.138  1.00  0.00     0.125 C 
HETATM    9  C11 UNL     1      29.265  67.334   7.897  1.00  0.00     0.125 C 
HETATM   10  C7  UNL     1      32.362  66.976   8.129  1.00  0.00     0.020 C 
HETATM   11  C8  UNL     1      31.833  67.211   6.763  1.00  0.00     0.002 C 
HETATM   12  C9  UNL     1      30.844  66.172   6.339  1.00  0.00     0.002 C 
HETATM   13  C10 UNL     1      29.418  66.594   6.581  1.00  0.00     0.020 C 
ATOM     14  H4  UNL     1      29.020  68.086  10.760  1.00  0.00     0.205 HD
ENDBRANCH   3   4
BRANCH   1  15
HETATM   15  C3  UNL     1      28.017  65.526  14.122  1.00  0.00     0.299 C 
BRANCH  15  16
HETATM   16  C2  UNL     1      27.280  64.272  14.416  1.00  0.00     0.143 C 
BRANCH  16  17
HETATM   17  C1  UNL     1      27.109  63.299  13.353  1.00  0.00     0.233 C 
HETATM   18  N1  UNL     1      28.182  62.413  13.064  1.00  0.00    -0.062 NA
HETATM   19  O1  UNL     1      26.068  63.209  12.691  1.00  0.00    -0.277 OA
ENDBRANCH  16  17
ENDBRANCH  15  16
BRANCH  15  20
HETATM   20  N2  UNL     1      29.277  65.068  13.479  1.00  0.00    -0.065 N 
ATOM     21  H23 UNL     1      29.509  64.092  13.664  1.00  0.00     0.275 HD
ATOM     22  H22 UNL     1      29.219  64.978  12.464  1.00  0.00     0.275 HD
ATOM     23  H21 UNL     1      29.980  65.733  13.800  1.00  0.00     0.275 HD
ENDBRANCH  15  20
ENDBRANCH   1  15
TORSDOF 5
ENDMDL
