MODEL 1
REMARK VINA RESULT: -7.777865450      0.000      0.000
REMARK  5 active torsions:
REMARK  status: ('A' for Active; 'I' for Inactive)
REMARK    1  A    between atoms: C3_9  and  N3_10 
REMARK    2  A    between atoms: N3_10  and  C4_12 
REMARK    3  A    between atoms: C4_12  and  C5_13 
REMARK    4  A    between atoms: C5_13  and  C6_14 
REMARK    5  A    between atoms: C6_14  and  N4_15 
ROOT
HETATM    1  N3  UNL     1      25.976  63.194  11.364  1.00  0.00    -0.226 N 
ATOM      2  H3  UNL     1      25.729  62.443  12.008  1.00  0.00     0.177 HD
ENDROOT
BRANCH   1   3
HETATM    3  C3  UNL     1      25.267  63.369  10.332  1.00  0.00     0.686 A 
HETATM    4  N2  UNL     1      25.079  62.405   9.433  1.00  0.00    -0.141 N 
HETATM    5  C2  UNL     1      24.295  62.699   8.353  1.00  0.00     0.342 A 
ATOM      6  H2  UNL     1      25.502  61.484   9.547  1.00  0.00     0.189 HD
HETATM    7  N1  UNL     1      23.729  63.903   8.185  1.00  0.00    -0.260 N 
HETATM    8  O2  UNL     1      24.099  61.798   7.482  1.00  0.00    -0.246 OA
HETATM    9  C1  UNL     1      23.925  64.876   9.102  1.00  0.00     0.342 A 
ATOM     10  H1  UNL     1      23.151  64.085   7.365  1.00  0.00     0.175 HD
HETATM   11  O1  UNL     1      23.417  66.019   8.988  1.00  0.00    -0.246 OA
HETATM   12  N6  UNL     1      24.694  64.570  10.149  1.00  0.00    -0.141 N 
ATOM     13  H6  UNL     1      24.855  65.291  10.852  1.00  0.00     0.189 HD
ENDBRANCH   1   3
BRANCH   1  14
HETATM   14  C4  UNL     1      27.118  64.016  11.662  1.00  0.00     0.139 C 
BRANCH  14  15
HETATM   15  C5  UNL     1      28.249  63.611  10.723  1.00  0.00     0.040 C 
BRANCH  15  16
HETATM   16  C6  UNL     1      29.329  64.700  10.806  1.00  0.00     0.122 C 
BRANCH  16  17
HETATM   17  N4  UNL     1      29.248  65.496   9.622  1.00  0.00    -0.380 N 
HETATM   18  C7  UNL     1      30.281  65.962   8.972  1.00  0.00     0.072 C 
HETATM   19  C8  UNL     1      30.018  66.762   7.777  1.00  0.00     0.076 C 
HETATM   20  N5  UNL     1      31.604  65.727   9.372  1.00  0.00    -0.380 N 
HETATM   21  C9  UNL     1      31.181  66.999   6.890  1.00  0.00     0.009 C 
HETATM   22  C10 UNL     1      32.523  67.043   7.508  1.00  0.00     0.020 C 
HETATM   23  C11 UNL     1      32.617  66.638   8.945  1.00  0.00     0.121 C 
ATOM     24  H5  UNL     1      31.838  64.922   9.954  1.00  0.00     0.160 HD
ATOM     25  H4  UNL     1      28.320  65.715   9.259  1.00  0.00     0.160 HD
ENDBRANCH  16  17
ENDBRANCH  15  16
ENDBRANCH  14  15
ENDBRANCH   1  14
TORSDOF 5
ENDMDL
MODEL 2
REMARK VINA RESULT: -7.764600019      0.056      1.817
REMARK  5 active torsions:
REMARK  status: ('A' for Active; 'I' for Inactive)
REMARK    1  A    between atoms: C3_9  and  N3_10 
REMARK    2  A    between atoms: N3_10  and  C4_12 
REMARK    3  A    between atoms: C4_12  and  C5_13 
REMARK    4  A    between atoms: C5_13  and  C6_14 
REMARK    5  A    between atoms: C6_14  and  N4_15 
ROOT
HETATM    1  N3  UNL     1      25.994  63.155  11.332  1.00  0.00    -0.226 N 
ATOM      2  H3  UNL     1      25.758  62.337  11.893  1.00  0.00     0.177 HD
ENDROOT
BRANCH   1   3
HETATM    3  C3  UNL     1      25.255  63.455  10.351  1.00  0.00     0.686 A 
HETATM    4  N2  UNL     1      24.696  64.657  10.229  1.00  0.00    -0.141 N 
HETATM    5  C2  UNL     1      23.915  64.877   9.129  1.00  0.00     0.342 A 
ATOM      6  H2  UNL     1      24.845  65.384  10.929  1.00  0.00     0.189 HD
HETATM    7  N1  UNL     1      23.707  63.934   8.198  1.00  0.00    -0.260 N 
HETATM    8  O2  UNL     1      23.371  66.014   8.989  1.00  0.00    -0.246 OA
HETATM    9  C1  UNL     1      24.279  62.717   8.329  1.00  0.00     0.342 A 
ATOM     10  H1  UNL     1      23.116  64.136   7.391  1.00  0.00     0.175 HD
HETATM   11  O1  UNL     1      24.113  61.803   7.484  1.00  0.00    -0.246 OA
HETATM   12  N6  UNL     1      25.037  62.521   9.409  1.00  0.00    -0.141 N 
ATOM     13  H6  UNL     1      25.476  61.608   9.528  1.00  0.00     0.189 HD
ENDBRANCH   1   3
BRANCH   1  14
HETATM   14  C4  UNL     1      27.155  63.927  11.686  1.00  0.00     0.139 C 
BRANCH  14  15
HETATM   15  C5  UNL     1      28.260  63.600  10.688  1.00  0.00     0.040 C 
BRANCH  15  16
HETATM   16  C6  UNL     1      29.317  64.710  10.791  1.00  0.00     0.122 C 
BRANCH  16  17
HETATM   17  N4  UNL     1      29.244  65.503   9.604  1.00  0.00    -0.380 N 
HETATM   18  C7  UNL     1      30.282  65.967   8.961  1.00  0.00     0.072 C 
HETATM   19  C8  UNL     1      30.028  66.763   7.761  1.00  0.00     0.076 C 
HETATM   20  N5  UNL     1      31.603  65.731   9.370  1.00  0.00    -0.380 N 
HETATM   21  C9  UNL     1      31.197  66.997   6.882  1.00  0.00     0.009 C 
HETATM   22  C10 UNL     1      32.535  67.042   7.508  1.00  0.00     0.020 C 
HETATM   23  C11 UNL     1      32.619  66.641   8.948  1.00  0.00     0.121 C 
ATOM     24  H5  UNL     1      31.832  64.928   9.956  1.00  0.00     0.160 HD
ATOM     25  H4  UNL     1      28.319  65.721   9.235  1.00  0.00     0.160 HD
ENDBRANCH  16  17
ENDBRANCH  15  16
ENDBRANCH  14  15
ENDBRANCH   1  14
TORSDOF 5
ENDMDL
MODEL 3
REMARK VINA RESULT: -7.675298965      2.848      6.610
REMARK  5 active torsions:
REMARK  status: ('A' for Active; 'I' for Inactive)
REMARK    1  A    between atoms: C3_9  and  N3_10 
REMARK    2  A    between atoms: N3_10  and  C4_12 
REMARK    3  A    between atoms: C4_12  and  C5_13 
REMARK    4  A    between atoms: C5_13  and  C6_14 
REMARK    5  A    between atoms: C6_14  and  N4_15 
ROOT
HETATM    1  N3  UNL     1      30.113  64.638  10.101  1.00  0.00    -0.226 N 
ATOM      2  H3  UNL     1      30.567  63.728  10.027  1.00  0.00     0.177 HD
ENDROOT
BRANCH   1   3
HETATM    3  C3  UNL     1      30.368  65.520   9.232  1.00  0.00     0.686 A 
HETATM    4  N2  UNL     1      29.411  66.089   8.501  1.00  0.00    -0.141 N 
HETATM    5  C2  UNL     1      29.795  67.032   7.589  1.00  0.00     0.342 A 
ATOM      6  H2  UNL     1      28.431  65.831   8.618  1.00  0.00     0.189 HD
HETATM    7  N1  UNL     1      31.079  67.384   7.421  1.00  0.00    -0.260 N 
HETATM    8  O2  UNL     1      28.904  67.589   6.880  1.00  0.00    -0.246 OA
HETATM    9  C1  UNL     1      32.043  66.803   8.168  1.00  0.00     0.342 A 
ATOM     10  H1  UNL     1      31.326  68.092   6.729  1.00  0.00     0.175 HD
HETATM   11  O1  UNL     1      33.258  67.100   8.046  1.00  0.00    -0.246 OA
HETATM   12  N6  UNL     1      31.649  65.885   9.052  1.00  0.00    -0.141 N 
ATOM     13  H6  UNL     1      32.361  65.433   9.624  1.00  0.00     0.189 HD
ENDBRANCH   1   3
BRANCH   1  14
HETATM   14  C4  UNL     1      29.204  64.873  11.192  1.00  0.00     0.139 C 
BRANCH  14  15
HETATM   15  C5  UNL     1      28.633  63.528  11.627  1.00  0.00     0.040 C 
BRANCH  15  16
HETATM   16  C6  UNL     1      27.218  63.783  12.169  1.00  0.00     0.122 C 
BRANCH  16  17
HETATM   17  N4  UNL     1      26.298  63.027  11.378  1.00  0.00    -0.380 N 
HETATM   18  C7  UNL     1      25.649  63.499  10.347  1.00  0.00     0.072 C 
HETATM   19  C8  UNL     1      24.744  62.588   9.649  1.00  0.00     0.076 C 
HETATM   20  N5  UNL     1      25.789  64.819   9.895  1.00  0.00    -0.380 N 
HETATM   21  C9  UNL     1      24.278  63.035   8.316  1.00  0.00     0.009 C 
HETATM   22  C10 UNL     1      24.167  64.490   8.075  1.00  0.00     0.020 C 
HETATM   23  C11 UNL     1      24.730  65.392   9.127  1.00  0.00     0.121 C 
ATOM     24  H5  UNL     1      26.629  65.358  10.109  1.00  0.00     0.160 HD
ATOM     25  H4  UNL     1      26.137  62.054  11.637  1.00  0.00     0.160 HD
ENDBRANCH  16  17
ENDBRANCH  15  16
ENDBRANCH  14  15
ENDBRANCH   1  14
TORSDOF 5
ENDMDL
MODEL 4
REMARK VINA RESULT: -7.631915285      2.842      6.575
REMARK  5 active torsions:
REMARK  status: ('A' for Active; 'I' for Inactive)
REMARK    1  A    between atoms: C3_9  and  N3_10 
REMARK    2  A    between atoms: N3_10  and  C4_12 
REMARK    3  A    between atoms: C4_12  and  C5_13 
REMARK    4  A    between atoms: C5_13  and  C6_14 
REMARK    5  A    between atoms: C6_14  and  N4_15 
ROOT
HETATM    1  N3  UNL     1      30.063  64.610  10.041  1.00  0.00    -0.226 N 
ATOM      2  H3  UNL     1      30.392  63.652   9.920  1.00  0.00     0.177 HD
ENDROOT
BRANCH   1   3
HETATM    3  C3  UNL     1      30.439  65.492   9.217  1.00  0.00     0.686 A 
HETATM    4  N2  UNL     1      31.718  65.833   9.083  1.00  0.00    -0.141 N 
HETATM    5  C2  UNL     1      32.017  66.799   8.162  1.00  0.00     0.342 A 
ATOM      6  H2  UNL     1      32.447  65.393   9.644  1.00  0.00     0.189 HD
HETATM    7  N1  UNL     1      31.074  67.391   7.414  1.00  0.00    -0.260 N 
HETATM    8  O2  UNL     1      33.228  67.143   8.014  1.00  0.00    -0.246 OA
HETATM    9  C1  UNL     1      29.777  67.037   7.556  1.00  0.00     0.342 A 
ATOM     10  H1  UNL     1      31.335  68.108   6.738  1.00  0.00     0.175 HD
HETATM   11  O1  UNL     1      28.860  67.563   6.878  1.00  0.00    -0.246 OA
HETATM   12  N6  UNL     1      29.506  66.094   8.459  1.00  0.00    -0.141 N 
ATOM     13  H6  UNL     1      28.533  65.814   8.583  1.00  0.00     0.189 HD
ENDBRANCH   1   3
BRANCH   1  14
HETATM   14  C4  UNL     1      29.190  64.910  11.145  1.00  0.00     0.139 C 
BRANCH  14  15
HETATM   15  C5  UNL     1      28.606  63.597  11.654  1.00  0.00     0.040 C 
BRANCH  15  16
HETATM   16  C6  UNL     1      27.187  63.891  12.163  1.00  0.00     0.122 C 
BRANCH  16  17
HETATM   17  N4  UNL     1      26.270  63.099  11.405  1.00  0.00    -0.380 N 
HETATM   18  C7  UNL     1      25.637  63.516  10.342  1.00  0.00     0.072 C 
HETATM   19  C8  UNL     1      24.733  62.574   9.685  1.00  0.00     0.076 C 
HETATM   20  N5  UNL     1      25.792  64.808   9.818  1.00  0.00    -0.380 N 
HETATM   21  C9  UNL     1      24.286  62.949   8.324  1.00  0.00     0.009 C 
HETATM   22  C10 UNL     1      24.189  64.388   8.000  1.00  0.00     0.020 C 
HETATM   23  C11 UNL     1      24.747  65.344   9.007  1.00  0.00     0.121 C 
ATOM     24  H5  UNL     1      26.634  65.352  10.012  1.00  0.00     0.160 HD
ATOM     25  H4  UNL     1      26.098  62.143  11.716  1.00  0.00     0.160 HD
ENDBRANCH  16  17
ENDBRANCH  15  16
ENDBRANCH  14  15
ENDBRANCH   1  14
TORSDOF 5
ENDMDL
MODEL 5
REMARK VINA RESULT: -7.623242086      0.817      1.312
REMARK  5 active torsions:
REMARK  status: ('A' for Active; 'I' for Inactive)
REMARK    1  A    between atoms: C3_9  and  N3_10 
REMARK    2  A    between atoms: N3_10  and  C4_12 
REMARK    3  A    between atoms: C4_12  and  C5_13 
REMARK    4  A    between atoms: C5_13  and  C6_14 
REMARK    5  A    between atoms: C6_14  and  N4_15 
ROOT
HETATM    1  N3  UNL     1      26.576  63.033  11.084  1.00  0.00    -0.226 N 
ATOM      2  H3  UNL     1      26.264  62.982  12.054  1.00  0.00     0.177 HD
ENDROOT
BRANCH   1   3
HETATM    3  C3  UNL     1      25.722  63.267  10.181  1.00  0.00     0.686 A 
HETATM    4  N2  UNL     1      25.307  62.321   9.340  1.00  0.00    -0.141 N 
HETATM    5  C2  UNL     1      24.381  62.679   8.401  1.00  0.00     0.342 A 
ATOM      6  H2  UNL     1      25.666  61.368   9.395  1.00  0.00     0.189 HD
HETATM    7  N1  UNL     1      23.897  63.927   8.312  1.00  0.00    -0.260 N 
HETATM    8  O2  UNL     1      23.969  61.798   7.587  1.00  0.00    -0.246 OA
HETATM    9  C1  UNL     1      24.323  64.881   9.169  1.00  0.00     0.342 A 
ATOM     10  H1  UNL     1      23.208  64.157   7.596  1.00  0.00     0.175 HD
HETATM   11  O1  UNL     1      23.900  66.062   9.125  1.00  0.00    -0.246 OA
HETATM   12  N6  UNL     1      25.227  64.512  10.079  1.00  0.00    -0.141 N 
ATOM     13  H6  UNL     1      25.563  65.217  10.735  1.00  0.00     0.189 HD
ENDBRANCH   1   3
BRANCH   1  14
HETATM   14  C4  UNL     1      27.970  62.835  10.792  1.00  0.00     0.139 C 
BRANCH  14  15
HETATM   15  C5  UNL     1      28.746  64.008  11.381  1.00  0.00     0.040 C 
BRANCH  15  16
HETATM   16  C6  UNL     1      28.806  65.106  10.308  1.00  0.00     0.122 C 
BRANCH  16  17
HETATM   17  N4  UNL     1      30.174  65.481  10.133  1.00  0.00    -0.380 N 
HETATM   18  C7  UNL     1      30.673  65.960   9.025  1.00  0.00     0.072 C 
HETATM   19  C8  UNL     1      32.096  66.293   9.018  1.00  0.00     0.076 C 
HETATM   20  N5  UNL     1      29.907  66.165   7.868  1.00  0.00    -0.380 N 
HETATM   21  C9  UNL     1      32.560  67.123   7.882  1.00  0.00     0.009 C 
HETATM   22  C10 UNL     1      31.840  67.000   6.597  1.00  0.00     0.020 C 
HETATM   23  C11 UNL     1      30.575  66.201   6.607  1.00  0.00     0.121 C 
ATOM     24  H5  UNL     1      28.895  66.284   7.927  1.00  0.00     0.160 HD
ATOM     25  H4  UNL     1      30.803  65.366  10.927  1.00  0.00     0.160 HD
ENDBRANCH  16  17
ENDBRANCH  15  16
ENDBRANCH  14  15
ENDBRANCH   1  14
TORSDOF 5
ENDMDL
