MODEL 1
REMARK VINA RESULT: -9.000699795      0.000      0.000
REMARK  12 active torsions:
REMARK  status: ('A' for Active; 'I' for Inactive)
REMARK    1  A    between atoms: C2_2  and  C3_3 
REMARK    2  A    between atoms: C5_7  and  N2_8 
REMARK    3  A    between atoms: N2_8  and  C6_10 
REMARK    4  A    between atoms: C7_13  and  N4_14 
REMARK    5  A    between atoms: N4_14  and  C8_16 
REMARK    6  A    between atoms: C8_16  and  C9_17 
REMARK    7  A    between atoms: C9_17  and  O1_18 
REMARK    8  A    between atoms: C12_22  and  C13_23 
REMARK       I    between atoms: C13_23  and  N5_25 
REMARK    9  A    between atoms: C21_35  and  N7_36 
REMARK       I    between atoms: N7_36  and  C22_38 
REMARK   10  A    between atoms: C22_38  and  C23_40 
REMARK   11  A    between atoms: C24_41  and  C25_42 
REMARK   12  A    between atoms: C25_42  and  N8_43 
ROOT
HETATM    1  C6  UNL     1      16.403  20.697  19.204  1.00  0.00     0.684 A 
HETATM    2  N3  UNL     1      15.902  21.625  18.381  1.00  0.00    -0.175 N 
ATOM      3  H3  UNL     1      16.465  22.407  18.044  1.00  0.00     0.186 HD
HETATM    4  C7  UNL     1      14.584  21.465  18.013  1.00  0.00     0.136 A 
HETATM    5  C11 UNL     1      13.860  20.371  18.507  1.00  0.00     0.077 A 
HETATM    6  S1  UNL     1      12.263  19.815  18.317  1.00  0.00    -0.079 SA
HETATM    7  C12 UNL     1      12.320  18.399  19.319  1.00  0.00     0.075 A 
HETATM    8  C18 UNL     1      13.608  18.431  19.760  1.00  0.00     0.056 A 
HETATM    9  C19 UNL     1      14.401  19.441  19.346  1.00  0.00     0.071 A 
HETATM   10  N6  UNL     1      15.716  19.655  19.674  1.00  0.00    -0.190 N 
ATOM     11  H6  UNL     1      16.182  18.997  20.298  1.00  0.00     0.184 HD
ENDROOT
BRANCH   1  12
HETATM   12  N2  UNL     1      17.667  20.839  19.564  1.00  0.00    -0.190 N 
ATOM     13  H2  UNL     1      18.154  20.048  19.986  1.00  0.00     0.184 HD
BRANCH  12  14
HETATM   14  C5  UNL     1      18.373  22.068  19.380  1.00  0.00     0.066 A 
HETATM   15  C4  UNL     1      18.864  22.797  20.434  1.00  0.00     0.118 A 
HETATM   16  N1  UNL     1      19.516  23.944  20.217  1.00  0.00    -0.365 N 
HETATM   17  C3  UNL     1      19.726  24.443  18.991  1.00  0.00     0.035 A 
ATOM     18  H1  UNL     1      19.870  24.463  21.021  1.00  0.00     0.165 HD
HETATM   19  C21 UNL     1      19.237  23.722  17.881  1.00  0.00     0.059 A 
HETATM   20  C20 UNL     1      18.563  22.536  18.083  1.00  0.00     0.063 A 
BRANCH  17  21
HETATM   21  C2  UNL     1      20.463  25.728  18.808  1.00  0.00     0.055 C 
HETATM   22  C1  UNL     1      21.898  25.511  19.199  1.00  0.00     0.011 C 
ENDBRANCH  17  21
BRANCH  19  23
HETATM   23  N7  UNL     1      19.472  24.280  16.633  1.00  0.00    -0.322 N 
HETATM   24  C22 UNL     1      18.553  25.038  15.862  1.00  0.00     0.245 C 
HETATM   25  O3  UNL     1      17.390  25.287  16.250  1.00  0.00    -0.268 OA
ATOM     26  H7  UNL     1      20.396  24.130  16.228  1.00  0.00     0.169 HD
BRANCH  24  27
HETATM   27  C23 UNL     1      18.918  25.573  14.565  1.00  0.00     0.072 C 
HETATM   28  C24 UNL     1      19.626  26.597  14.291  1.00  0.00     0.008 C 
BRANCH  28  29
HETATM   29  C25 UNL     1      20.312  27.585  15.128  1.00  0.00     0.299 C 
BRANCH  29  30
HETATM   30  N8  UNL     1      21.465  27.014  15.817  1.00  0.00     0.083 N 
HETATM   31  C26 UNL     1      22.318  26.265  14.926  1.00  0.00     0.309 C 
HETATM   32  C27 UNL     1      22.219  28.132  16.343  1.00  0.00     0.309 C 
ENDBRANCH  29  30
ENDBRANCH  28  29
ENDBRANCH  24  27
ENDBRANCH  19  23
ENDBRANCH  12  14
ENDBRANCH   1  12
BRANCH   4  33
HETATM   33  N4  UNL     1      14.036  22.280  17.252  1.00  0.00    -0.373 N 
ATOM     34  H4  UNL     1      13.280  22.743  17.755  1.00  0.00     0.161 HD
BRANCH  33  35
HETATM   35  C8  UNL     1      14.091  22.780  15.969  1.00  0.00     0.147 C 
BRANCH  35  36
HETATM   36  C9  UNL     1      13.092  21.987  15.093  1.00  0.00     0.186 C 
BRANCH  36  37
HETATM   37  O1  UNL     1      13.739  20.936  14.472  1.00  0.00    -0.394 OA
HETATM   38  C10 UNL     1      14.897  21.339  13.819  1.00  0.00     0.201 C 
ENDBRANCH  36  37
ENDBRANCH  35  36
ENDBRANCH  33  35
ENDBRANCH   4  33
BRANCH   7  39
HETATM   39  C13 UNL     1      11.221  17.461  19.565  1.00  0.00     0.260 C 
HETATM   40  O2  UNL     1      10.645  17.617  20.714  1.00  0.00    -0.267 OA
HETATM   41  N5  UNL     1      10.747  16.452  18.720  1.00  0.00    -0.347 N 
HETATM   42  C14 UNL     1      11.193  16.058  17.422  1.00  0.00     0.126 C 
HETATM   43  C17 UNL     1       9.609  15.563  19.065  1.00  0.00     0.126 C 
HETATM   44  C15 UNL     1      10.404  14.821  17.010  1.00  0.00     0.021 C 
HETATM   45  C16 UNL     1       9.919  14.270  18.339  1.00  0.00     0.021 C 
ENDBRANCH   7  39
TORSDOF 12
ENDMDL
MODEL 2
REMARK VINA RESULT: -8.942141211      2.490      4.255
REMARK  12 active torsions:
REMARK  status: ('A' for Active; 'I' for Inactive)
REMARK    1  A    between atoms: C2_2  and  C3_3 
REMARK    2  A    between atoms: C5_7  and  N2_8 
REMARK    3  A    between atoms: N2_8  and  C6_10 
REMARK    4  A    between atoms: C7_13  and  N4_14 
REMARK    5  A    between atoms: N4_14  and  C8_16 
REMARK    6  A    between atoms: C8_16  and  C9_17 
REMARK    7  A    between atoms: C9_17  and  O1_18 
REMARK    8  A    between atoms: C12_22  and  C13_23 
REMARK       I    between atoms: C13_23  and  N5_25 
REMARK    9  A    between atoms: C21_35  and  N7_36 
REMARK       I    between atoms: N7_36  and  C22_38 
REMARK   10  A    between atoms: C22_38  and  C23_40 
REMARK   11  A    between atoms: C24_41  and  C25_42 
REMARK   12  A    between atoms: C25_42  and  N8_43 
ROOT
HETATM    1  C6  UNL     1      17.748  23.995  20.044  1.00  0.00     0.684 A 
HETATM    2  N3  UNL     1      17.693  24.759  18.947  1.00  0.00    -0.175 N 
ATOM      3  H3  UNL     1      18.292  25.575  18.829  1.00  0.00     0.186 HD
HETATM    4  C7  UNL     1      16.780  24.379  17.986  1.00  0.00     0.136 A 
HETATM    5  C11 UNL     1      15.983  23.247  18.204  1.00  0.00     0.077 A 
HETATM    6  S1  UNL     1      14.768  22.456  17.312  1.00  0.00    -0.079 SA
HETATM    7  C12 UNL     1      14.387  21.167  18.410  1.00  0.00     0.075 A 
HETATM    8  C18 UNL     1      15.244  21.422  19.437  1.00  0.00     0.056 A 
HETATM    9  C19 UNL     1      16.064  22.489  19.335  1.00  0.00     0.071 A 
HETATM   10  N6  UNL     1      16.990  22.917  20.252  1.00  0.00    -0.190 N 
ATOM     11  H6  UNL     1      17.103  22.395  21.121  1.00  0.00     0.184 HD
ENDROOT
BRANCH   1  12
HETATM   12  N2  UNL     1      18.620  24.348  20.973  1.00  0.00    -0.190 N 
ATOM     13  H2  UNL     1      18.281  24.797  21.825  1.00  0.00     0.184 HD
BRANCH  12  14
HETATM   14  C5  UNL     1      20.022  24.120  20.821  1.00  0.00     0.066 A 
HETATM   15  C4  UNL     1      20.703  23.205  21.585  1.00  0.00     0.118 A 
HETATM   16  N1  UNL     1      22.017  23.025  21.412  1.00  0.00    -0.365 N 
HETATM   17  C3  UNL     1      22.735  23.709  20.509  1.00  0.00     0.035 A 
ATOM     18  H1  UNL     1      22.495  22.338  21.995  1.00  0.00     0.165 HD
HETATM   19  C21 UNL     1      22.069  24.658  19.704  1.00  0.00     0.059 A 
HETATM   20  C20 UNL     1      20.714  24.858  19.866  1.00  0.00     0.063 A 
BRANCH  17  21
HETATM   21  C2  UNL     1      24.199  23.465  20.358  1.00  0.00     0.055 C 
HETATM   22  C1  UNL     1      24.902  24.055  21.548  1.00  0.00     0.011 C 
ENDBRANCH  17  21
BRANCH  19  23
HETATM   23  N7  UNL     1      22.853  25.346  18.789  1.00  0.00    -0.322 N 
HETATM   24  C22 UNL     1      23.549  26.560  19.020  1.00  0.00     0.245 C 
HETATM   25  O3  UNL     1      23.523  27.155  20.119  1.00  0.00    -0.268 OA
ATOM     26  H7  UNL     1      22.937  24.938  17.858  1.00  0.00     0.169 HD
BRANCH  24  27
HETATM   27  C23 UNL     1      24.342  27.184  17.978  1.00  0.00     0.072 C 
HETATM   28  C24 UNL     1      23.950  27.758  16.909  1.00  0.00     0.008 C 
BRANCH  28  29
HETATM   29  C25 UNL     1      22.622  27.999  16.338  1.00  0.00     0.299 C 
BRANCH  29  30
HETATM   30  N8  UNL     1      22.474  27.389  15.019  1.00  0.00     0.083 N 
HETATM   31  C26 UNL     1      22.309  25.959  15.095  1.00  0.00     0.309 C 
HETATM   32  C27 UNL     1      21.277  27.961  14.440  1.00  0.00     0.309 C 
ENDBRANCH  29  30
ENDBRANCH  28  29
ENDBRANCH  24  27
ENDBRANCH  19  23
ENDBRANCH  12  14
ENDBRANCH   1  12
BRANCH   4  33
HETATM   33  N4  UNL     1      16.661  25.032  16.936  1.00  0.00    -0.373 N 
ATOM     34  H4  UNL     1      16.070  25.842  17.117  1.00  0.00     0.161 HD
BRANCH  33  35
HETATM   35  C8  UNL     1      17.045  25.046  15.612  1.00  0.00     0.147 C 
BRANCH  35  36
HETATM   36  C9  UNL     1      18.560  24.742  15.539  1.00  0.00     0.186 C 
BRANCH  36  37
HETATM   37  O1  UNL     1      19.124  25.406  14.468  1.00  0.00    -0.394 OA
HETATM   38  C10 UNL     1      18.235  26.280  13.858  1.00  0.00     0.201 C 
ENDBRANCH  36  37
ENDBRANCH  35  36
ENDBRANCH  33  35
ENDBRANCH   4  33
BRANCH   7  39
HETATM   39  C13 UNL     1      13.392  20.111  18.201  1.00  0.00     0.260 C 
HETATM   40  O2  UNL     1      12.846  20.130  17.027  1.00  0.00    -0.267 OA
HETATM   41  N5  UNL     1      12.983  19.123  19.103  1.00  0.00    -0.347 N 
HETATM   42  C14 UNL     1      13.403  18.878  20.446  1.00  0.00     0.126 C 
HETATM   43  C17 UNL     1      11.970  18.087  18.779  1.00  0.00     0.126 C 
HETATM   44  C15 UNL     1      12.544  17.751  21.008  1.00  0.00     0.021 C 
HETATM   45  C16 UNL     1      11.318  17.781  20.113  1.00  0.00     0.021 C 
ENDBRANCH   7  39
TORSDOF 12
ENDMDL
MODEL 3
REMARK VINA RESULT: -8.920172505      2.468      4.738
REMARK  12 active torsions:
REMARK  status: ('A' for Active; 'I' for Inactive)
REMARK    1  A    between atoms: C2_2  and  C3_3 
REMARK    2  A    between atoms: C5_7  and  N2_8 
REMARK    3  A    between atoms: N2_8  and  C6_10 
REMARK    4  A    between atoms: C7_13  and  N4_14 
REMARK    5  A    between atoms: N4_14  and  C8_16 
REMARK    6  A    between atoms: C8_16  and  C9_17 
REMARK    7  A    between atoms: C9_17  and  O1_18 
REMARK    8  A    between atoms: C12_22  and  C13_23 
REMARK       I    between atoms: C13_23  and  N5_25 
REMARK    9  A    between atoms: C21_35  and  N7_36 
REMARK       I    between atoms: N7_36  and  C22_38 
REMARK   10  A    between atoms: C22_38  and  C23_40 
REMARK   11  A    between atoms: C24_41  and  C25_42 
REMARK   12  A    between atoms: C25_42  and  N8_43 
ROOT
HETATM    1  C6  UNL     1      16.409  23.750  18.166  1.00  0.00     0.684 A 
HETATM    2  N3  UNL     1      17.371  23.218  18.927  1.00  0.00    -0.175 N 
ATOM      3  H3  UNL     1      18.227  23.727  19.148  1.00  0.00     0.186 HD
HETATM    4  C7  UNL     1      17.141  21.942  19.396  1.00  0.00     0.136 A 
HETATM    5  C11 UNL     1      15.946  21.292  19.060  1.00  0.00     0.077 A 
HETATM    6  S1  UNL     1      15.283  19.763  19.410  1.00  0.00    -0.079 SA
HETATM    7  C12 UNL     1      13.781  19.888  18.548  1.00  0.00     0.075 A 
HETATM    8  C18 UNL     1      13.874  21.139  18.021  1.00  0.00     0.056 A 
HETATM    9  C19 UNL     1      14.983  21.863  18.281  1.00  0.00     0.071 A 
HETATM   10  N6  UNL     1      15.271  23.132  17.846  1.00  0.00    -0.190 N 
ATOM     11  H6  UNL     1      14.593  23.618  17.260  1.00  0.00     0.184 HD
ENDROOT
BRANCH   1  12
HETATM   12  N2  UNL     1      16.617  24.974  17.710  1.00  0.00    -0.190 N 
ATOM     13  H2  UNL     1      15.968  25.716  17.971  1.00  0.00     0.184 HD
BRANCH  12  14
HETATM   14  C5  UNL     1      17.724  25.287  16.862  1.00  0.00     0.066 A 
HETATM   15  C4  UNL     1      17.576  25.506  15.515  1.00  0.00     0.118 A 
HETATM   16  N1  UNL     1      18.641  25.793  14.757  1.00  0.00    -0.365 N 
HETATM   17  C3  UNL     1      19.884  25.882  15.249  1.00  0.00     0.035 A 
ATOM     18  H1  UNL     1      18.499  25.951  13.759  1.00  0.00     0.165 HD
HETATM   19  C21 UNL     1      20.076  25.664  16.630  1.00  0.00     0.059 A 
HETATM   20  C20 UNL     1      18.992  25.368  17.430  1.00  0.00     0.063 A 
BRANCH  17  21
HETATM   21  C2  UNL     1      21.034  26.208  14.356  1.00  0.00     0.055 C 
HETATM   22  C1  UNL     1      21.139  27.703  14.246  1.00  0.00     0.011 C 
ENDBRANCH  17  21
BRANCH  19  23
HETATM   23  N7  UNL     1      21.380  25.760  17.093  1.00  0.00    -0.322 N 
HETATM   24  C22 UNL     1      21.907  26.784  17.922  1.00  0.00     0.245 C 
HETATM   25  O3  UNL     1      21.217  27.742  18.334  1.00  0.00    -0.268 OA
ATOM     26  H7  UNL     1      22.024  25.022  16.809  1.00  0.00     0.169 HD
BRANCH  24  27
HETATM   27  C23 UNL     1      23.295  26.774  18.343  1.00  0.00     0.072 C 
HETATM   28  C24 UNL     1      24.343  27.000  17.653  1.00  0.00     0.008 C 
BRANCH  28  29
HETATM   29  C25 UNL     1      24.552  27.338  16.243  1.00  0.00     0.299 C 
BRANCH  29  30
HETATM   30  N8  UNL     1      25.793  26.771  15.722  1.00  0.00     0.083 N 
HETATM   31  C26 UNL     1      26.622  27.765  15.085  1.00  0.00     0.309 C 
HETATM   32  C27 UNL     1      26.507  26.241  16.864  1.00  0.00     0.309 C 
ENDBRANCH  29  30
ENDBRANCH  28  29
ENDBRANCH  24  27
ENDBRANCH  19  23
ENDBRANCH  12  14
ENDBRANCH   1  12
BRANCH   4  33
HETATM   33  N4  UNL     1      17.982  21.370  20.110  1.00  0.00    -0.373 N 
ATOM     34  H4  UNL     1      17.502  20.708  20.719  1.00  0.00     0.161 HD
BRANCH  33  35
HETATM   35  C8  UNL     1      19.335  21.314  20.369  1.00  0.00     0.147 C 
BRANCH  35  36
HETATM   36  C9  UNL     1      19.666  22.354  21.464  1.00  0.00     0.186 C 
BRANCH  36  37
HETATM   37  O1  UNL     1      19.856  23.598  20.893  1.00  0.00    -0.394 OA
HETATM   38  C10 UNL     1      20.959  23.630  20.050  1.00  0.00     0.201 C 
ENDBRANCH  36  37
ENDBRANCH  35  36
ENDBRANCH  33  35
ENDBRANCH   4  33
BRANCH   7  39
HETATM   39  C13 UNL     1      12.736  18.864  18.469  1.00  0.00     0.260 C 
HETATM   40  O2  UNL     1      12.162  18.788  17.310  1.00  0.00    -0.267 OA
HETATM   41  N5  UNL     1      12.307  17.993  19.476  1.00  0.00    -0.347 N 
HETATM   42  C14 UNL     1      12.749  17.866  20.828  1.00  0.00     0.126 C 
HETATM   43  C17 UNL     1      11.241  16.977  19.281  1.00  0.00     0.126 C 
HETATM   44  C15 UNL     1      11.856  16.843  21.520  1.00  0.00     0.021 C 
HETATM   45  C16 UNL     1      10.610  16.839  20.652  1.00  0.00     0.021 C 
ENDBRANCH   7  39
TORSDOF 12
ENDMDL
MODEL 4
REMARK VINA RESULT: -8.873110576      2.337      4.938
REMARK  12 active torsions:
REMARK  status: ('A' for Active; 'I' for Inactive)
REMARK    1  A    between atoms: C2_2  and  C3_3 
REMARK    2  A    between atoms: C5_7  and  N2_8 
REMARK    3  A    between atoms: N2_8  and  C6_10 
REMARK    4  A    between atoms: C7_13  and  N4_14 
REMARK    5  A    between atoms: N4_14  and  C8_16 
REMARK    6  A    between atoms: C8_16  and  C9_17 
REMARK    7  A    between atoms: C9_17  and  O1_18 
REMARK    8  A    between atoms: C12_22  and  C13_23 
REMARK       I    between atoms: C13_23  and  N5_25 
REMARK    9  A    between atoms: C21_35  and  N7_36 
REMARK       I    between atoms: N7_36  and  C22_38 
REMARK   10  A    between atoms: C22_38  and  C23_40 
REMARK   11  A    between atoms: C24_41  and  C25_42 
REMARK   12  A    between atoms: C25_42  and  N8_43 
ROOT
HETATM    1  C6  UNL     1      16.439  23.738  18.177  1.00  0.00     0.684 A 
HETATM    2  N3  UNL     1      17.393  23.195  18.941  1.00  0.00    -0.175 N 
ATOM      3  H3  UNL     1      18.252  23.695  19.168  1.00  0.00     0.186 HD
HETATM    4  C7  UNL     1      17.149  21.919  19.404  1.00  0.00     0.136 A 
HETATM    5  C11 UNL     1      15.951  21.280  19.059  1.00  0.00     0.077 A 
HETATM    6  S1  UNL     1      15.273  19.756  19.399  1.00  0.00    -0.079 SA
HETATM    7  C12 UNL     1      13.777  19.897  18.528  1.00  0.00     0.075 A 
HETATM    8  C18 UNL     1      13.883  21.150  18.007  1.00  0.00     0.056 A 
HETATM    9  C19 UNL     1      14.997  21.862  18.276  1.00  0.00     0.071 A 
HETATM   10  N6  UNL     1      15.298  23.131  17.848  1.00  0.00    -0.190 N 
ATOM     11  H6  UNL     1      14.627  23.625  17.259  1.00  0.00     0.184 HD
ENDROOT
BRANCH   1  12
HETATM   12  N2  UNL     1      16.661  24.961  17.726  1.00  0.00    -0.190 N 
ATOM     13  H2  UNL     1      16.027  25.712  18.002  1.00  0.00     0.184 HD
BRANCH  12  14
HETATM   14  C5  UNL     1      17.761  25.264  16.866  1.00  0.00     0.066 A 
HETATM   15  C4  UNL     1      17.599  25.487  15.521  1.00  0.00     0.118 A 
HETATM   16  N1  UNL     1      18.658  25.763  14.750  1.00  0.00    -0.365 N 
HETATM   17  C3  UNL     1      19.908  25.837  15.228  1.00  0.00     0.035 A 
ATOM     18  H1  UNL     1      18.506  25.924  13.755  1.00  0.00     0.165 HD
HETATM   19  C21 UNL     1      20.114  25.615  16.606  1.00  0.00     0.059 A 
HETATM   20  C20 UNL     1      19.036  25.329  17.418  1.00  0.00     0.063 A 
BRANCH  17  21
HETATM   21  C2  UNL     1      21.051  26.152  14.321  1.00  0.00     0.055 C 
HETATM   22  C1  UNL     1      21.113  27.642  14.138  1.00  0.00     0.011 C 
ENDBRANCH  17  21
BRANCH  19  23
HETATM   23  N7  UNL     1      21.425  25.695  17.053  1.00  0.00    -0.322 N 
HETATM   24  C22 UNL     1      22.064  26.843  17.587  1.00  0.00     0.245 C 
HETATM   25  O3  UNL     1      21.483  27.943  17.711  1.00  0.00    -0.268 OA
ATOM     26  H7  UNL     1      21.984  24.844  16.992  1.00  0.00     0.169 HD
BRANCH  24  27
HETATM   27  C23 UNL     1      23.446  26.802  18.024  1.00  0.00     0.072 C 
HETATM   28  C24 UNL     1      23.923  26.397  19.136  1.00  0.00     0.008 C 
BRANCH  28  29
HETATM   29  C25 UNL     1      23.303  25.847  20.344  1.00  0.00     0.299 C 
BRANCH  29  30
HETATM   30  N8  UNL     1      22.770  26.894  21.211  1.00  0.00     0.083 N 
HETATM   31  C26 UNL     1      21.333  26.986  21.135  1.00  0.00     0.309 C 
HETATM   32  C27 UNL     1      23.136  26.525  22.562  1.00  0.00     0.309 C 
ENDBRANCH  29  30
ENDBRANCH  28  29
ENDBRANCH  24  27
ENDBRANCH  19  23
ENDBRANCH  12  14
ENDBRANCH   1  12
BRANCH   4  33
HETATM   33  N4  UNL     1      17.981  21.337  20.119  1.00  0.00    -0.373 N 
ATOM     34  H4  UNL     1      17.494  20.662  20.708  1.00  0.00     0.161 HD
BRANCH  33  35
HETATM   35  C8  UNL     1      19.330  21.282  20.399  1.00  0.00     0.147 C 
BRANCH  35  36
HETATM   36  C9  UNL     1      19.656  22.370  21.449  1.00  0.00     0.186 C 
BRANCH  36  37
HETATM   37  O1  UNL     1      20.018  23.544  20.816  1.00  0.00    -0.394 OA
HETATM   38  C10 UNL     1      20.960  23.339  19.818  1.00  0.00     0.201 C 
ENDBRANCH  36  37
ENDBRANCH  35  36
ENDBRANCH  33  35
ENDBRANCH   4  33
BRANCH   7  39
HETATM   39  C13 UNL     1      12.723  18.883  18.440  1.00  0.00     0.260 C 
HETATM   40  O2  UNL     1      12.145  18.826  17.282  1.00  0.00    -0.267 OA
HETATM   41  N5  UNL     1      12.290  18.002  19.437  1.00  0.00    -0.347 N 
HETATM   42  C14 UNL     1      12.735  17.855  20.785  1.00  0.00     0.126 C 
HETATM   43  C17 UNL     1      11.216  16.997  19.232  1.00  0.00     0.126 C 
HETATM   44  C15 UNL     1      11.836  16.830  21.467  1.00  0.00     0.021 C 
HETATM   45  C16 UNL     1      10.588  16.847  20.603  1.00  0.00     0.021 C 
ENDBRANCH   7  39
TORSDOF 12
ENDMDL
MODEL 5
REMARK VINA RESULT: -8.851066384      0.998      1.136
REMARK  12 active torsions:
REMARK  status: ('A' for Active; 'I' for Inactive)
REMARK    1  A    between atoms: C2_2  and  C3_3 
REMARK    2  A    between atoms: C5_7  and  N2_8 
REMARK    3  A    between atoms: N2_8  and  C6_10 
REMARK    4  A    between atoms: C7_13  and  N4_14 
REMARK    5  A    between atoms: N4_14  and  C8_16 
REMARK    6  A    between atoms: C8_16  and  C9_17 
REMARK    7  A    between atoms: C9_17  and  O1_18 
REMARK    8  A    between atoms: C12_22  and  C13_23 
REMARK       I    between atoms: C13_23  and  N5_25 
REMARK    9  A    between atoms: C21_35  and  N7_36 
REMARK       I    between atoms: N7_36  and  C22_38 
REMARK   10  A    between atoms: C22_38  and  C23_40 
REMARK   11  A    between atoms: C24_41  and  C25_42 
REMARK   12  A    between atoms: C25_42  and  N8_43 
ROOT
HETATM    1  C6  UNL     1      16.614  20.959  19.173  1.00  0.00     0.684 A 
HETATM    2  N3  UNL     1      16.108  21.874  18.339  1.00  0.00    -0.175 N 
ATOM      3  H3  UNL     1      16.667  22.651  17.987  1.00  0.00     0.186 HD
HETATM    4  C7  UNL     1      14.787  21.707  17.982  1.00  0.00     0.136 A 
HETATM    5  C11 UNL     1      14.068  20.620  18.497  1.00  0.00     0.077 A 
HETATM    6  S1  UNL     1      12.470  20.060  18.326  1.00  0.00    -0.079 SA
HETATM    7  C12 UNL     1      12.535  18.660  19.350  1.00  0.00     0.075 A 
HETATM    8  C18 UNL     1      13.825  18.700  19.783  1.00  0.00     0.056 A 
HETATM    9  C19 UNL     1      14.615  19.704  19.347  1.00  0.00     0.071 A 
HETATM   10  N6  UNL     1      15.931  19.924  19.664  1.00  0.00    -0.190 N 
ATOM     11  H6  UNL     1      16.402  19.276  20.295  1.00  0.00     0.184 HD
ENDROOT
BRANCH   1  12
HETATM   12  N2  UNL     1      17.881  21.108  19.523  1.00  0.00    -0.190 N 
ATOM     13  H2  UNL     1      18.403  20.294  19.850  1.00  0.00     0.184 HD
BRANCH  12  14
HETATM   14  C5  UNL     1      18.541  22.374  19.457  1.00  0.00     0.066 A 
HETATM   15  C4  UNL     1      18.495  23.279  20.488  1.00  0.00     0.118 A 
HETATM   16  N1  UNL     1      19.124  24.455  20.383  1.00  0.00    -0.365 N 
HETATM   17  C3  UNL     1      19.820  24.816  19.295  1.00  0.00     0.035 A 
ATOM     18  H1  UNL     1      19.072  25.107  21.166  1.00  0.00     0.165 HD
HETATM   19  C21 UNL     1      19.891  23.911  18.215  1.00  0.00     0.059 A 
HETATM   20  C20 UNL     1      19.250  22.693  18.303  1.00  0.00     0.063 A 
BRANCH  17  21
HETATM   21  C2  UNL     1      20.504  26.140  19.235  1.00  0.00     0.055 C 
HETATM   22  C1  UNL     1      21.377  26.279  20.450  1.00  0.00     0.011 C 
ENDBRANCH  17  21
BRANCH  19  23
HETATM   23  N7  UNL     1      20.616  24.330  17.108  1.00  0.00    -0.322 N 
HETATM   24  C22 UNL     1      20.092  24.938  15.939  1.00  0.00     0.245 C 
HETATM   25  O3  UNL     1      18.872  25.165  15.784  1.00  0.00    -0.268 OA
ATOM     26  H7  UNL     1      21.625  24.186  17.139  1.00  0.00     0.169 HD
BRANCH  24  27
HETATM   27  C23 UNL     1      20.955  25.336  14.844  1.00  0.00     0.072 C 
HETATM   28  C24 UNL     1      21.918  26.172  14.847  1.00  0.00     0.008 C 
BRANCH  28  29
HETATM   29  C25 UNL     1      22.501  27.016  15.892  1.00  0.00     0.299 C 
BRANCH  29  30
HETATM   30  N8  UNL     1      23.838  26.571  16.274  1.00  0.00     0.083 N 
HETATM   31  C26 UNL     1      24.873  27.373  15.669  1.00  0.00     0.309 C 
HETATM   32  C27 UNL     1      23.921  26.722  17.711  1.00  0.00     0.309 C 
ENDBRANCH  29  30
ENDBRANCH  28  29
ENDBRANCH  24  27
ENDBRANCH  19  23
ENDBRANCH  12  14
ENDBRANCH   1  12
BRANCH   4  33
HETATM   33  N4  UNL     1      14.234  22.510  17.212  1.00  0.00    -0.373 N 
ATOM     34  H4  UNL     1      13.533  23.036  17.733  1.00  0.00     0.161 HD
BRANCH  33  35
HETATM   35  C8  UNL     1      14.234  22.940  15.903  1.00  0.00     0.147 C 
BRANCH  35  36
HETATM   36  C9  UNL     1      13.165  22.138  15.124  1.00  0.00     0.186 C 
BRANCH  36  37
HETATM   37  O1  UNL     1      13.744  21.035  14.528  1.00  0.00    -0.394 OA
HETATM   38  C10 UNL     1      14.896  21.357  13.823  1.00  0.00     0.201 C 
ENDBRANCH  36  37
ENDBRANCH  35  36
ENDBRANCH  33  35
ENDBRANCH   4  33
BRANCH   7  39
HETATM   39  C13 UNL     1      11.438  17.725  19.617  1.00  0.00     0.260 C 
HETATM   40  O2  UNL     1      10.878  17.890  20.772  1.00  0.00    -0.267 OA
HETATM   41  N5  UNL     1      10.952  16.710  18.787  1.00  0.00    -0.347 N 
HETATM   42  C14 UNL     1      11.381  16.305  17.486  1.00  0.00     0.126 C 
HETATM   43  C17 UNL     1       9.818  15.824  19.154  1.00  0.00     0.126 C 
HETATM   44  C15 UNL     1      10.586  15.065  17.094  1.00  0.00     0.021 C 
HETATM   45  C16 UNL     1      10.118  14.525  18.433  1.00  0.00     0.021 C 
ENDBRANCH   7  39
TORSDOF 12
ENDMDL
