MODEL 1
REMARK VINA RESULT: -5.217109094      0.000      0.000
REMARK  3 active torsions:
REMARK  status: ('A' for Active; 'I' for Inactive)
REMARK    1  A    between atoms: C2_2  and  C3_3 
REMARK    2  A    between atoms: C6_7  and  O1_8 
REMARK    3  A    between atoms: C6_7  and  N1_10 
ROOT
HETATM    1  C3  UNL     1      54.044  79.682  60.491  1.00  0.00     0.113 C 
HETATM    2  S1  UNL     1      53.254  80.156  58.906  1.00  0.00    -0.159 SA
HETATM    3  C4  UNL     1      52.012  78.797  59.052  1.00  0.00     0.079 C 
HETATM    4  C5  UNL     1      52.874  77.726  59.590  1.00  0.00     0.083 C 
HETATM    5  C6  UNL     1      53.985  78.216  60.442  1.00  0.00     0.271 C 
ENDROOT
BRANCH   5   6
HETATM    6  O1  UNL     1      53.728  77.753  61.758  1.00  0.00    -0.362 OA
ATOM      7  H1  UNL     1      53.875  76.815  61.766  1.00  0.00     0.212 HD
ENDBRANCH   5   6
BRANCH   5   8
HETATM    8  N1  UNL     1      55.228  77.602  60.062  1.00  0.00     0.116 N 
HETATM    9  C7  UNL     1      55.307  77.005  58.785  1.00  0.00     0.313 C 
HETATM   10  C8  UNL     1      55.795  76.727  61.054  1.00  0.00     0.313 C 
ENDBRANCH   5   8
BRANCH   1  11
HETATM   11  C2  UNL     1      55.331  80.348  60.749  1.00  0.00     0.015 C 
HETATM   12  C1  UNL     1      55.814  81.148  59.529  1.00  0.00     0.006 C 
ENDBRANCH   1  11
TORSDOF 3
ENDMDL
MODEL 2
REMARK VINA RESULT: -5.140806965      1.594      3.075
REMARK  3 active torsions:
REMARK  status: ('A' for Active; 'I' for Inactive)
REMARK    1  A    between atoms: C2_2  and  C3_3 
REMARK    2  A    between atoms: C6_7  and  O1_8 
REMARK    3  A    between atoms: C6_7  and  N1_10 
ROOT
HETATM    1  C3  UNL     1      54.486  78.610  59.178  1.00  0.00     0.113 C 
HETATM    2  S1  UNL     1      53.437  79.955  59.848  1.00  0.00    -0.159 SA
HETATM    3  C4  UNL     1      54.904  80.823  60.560  1.00  0.00     0.079 C 
HETATM    4  C5  UNL     1      55.670  79.660  61.048  1.00  0.00     0.083 C 
HETATM    5  C6  UNL     1      55.479  78.430  60.243  1.00  0.00     0.271 C 
ENDROOT
BRANCH   5   6
HETATM    6  O1  UNL     1      56.724  78.146  59.624  1.00  0.00    -0.362 OA
ATOM      7  H1  UNL     1      57.114  78.974  59.371  1.00  0.00     0.212 HD
ENDBRANCH   5   6
BRANCH   5   8
HETATM    8  N1  UNL     1      55.214  77.300  61.092  1.00  0.00     0.116 N 
HETATM    9  C7  UNL     1      54.310  77.476  62.163  1.00  0.00     0.313 C 
HETATM   10  C8  UNL     1      56.386  76.599  61.544  1.00  0.00     0.313 C 
ENDBRANCH   5   8
BRANCH   1  11
HETATM   11  C2  UNL     1      53.734  77.445  58.682  1.00  0.00     0.015 C 
HETATM   12  C1  UNL     1      52.232  77.568  58.980  1.00  0.00     0.006 C 
ENDBRANCH   1  11
TORSDOF 3
ENDMDL
MODEL 3
REMARK VINA RESULT: -5.140162217      1.717      2.568
REMARK  3 active torsions:
REMARK  status: ('A' for Active; 'I' for Inactive)
REMARK    1  A    between atoms: C2_2  and  C3_3 
REMARK    2  A    between atoms: C6_7  and  O1_8 
REMARK    3  A    between atoms: C6_7  and  N1_10 
ROOT
HETATM    1  C3  UNL     1      56.369  79.002  60.842  1.00  0.00     0.113 C 
HETATM    2  S1  UNL     1      56.150  80.615  59.999  1.00  0.00    -0.159 SA
HETATM    3  C4  UNL     1      54.418  80.772  60.623  1.00  0.00     0.079 C 
HETATM    4  C5  UNL     1      53.973  79.372  60.482  1.00  0.00     0.083 C 
HETATM    5  C6  UNL     1      55.056  78.373  60.657  1.00  0.00     0.271 C 
ENDROOT
BRANCH   5   6
HETATM    6  O1  UNL     1      54.758  77.647  61.839  1.00  0.00    -0.362 OA
ATOM      7  H1  UNL     1      54.516  78.275  62.509  1.00  0.00     0.212 HD
ENDBRANCH   5   6
BRANCH   5   8
HETATM    8  N1  UNL     1      55.027  77.400  59.599  1.00  0.00     0.116 N 
HETATM    9  C7  UNL     1      54.173  77.642  58.501  1.00  0.00     0.313 C 
HETATM   10  C8  UNL     1      54.895  76.036  60.039  1.00  0.00     0.313 C 
ENDBRANCH   5   8
BRANCH   1  11
HETATM   11  C2  UNL     1      57.585  78.272  60.448  1.00  0.00     0.015 C 
HETATM   12  C1  UNL     1      58.095  77.363  61.578  1.00  0.00     0.006 C 
ENDBRANCH   1  11
TORSDOF 3
ENDMDL
MODEL 4
REMARK VINA RESULT: -5.088053033      1.600      3.044
REMARK  3 active torsions:
REMARK  status: ('A' for Active; 'I' for Inactive)
REMARK    1  A    between atoms: C2_2  and  C3_3 
REMARK    2  A    between atoms: C6_7  and  O1_8 
REMARK    3  A    between atoms: C6_7  and  N1_10 
ROOT
HETATM    1  C3  UNL     1      53.741  78.806  59.082  1.00  0.00     0.113 C 
HETATM    2  S1  UNL     1      53.682  80.351  60.067  1.00  0.00    -0.159 SA
HETATM    3  C4  UNL     1      55.525  80.471  60.098  1.00  0.00     0.079 C 
HETATM    4  C5  UNL     1      55.865  79.046  60.280  1.00  0.00     0.083 C 
HETATM    5  C6  UNL     1      54.894  78.109  59.666  1.00  0.00     0.271 C 
ENDROOT
BRANCH   5   6
HETATM    6  O1  UNL     1      55.573  77.447  58.610  1.00  0.00    -0.362 OA
ATOM      7  H1  UNL     1      55.121  76.627  58.449  1.00  0.00     0.212 HD
ENDBRANCH   5   6
BRANCH   5   8
HETATM    8  N1  UNL     1      54.531  77.071  60.591  1.00  0.00     0.116 N 
HETATM    9  C7  UNL     1      54.545  77.379  61.969  1.00  0.00     0.313 C 
HETATM   10  C8  UNL     1      55.176  75.806  60.359  1.00  0.00     0.313 C 
ENDBRANCH   5   8
BRANCH   1  11
HETATM   11  C2  UNL     1      52.450  78.108  58.973  1.00  0.00     0.015 C 
HETATM   12  C1  UNL     1      51.266  79.084  59.054  1.00  0.00     0.006 C 
ENDBRANCH   1  11
TORSDOF 3
ENDMDL
MODEL 5
REMARK VINA RESULT: -4.809862666      1.595      3.200
REMARK  3 active torsions:
REMARK  status: ('A' for Active; 'I' for Inactive)
REMARK    1  A    between atoms: C2_2  and  C3_3 
REMARK    2  A    between atoms: C6_7  and  O1_8 
REMARK    3  A    between atoms: C6_7  and  N1_10 
ROOT
HETATM    1  C3  UNL     1      55.889  77.907  61.314  1.00  0.00     0.113 C 
HETATM    2  S1  UNL     1      57.055  79.087  60.535  1.00  0.00    -0.159 SA
HETATM    3  C4  UNL     1      55.771  80.415  60.491  1.00  0.00     0.079 C 
HETATM    4  C5  UNL     1      54.590  79.610  60.124  1.00  0.00     0.083 C 
HETATM    5  C6  UNL     1      54.629  78.216  60.630  1.00  0.00     0.271 C 
ENDROOT
BRANCH   5   6
HETATM    6  O1  UNL     1      53.583  78.095  61.582  1.00  0.00    -0.362 OA
ATOM      7  H1  UNL     1      53.139  77.272  61.417  1.00  0.00     0.212 HD
ENDBRANCH   5   6
BRANCH   5   8
HETATM    8  N1  UNL     1      54.297  77.286  59.585  1.00  0.00     0.116 N 
HETATM    9  C7  UNL     1      55.183  77.176  58.491  1.00  0.00     0.313 C 
HETATM   10  C8  UNL     1      52.939  77.366  59.117  1.00  0.00     0.313 C 
ENDBRANCH   5   8
BRANCH   1  11
HETATM   11  C2  UNL     1      56.371  76.516  61.353  1.00  0.00     0.015 C 
HETATM   12  C1  UNL     1      57.862  76.440  61.723  1.00  0.00     0.006 C 
ENDBRANCH   1  11
TORSDOF 3
ENDMDL
