MODEL 1
REMARK VINA RESULT: -9.429576312      0.000      0.000
REMARK  4 active torsions:
REMARK  status: ('A' for Active; 'I' for Inactive)
REMARK    1  A    between atoms: C9_11  and  C11_13 
REMARK    2  A    between atoms: C11_13  and  C12_14 
REMARK    3  A    between atoms: C12_14  and  C13_15 
REMARK    4  A    between atoms: C17_20  and  C18_21 
ROOT
HETATM    1  C1  UNL     1      47.572  95.255  36.385  1.00  0.00     0.016 C 
HETATM    2  C2  UNL     1      48.242  93.930  36.078  1.00  0.00     0.034 C 
HETATM    3  C3  UNL     1      47.326  92.893  35.670  1.00  0.00    -0.026 A 
HETATM    4  C4  UNL     1      46.024  93.336  35.665  1.00  0.00     0.010 A 
HETATM    5  C5  UNL     1      44.965  92.508  35.305  1.00  0.00     0.001 A 
HETATM    6  C6  UNL     1      45.200  91.221  34.946  1.00  0.00     0.002 A 
HETATM    7  C7  UNL     1      46.490  90.741  34.939  1.00  0.00     0.030 A 
HETATM    8  C8  UNL     1      47.525  91.583  35.299  1.00  0.00     0.036 A 
HETATM    9  N1  UNL     1      48.738  90.877  35.215  1.00  0.00    -0.371 N 
ATOM     10  H1  UNL     1      48.626  89.865  35.149  1.00  0.00     0.161 HD
HETATM   11  C9  UNL     1      50.101  91.314  35.205  1.00  0.00     0.076 C 
HETATM   12  C10 UNL     1      50.597  91.373  36.620  1.00  0.00     0.051 C 
HETATM   13  S1  UNL     1      50.155  92.888  34.352  1.00  0.00    -0.129 SA
HETATM   14  C17 UNL     1      49.388  94.232  35.180  1.00  0.00     0.085 C 
ENDROOT
BRANCH  11  15
HETATM   15  C11 UNL     1      50.989  90.342  34.427  1.00  0.00     0.043 C 
BRANCH  15  16
HETATM   16  C12 UNL     1      52.271  91.054  34.139  1.00  0.00     0.011 C 
BRANCH  16  17
HETATM   17  C13 UNL     1      52.959  90.584  32.894  1.00  0.00    -0.051 C 
HETATM   18  C14 UNL     1      52.429  89.172  32.604  1.00  0.00     0.014 C 
HETATM   19  C15 UNL     1      52.642  91.415  31.685  1.00  0.00     0.014 C 
HETATM   20  C16 UNL     1      54.453  90.439  33.068  1.00  0.00     0.014 C 
ENDBRANCH  16  17
ENDBRANCH  15  16
ENDBRANCH  11  15
BRANCH  14  21
HETATM   21  C18 UNL     1      49.005  95.277  34.188  1.00  0.00     0.063 C 
HETATM   22  C19 UNL     1      49.796  96.280  33.861  1.00  0.00     0.264 C 
HETATM   23  F1  UNL     1      49.428  97.220  32.957  1.00  0.00    -0.173 F 
HETATM   24  F2  UNL     1      51.037  96.450  34.403  1.00  0.00    -0.173 F 
ENDBRANCH  14  21
TORSDOF 4
ENDMDL
MODEL 2
REMARK VINA RESULT: -9.411561831      2.944      4.238
REMARK  4 active torsions:
REMARK  status: ('A' for Active; 'I' for Inactive)
REMARK    1  A    between atoms: C9_11  and  C11_13 
REMARK    2  A    between atoms: C11_13  and  C12_14 
REMARK    3  A    between atoms: C12_14  and  C13_15 
REMARK    4  A    between atoms: C17_20  and  C18_21 
ROOT
HETATM    1  C1  UNL     1      46.249  92.218  36.017  1.00  0.00     0.016 C 
HETATM    2  C2  UNL     1      47.622  92.131  35.379  1.00  0.00     0.034 C 
HETATM    3  C3  UNL     1      48.143  93.402  34.939  1.00  0.00    -0.026 A 
HETATM    4  C4  UNL     1      47.259  94.428  35.184  1.00  0.00     0.010 A 
HETATM    5  C5  UNL     1      47.547  95.745  34.842  1.00  0.00     0.001 A 
HETATM    6  C6  UNL     1      48.728  96.052  34.249  1.00  0.00     0.002 A 
HETATM    7  C7  UNL     1      49.638  95.052  33.988  1.00  0.00     0.030 A 
HETATM    8  C8  UNL     1      49.330  93.751  34.338  1.00  0.00     0.036 A 
HETATM    9  N1  UNL     1      50.402  92.916  33.978  1.00  0.00    -0.371 N 
ATOM     10  H1  UNL     1      51.069  93.349  33.339  1.00  0.00     0.161 HD
HETATM   11  C9  UNL     1      50.731  91.571  34.341  1.00  0.00     0.076 C 
HETATM   12  C10 UNL     1      50.085  90.637  33.360  1.00  0.00     0.051 C 
HETATM   13  S1  UNL     1      50.200  91.326  36.034  1.00  0.00    -0.129 SA
HETATM   14  C17 UNL     1      48.465  91.318  36.296  1.00  0.00     0.085 C 
ENDROOT
BRANCH  11  15
HETATM   15  C11 UNL     1      52.242  91.340  34.299  1.00  0.00     0.043 C 
BRANCH  15  16
HETATM   16  C12 UNL     1      52.465  90.016  33.642  1.00  0.00     0.011 C 
BRANCH  16  17
HETATM   17  C13 UNL     1      53.574  90.018  32.635  1.00  0.00    -0.051 C 
HETATM   18  C14 UNL     1      53.225  91.096  31.598  1.00  0.00     0.014 C 
HETATM   19  C15 UNL     1      54.906  90.398  33.213  1.00  0.00     0.014 C 
HETATM   20  C16 UNL     1      53.673  88.719  31.868  1.00  0.00     0.014 C 
ENDBRANCH  16  17
ENDBRANCH  15  16
ENDBRANCH  11  15
BRANCH  14  21
HETATM   21  C18 UNL     1      48.173  91.672  37.715  1.00  0.00     0.063 C 
HETATM   22  C19 UNL     1      48.274  90.807  38.705  1.00  0.00     0.264 C 
HETATM   23  F1  UNL     1      48.003  91.148  39.988  1.00  0.00    -0.173 F 
HETATM   24  F2  UNL     1      48.657  89.510  38.518  1.00  0.00    -0.173 F 
ENDBRANCH  14  21
TORSDOF 4
ENDMDL
MODEL 3
REMARK VINA RESULT: -9.409295305      2.109      3.698
REMARK  4 active torsions:
REMARK  status: ('A' for Active; 'I' for Inactive)
REMARK    1  A    between atoms: C9_11  and  C11_13 
REMARK    2  A    between atoms: C11_13  and  C12_14 
REMARK    3  A    between atoms: C12_14  and  C13_15 
REMARK    4  A    between atoms: C17_20  and  C18_21 
ROOT
HETATM    1  C1  UNL     1      46.156  92.881  35.711  1.00  0.00     0.016 C 
HETATM    2  C2  UNL     1      47.546  92.631  35.160  1.00  0.00     0.034 C 
HETATM    3  C3  UNL     1      48.232  93.829  34.740  1.00  0.00    -0.026 A 
HETATM    4  C4  UNL     1      47.456  94.950  34.920  1.00  0.00     0.010 A 
HETATM    5  C5  UNL     1      47.909  96.222  34.584  1.00  0.00     0.001 A 
HETATM    6  C6  UNL     1      49.151  96.384  34.061  1.00  0.00     0.002 A 
HETATM    7  C7  UNL     1      49.957  95.286  33.867  1.00  0.00     0.030 A 
HETATM    8  C8  UNL     1      49.484  94.033  34.210  1.00  0.00     0.036 A 
HETATM    9  N1  UNL     1      50.476  93.078  33.925  1.00  0.00    -0.371 N 
ATOM     10  H1  UNL     1      51.224  93.423  33.324  1.00  0.00     0.161 HD
HETATM   11  C9  UNL     1      50.630  91.711  34.321  1.00  0.00     0.076 C 
HETATM   12  C10 UNL     1      49.943  90.838  33.312  1.00  0.00     0.051 C 
HETATM   13  S1  UNL     1      49.974  91.555  35.981  1.00  0.00    -0.129 SA
HETATM   14  C17 UNL     1      48.236  91.745  36.135  1.00  0.00     0.085 C 
ENDROOT
BRANCH  11  15
HETATM   15  C11 UNL     1      52.105  91.312  34.374  1.00  0.00     0.043 C 
BRANCH  15  16
HETATM   16  C12 UNL     1      52.247  90.050  33.585  1.00  0.00     0.011 C 
BRANCH  16  17
HETATM   17  C13 UNL     1      53.422  90.046  32.657  1.00  0.00    -0.051 C 
HETATM   18  C14 UNL     1      53.149  91.119  31.593  1.00  0.00     0.014 C 
HETATM   19  C15 UNL     1      54.713  90.425  33.324  1.00  0.00     0.014 C 
HETATM   20  C16 UNL     1      53.571  88.743  31.905  1.00  0.00     0.014 C 
ENDBRANCH  16  17
ENDBRANCH  15  16
ENDBRANCH  11  15
BRANCH  14  21
HETATM   21  C18 UNL     1      47.900  92.152  37.530  1.00  0.00     0.063 C 
HETATM   22  C19 UNL     1      48.460  93.184  38.131  1.00  0.00     0.264 C 
HETATM   23  F1  UNL     1      48.141  93.537  39.399  1.00  0.00    -0.173 F 
HETATM   24  F2  UNL     1      49.397  93.972  37.527  1.00  0.00    -0.173 F 
ENDBRANCH  14  21
TORSDOF 4
ENDMDL
MODEL 4
REMARK VINA RESULT: -8.818015123      3.367      4.654
REMARK  4 active torsions:
REMARK  status: ('A' for Active; 'I' for Inactive)
REMARK    1  A    between atoms: C9_11  and  C11_13 
REMARK    2  A    between atoms: C11_13  and  C12_14 
REMARK    3  A    between atoms: C12_14  and  C13_15 
REMARK    4  A    between atoms: C17_20  and  C18_21 
ROOT
HETATM    1  C1  UNL     1      45.256  91.966  35.602  1.00  0.00     0.016 C 
HETATM    2  C2  UNL     1      46.697  91.710  35.205  1.00  0.00     0.034 C 
HETATM    3  C3  UNL     1      47.598  92.781  35.556  1.00  0.00    -0.026 A 
HETATM    4  C4  UNL     1      46.939  93.821  36.168  1.00  0.00     0.010 A 
HETATM    5  C5  UNL     1      47.605  94.967  36.595  1.00  0.00     0.001 A 
HETATM    6  C6  UNL     1      48.944  95.082  36.411  1.00  0.00     0.002 A 
HETATM    7  C7  UNL     1      49.638  94.061  35.802  1.00  0.00     0.030 A 
HETATM    8  C8  UNL     1      48.955  92.933  35.389  1.00  0.00     0.036 A 
HETATM    9  N1  UNL     1      49.865  92.038  34.802  1.00  0.00    -0.371 N 
ATOM     10  H1  UNL     1      50.769  92.453  34.574  1.00  0.00     0.161 HD
HETATM   11  C9  UNL     1      49.761  90.650  34.465  1.00  0.00     0.076 C 
HETATM   12  C10 UNL     1      49.230  90.535  33.066  1.00  0.00     0.051 C 
HETATM   13  S1  UNL     1      48.723  89.873  35.701  1.00  0.00    -0.129 SA
HETATM   14  C17 UNL     1      47.032  90.342  35.681  1.00  0.00     0.085 C 
ENDROOT
BRANCH  11  15
HETATM   15  C11 UNL     1      51.126  89.963  34.517  1.00  0.00     0.043 C 
BRANCH  15  16
HETATM   16  C12 UNL     1      52.142  90.972  34.088  1.00  0.00     0.011 C 
BRANCH  16  17
HETATM   17  C13 UNL     1      52.953  90.548  32.903  1.00  0.00    -0.051 C 
HETATM   18  C14 UNL     1      52.539  89.106  32.578  1.00  0.00     0.014 C 
HETATM   19  C15 UNL     1      52.678  91.359  31.669  1.00  0.00     0.014 C 
HETATM   20  C16 UNL     1      54.436  90.500  33.193  1.00  0.00     0.014 C 
ENDBRANCH  16  17
ENDBRANCH  15  16
ENDBRANCH  11  15
BRANCH  14  21
HETATM   21  C18 UNL     1      46.431  90.101  37.025  1.00  0.00     0.063 C 
HETATM   22  C19 UNL     1      46.004  88.917  37.418  1.00  0.00     0.264 C 
HETATM   23  F1  UNL     1      45.461  88.719  38.643  1.00  0.00    -0.173 F 
HETATM   24  F2  UNL     1      46.075  87.805  36.628  1.00  0.00    -0.173 F 
ENDBRANCH  14  21
TORSDOF 4
ENDMDL
MODEL 5
REMARK VINA RESULT: -8.747986103      3.574      6.494
REMARK  4 active torsions:
REMARK  status: ('A' for Active; 'I' for Inactive)
REMARK    1  A    between atoms: C9_11  and  C11_13 
REMARK    2  A    between atoms: C11_13  and  C12_14 
REMARK    3  A    between atoms: C12_14  and  C13_15 
REMARK    4  A    between atoms: C17_20  and  C18_21 
ROOT
HETATM    1  C1  UNL     1      49.766  87.923  36.415  1.00  0.00     0.016 C 
HETATM    2  C2  UNL     1      49.566  89.378  36.042  1.00  0.00     0.034 C 
HETATM    3  C3  UNL     1      50.381  89.815  34.934  1.00  0.00    -0.026 A 
HETATM    4  C4  UNL     1      51.185  88.804  34.464  1.00  0.00     0.010 A 
HETATM    5  C5  UNL     1      52.060  88.993  33.398  1.00  0.00     0.001 A 
HETATM    6  C6  UNL     1      52.138  90.203  32.790  1.00  0.00     0.002 A 
HETATM    7  C7  UNL     1      51.349  91.240  33.233  1.00  0.00     0.030 A 
HETATM    8  C8  UNL     1      50.487  91.027  34.292  1.00  0.00     0.036 A 
HETATM    9  N1  UNL     1      49.792  92.219  34.561  1.00  0.00    -0.371 N 
ATOM     10  H1  UNL     1      50.196  93.045  34.120  1.00  0.00     0.161 HD
HETATM   11  C9  UNL     1      48.620  92.488  35.338  1.00  0.00     0.076 C 
HETATM   12  C10 UNL     1      49.037  92.784  36.749  1.00  0.00     0.051 C 
HETATM   13  S1  UNL     1      47.535  91.071  35.185  1.00  0.00    -0.129 SA
HETATM   14  C17 UNL     1      48.097  89.594  35.946  1.00  0.00     0.085 C 
ENDROOT
BRANCH  11  15
HETATM   15  C11 UNL     1      47.864  93.703  34.798  1.00  0.00     0.043 C 
BRANCH  15  16
HETATM   16  C12 UNL     1      48.725  94.323  33.745  1.00  0.00     0.011 C 
BRANCH  16  17
HETATM   17  C13 UNL     1      49.188  95.707  34.079  1.00  0.00    -0.051 C 
HETATM   18  C14 UNL     1      50.380  95.555  35.035  1.00  0.00     0.014 C 
HETATM   19  C15 UNL     1      49.691  96.474  32.890  1.00  0.00     0.014 C 
HETATM   20  C16 UNL     1      48.150  96.507  34.833  1.00  0.00     0.014 C 
ENDBRANCH  16  17
ENDBRANCH  15  16
ENDBRANCH  11  15
BRANCH  14  21
HETATM   21  C18 UNL     1      47.445  88.419  35.298  1.00  0.00     0.063 C 
HETATM   22  C19 UNL     1      46.352  87.854  35.772  1.00  0.00     0.264 C 
HETATM   23  F1  UNL     1      45.775  86.787  35.169  1.00  0.00    -0.173 F 
HETATM   24  F2  UNL     1      45.720  88.295  36.899  1.00  0.00    -0.173 F 
ENDBRANCH  14  21
TORSDOF 4
ENDMDL
