MODEL 1
REMARK VINA RESULT: -7.481336338      0.000      0.000
REMARK  4 active torsions:
REMARK  status: ('A' for Active; 'I' for Inactive)
REMARK    1  A    between atoms: C2_3  and  N2_4 
REMARK    2  A    between atoms: N3_7  and  S1_8 
REMARK    3  A    between atoms: C5_14  and  N5_15 
REMARK    4  A    between atoms: C6_20  and  N7_21 
ROOT
HETATM    1  N1  UNL     1      34.395  57.702   7.918  1.00  0.00    -0.196 NA
HETATM    2  C1  UNL     1      35.071  58.512   8.433  1.00  0.00     0.079 C 
HETATM    3  C2  UNL     1      35.897  59.535   9.080  1.00  0.00     0.258 C 
ENDROOT
BRANCH   3   4
HETATM    4  N2  UNL     1      35.078  60.497   9.733  1.00  0.00    -0.279 N 
HETATM    5  C3  UNL     1      34.334  60.265  10.833  1.00  0.00     0.346 A 
HETATM    6  O1  UNL     1      34.249  59.162  11.449  1.00  0.00    -0.245 OA
HETATM    7  N3  UNL     1      33.700  61.396  11.165  1.00  0.00    -0.157 N 
HETATM    8  C4  UNL     1      34.016  62.378  10.296  1.00  0.00     0.174 A 
HETATM    9  N4  UNL     1      33.652  63.676  10.194  1.00  0.00    -0.173 N 
HETATM   10  C7  UNL     1      34.893  61.785   9.394  1.00  0.00     0.130 A 
HETATM   11  C5  UNL     1      34.126  64.452   9.205  1.00  0.00     0.679 A 
ATOM     12  H4  UNL     1      33.006  64.071  10.878  1.00  0.00     0.186 HD
HETATM   13  N6  UNL     1      34.975  63.891   8.327  1.00  0.00    -0.175 N 
HETATM   14  C6  UNL     1      35.369  62.599   8.389  1.00  0.00     0.145 A 
ATOM     15  H6  UNL     1      35.341  64.472   7.573  1.00  0.00     0.186 HD
BRANCH   7  16
HETATM   16  S1  UNL     1      32.620  61.629  12.503  1.00  0.00     0.370 S 
HETATM   17  O2  UNL     1      31.194  61.575  12.030  1.00  0.00    -0.186 OA
HETATM   18  O3  UNL     1      32.896  60.668  13.611  1.00  0.00    -0.186 OA
ENDBRANCH   7  16
BRANCH  11  19
HETATM   19  N5  UNL     1      33.772  65.704   9.110  1.00  0.00    -0.234 N 
ATOM     20  H52 UNL     1      34.244  66.436   9.642  1.00  0.00     0.174 HD
ATOM     21  H51 UNL     1      33.008  65.987   8.497  1.00  0.00     0.174 HD
ENDBRANCH  11  19
BRANCH  14  22
HETATM   22  N7  UNL     1      36.181  62.082   7.541  1.00  0.00    -0.383 N 
ATOM     23  H72 UNL     1      35.935  62.144   6.553  1.00  0.00     0.157 HD
ATOM     24  H71 UNL     1      37.047  61.621   7.820  1.00  0.00     0.157 HD
ENDBRANCH  14  22
ENDBRANCH   3   4
TORSDOF 4
ENDMDL
MODEL 2
REMARK VINA RESULT: -7.327279204      1.771      4.278
REMARK  4 active torsions:
REMARK  status: ('A' for Active; 'I' for Inactive)
REMARK    1  A    between atoms: C2_3  and  N2_4 
REMARK    2  A    between atoms: N3_7  and  S1_8 
REMARK    3  A    between atoms: C5_14  and  N5_15 
REMARK    4  A    between atoms: C6_20  and  N7_21 
ROOT
HETATM    1  N1  UNL     1      37.947  63.277   7.865  1.00  0.00    -0.196 NA
HETATM    2  C1  UNL     1      36.781  63.134   7.898  1.00  0.00     0.079 C 
HETATM    3  C2  UNL     1      35.331  62.937   7.951  1.00  0.00     0.258 C 
ENDROOT
BRANCH   3   4
HETATM    4  N2  UNL     1      35.005  61.865   8.826  1.00  0.00    -0.279 N 
HETATM    5  C3  UNL     1      34.384  61.993  10.015  1.00  0.00     0.346 A 
HETATM    6  O1  UNL     1      34.000  63.082  10.535  1.00  0.00    -0.245 OA
HETATM    7  N3  UNL     1      34.242  60.777  10.557  1.00  0.00    -0.157 N 
HETATM    8  C4  UNL     1      34.762  59.841   9.737  1.00  0.00     0.174 A 
HETATM    9  N4  UNL     1      34.868  58.496   9.819  1.00  0.00    -0.173 N 
HETATM   10  C7  UNL     1      35.242  60.554   8.643  1.00  0.00     0.130 A 
HETATM   11  C5  UNL     1      35.447  57.786   8.835  1.00  0.00     0.679 A 
ATOM     12  H4  UNL     1      34.502  58.012  10.639  1.00  0.00     0.186 HD
HETATM   13  N6  UNL     1      35.914  58.462   7.773  1.00  0.00    -0.175 N 
HETATM   14  C6  UNL     1      35.831  59.807   7.646  1.00  0.00     0.145 A 
ATOM     15  H6  UNL     1      36.355  57.934   7.021  1.00  0.00     0.186 HD
BRANCH   7  16
HETATM   16  S1  UNL     1      33.507  60.396  12.081  1.00  0.00     0.370 S 
HETATM   17  O2  UNL     1      32.010  60.426  11.954  1.00  0.00    -0.186 OA
HETATM   18  O3  UNL     1      34.013  59.103  12.632  1.00  0.00    -0.186 OA
ENDBRANCH   7  16
BRANCH  11  19
HETATM   19  N5  UNL     1      35.547  56.488   8.918  1.00  0.00    -0.234 N 
ATOM     20  H52 UNL     1      34.882  55.869   8.452  1.00  0.00     0.174 HD
ATOM     21  H51 UNL     1      36.298  56.054   9.454  1.00  0.00     0.174 HD
ENDBRANCH  11  19
BRANCH  14  22
HETATM   22  N7  UNL     1      36.283  60.434   6.622  1.00  0.00    -0.383 N 
ATOM     23  H72 UNL     1      36.028  61.416   6.519  1.00  0.00     0.157 HD
ATOM     24  H71 UNL     1      36.876  59.988   5.922  1.00  0.00     0.157 HD
ENDBRANCH  14  22
ENDBRANCH   3   4
TORSDOF 4
ENDMDL
MODEL 3
REMARK VINA RESULT: -7.246349487      2.703      4.455
REMARK  4 active torsions:
REMARK  status: ('A' for Active; 'I' for Inactive)
REMARK    1  A    between atoms: C2_3  and  N2_4 
REMARK    2  A    between atoms: N3_7  and  S1_8 
REMARK    3  A    between atoms: C5_14  and  N5_15 
REMARK    4  A    between atoms: C6_20  and  N7_21 
ROOT
HETATM    1  N1  UNL     1      34.379  60.184  14.099  1.00  0.00    -0.196 NA
HETATM    2  C1  UNL     1      33.744  60.219  13.111  1.00  0.00     0.079 C 
HETATM    3  C2  UNL     1      32.966  60.279  11.871  1.00  0.00     0.258 C 
ENDROOT
BRANCH   3   4
HETATM    4  N2  UNL     1      33.620  61.096  10.910  1.00  0.00    -0.279 N 
HETATM    5  C3  UNL     1      33.519  62.438  10.832  1.00  0.00     0.346 A 
HETATM    6  O1  UNL     1      32.828  63.172  11.598  1.00  0.00    -0.245 OA
HETATM    7  N3  UNL     1      34.270  62.864   9.810  1.00  0.00    -0.157 N 
HETATM    8  C4  UNL     1      34.871  61.818   9.208  1.00  0.00     0.174 A 
HETATM    9  N4  UNL     1      35.712  61.715   8.154  1.00  0.00    -0.173 N 
HETATM   10  C7  UNL     1      34.444  60.703   9.922  1.00  0.00     0.130 A 
HETATM   11  C5  UNL     1      36.174  60.520   7.751  1.00  0.00     0.679 A 
ATOM     12  H4  UNL     1      36.001  62.559   7.658  1.00  0.00     0.186 HD
HETATM   13  N6  UNL     1      35.769  59.435   8.433  1.00  0.00    -0.175 N 
HETATM   14  C6  UNL     1      34.930  59.488   9.493  1.00  0.00     0.145 A 
ATOM     15  H6  UNL     1      36.114  58.522   8.136  1.00  0.00     0.186 HD
BRANCH   7  16
HETATM   16  S1  UNL     1      34.482  64.505   9.288  1.00  0.00     0.370 S 
HETATM   17  O2  UNL     1      35.040  64.535   7.893  1.00  0.00    -0.186 OA
HETATM   18  O3  UNL     1      33.222  65.296   9.421  1.00  0.00    -0.186 OA
ENDBRANCH   7  16
BRANCH  11  19
HETATM   19  N5  UNL     1      36.986  60.425   6.734  1.00  0.00    -0.234 N 
ATOM     20  H52 UNL     1      36.987  59.607   6.124  1.00  0.00     0.174 HD
ATOM     21  H51 UNL     1      37.647  61.172   6.521  1.00  0.00     0.174 HD
ENDBRANCH  11  19
BRANCH  14  22
HETATM   22  N7  UNL     1      34.557  58.440  10.131  1.00  0.00    -0.383 N 
ATOM     23  H72 UNL     1      33.962  58.572  10.950  1.00  0.00     0.157 HD
ATOM     24  H71 UNL     1      34.831  57.498   9.851  1.00  0.00     0.157 HD
ENDBRANCH  14  22
ENDBRANCH   3   4
TORSDOF 4
ENDMDL
MODEL 4
REMARK VINA RESULT: -7.140204903      2.310      4.019
REMARK  4 active torsions:
REMARK  status: ('A' for Active; 'I' for Inactive)
REMARK    1  A    between atoms: C2_3  and  N2_4 
REMARK    2  A    between atoms: N3_7  and  S1_8 
REMARK    3  A    between atoms: C5_14  and  N5_15 
REMARK    4  A    between atoms: C6_20  and  N7_21 
ROOT
HETATM    1  N1  UNL     1      30.898  61.385  12.159  1.00  0.00    -0.196 NA
HETATM    2  C1  UNL     1      32.054  61.587  12.204  1.00  0.00     0.079 C 
HETATM    3  C2  UNL     1      33.499  61.829  12.241  1.00  0.00     0.258 C 
ENDROOT
BRANCH   3   4
HETATM    4  N2  UNL     1      34.094  61.481  10.997  1.00  0.00    -0.279 N 
HETATM    5  C3  UNL     1      34.467  60.238  10.635  1.00  0.00     0.346 A 
HETATM    6  O1  UNL     1      34.346  59.194  11.342  1.00  0.00    -0.245 OA
HETATM    7  N3  UNL     1      34.986  60.290   9.403  1.00  0.00    -0.157 N 
HETATM    8  C4  UNL     1      34.962  61.557   8.942  1.00  0.00     0.174 A 
HETATM    9  N4  UNL     1      35.359  62.128   7.782  1.00  0.00    -0.173 N 
HETATM   10  C7  UNL     1      34.391  62.298   9.971  1.00  0.00     0.130 A 
HETATM   11  C5  UNL     1      35.216  63.448   7.576  1.00  0.00     0.679 A 
ATOM     12  H4  UNL     1      35.772  61.547   7.052  1.00  0.00     0.186 HD
HETATM   13  N6  UNL     1      34.666  64.175   8.563  1.00  0.00    -0.175 N 
HETATM   14  C6  UNL     1      34.254  63.649   9.739  1.00  0.00     0.145 A 
ATOM     15  H6  UNL     1      34.553  65.178   8.417  1.00  0.00     0.186 HD
BRANCH   7  16
HETATM   16  S1  UNL     1      35.614  58.961   8.481  1.00  0.00     0.370 S 
HETATM   17  O2  UNL     1      34.553  57.912   8.299  1.00  0.00    -0.186 OA
HETATM   18  O3  UNL     1      36.203  59.414   7.186  1.00  0.00    -0.186 OA
ENDBRANCH   7  16
BRANCH  11  19
HETATM   19  N5  UNL     1      35.600  63.995   6.455  1.00  0.00    -0.234 N 
ATOM     20  H52 UNL     1      36.188  63.494   5.789  1.00  0.00     0.174 HD
ATOM     21  H51 UNL     1      35.320  64.945   6.214  1.00  0.00     0.174 HD
ENDBRANCH  11  19
BRANCH  14  22
HETATM   22  N7  UNL     1      33.730  64.361  10.668  1.00  0.00    -0.383 N 
ATOM     23  H72 UNL     1      32.798  64.743  10.503  1.00  0.00     0.157 HD
ATOM     24  H71 UNL     1      34.207  64.554  11.549  1.00  0.00     0.157 HD
ENDBRANCH  14  22
ENDBRANCH   3   4
TORSDOF 4
ENDMDL
MODEL 5
REMARK VINA RESULT: -7.102295907      2.964      3.960
REMARK  4 active torsions:
REMARK  status: ('A' for Active; 'I' for Inactive)
REMARK    1  A    between atoms: C2_3  and  N2_4 
REMARK    2  A    between atoms: N3_7  and  S1_8 
REMARK    3  A    between atoms: C5_14  and  N5_15 
REMARK    4  A    between atoms: C6_20  and  N7_21 
ROOT
HETATM    1  N1  UNL     1      34.282  57.336   7.378  1.00  0.00    -0.196 NA
HETATM    2  C1  UNL     1      35.009  57.937   8.078  1.00  0.00     0.079 C 
HETATM    3  C2  UNL     1      35.904  58.704   8.947  1.00  0.00     0.258 C 
ENDROOT
BRANCH   3   4
HETATM    4  N2  UNL     1      35.400  60.018   9.147  1.00  0.00    -0.279 N 
HETATM    5  C3  UNL     1      35.624  61.068   8.332  1.00  0.00     0.346 A 
HETATM    6  O1  UNL     1      36.313  61.047   7.271  1.00  0.00    -0.245 OA
HETATM    7  N3  UNL     1      34.995  62.139   8.833  1.00  0.00    -0.157 N 
HETATM    8  C4  UNL     1      34.355  61.809   9.973  1.00  0.00     0.174 A 
HETATM    9  N4  UNL     1      33.593  62.511  10.843  1.00  0.00    -0.173 N 
HETATM   10  C7  UNL     1      34.626  60.457  10.155  1.00  0.00     0.130 A 
HETATM   11  C5  UNL     1      33.062  61.924  11.929  1.00  0.00     0.679 A 
ATOM     12  H4  UNL     1      33.418  63.501  10.671  1.00  0.00     0.186 HD
HETATM   13  N6  UNL     1      33.317  60.618  12.116  1.00  0.00    -0.175 N 
HETATM   14  C6  UNL     1      34.072  59.875  11.274  1.00  0.00     0.145 A 
ATOM     15  H6  UNL     1      32.919  60.162  12.936  1.00  0.00     0.186 HD
BRANCH   7  16
HETATM   16  S1  UNL     1      34.968  63.738   8.162  1.00  0.00     0.370 S 
HETATM   17  O2  UNL     1      34.502  64.724   9.196  1.00  0.00    -0.186 OA
HETATM   18  O3  UNL     1      36.285  64.110   7.564  1.00  0.00    -0.186 OA
ENDBRANCH   7  16
BRANCH  11  19
HETATM   19  N5  UNL     1      32.328  62.604  12.765  1.00  0.00    -0.234 N 
ATOM     20  H52 UNL     1      32.136  63.596  12.624  1.00  0.00     0.174 HD
ATOM     21  H51 UNL     1      31.922  62.158  13.588  1.00  0.00     0.174 HD
ENDBRANCH  11  19
BRANCH  14  22
HETATM   22  N7  UNL     1      34.302  58.628  11.470  1.00  0.00    -0.383 N 
ATOM     23  H72 UNL     1      34.885  58.142  10.788  1.00  0.00     0.157 HD
ATOM     24  H71 UNL     1      33.926  58.119  12.271  1.00  0.00     0.157 HD
ENDBRANCH  14  22
ENDBRANCH   3   4
TORSDOF 4
ENDMDL
