MODEL 1
REMARK VINA RESULT: -6.898291711      0.000      0.000
REMARK  8 active torsions:
REMARK  status: ('A' for Active; 'I' for Inactive)
REMARK    1  A    between atoms: N1_1  and  N2_4 
REMARK    2  A    between atoms: N2_4  and  C1_6 
REMARK    3  A    between atoms: N4_9  and  N5_10 
REMARK    4  A    between atoms: C3_14  and  N6_15 
REMARK    5  A    between atoms: N6_15  and  N7_16 
REMARK    6  A    between atoms: N6_15  and  O1_19 
REMARK    7  A    between atoms: C4_21  and  S1_22 
REMARK    8  A    between atoms: S1_22  and  N8_23 
ROOT
HETATM    1  C1  UNL     1      33.894  59.686  11.446  1.00  0.00     0.155 A 
HETATM    2  N3  UNL     1      34.528  58.593  11.039  1.00  0.00    -0.262 N 
ATOM      3  H3  UNL     1      34.513  57.700  11.532  1.00  0.00     0.191 HD
HETATM    4  N4  UNL     1      35.179  58.815   9.913  1.00  0.00    -0.198 N 
HETATM    5  C2  UNL     1      34.990  60.118   9.521  1.00  0.00     0.128 A 
HETATM    6  C3  UNL     1      35.367  60.940   8.504  1.00  0.00     0.142 A 
HETATM    7  C4  UNL     1      34.907  62.233   8.537  1.00  0.00     0.154 A 
HETATM    8  S2  UNL     1      33.976  62.268   9.963  1.00  0.00    -0.068 SA
HETATM    9  C5  UNL     1      34.183  60.665  10.483  1.00  0.00     0.086 A 
ENDROOT
BRANCH   6  10
HETATM   10  N6  UNL     1      36.231  60.512   7.396  1.00  0.00    -0.166 N 
BRANCH  10  11
HETATM   11  N7  UNL     1      37.600  60.697   7.433  1.00  0.00    -0.319 N 
ATOM     12  H72 UNL     1      37.998  61.210   8.219  1.00  0.00     0.179 HD
ATOM     13  H71 UNL     1      38.208  60.333   6.700  1.00  0.00     0.179 HD
ENDBRANCH  10  11
BRANCH  10  14
HETATM   14  O1  UNL     1      35.733  59.966   6.386  1.00  0.00    -0.268 OA
ATOM     15  H1  UNL     1      36.286  59.730   5.650  1.00  0.00     0.247 HD
ENDBRANCH  10  14
ENDBRANCH   6  10
BRANCH   7  16
HETATM   16  S1  UNL     1      35.228  63.521   7.366  1.00  0.00     0.265 S 
HETATM   17  O2  UNL     1      34.556  64.803   7.735  1.00  0.00    -0.200 OA
HETATM   18  O3  UNL     1      36.728  63.785   7.426  1.00  0.00    -0.200 OA
BRANCH  16  19
HETATM   19  N8  UNL     1      34.746  62.997   5.817  1.00  0.00    -0.324 N 
ATOM     20  H82 UNL     1      33.784  62.991   5.480  1.00  0.00     0.169 HD
ATOM     21  H81 UNL     1      35.571  62.697   5.297  1.00  0.00     0.169 HD
ENDBRANCH  16  19
ENDBRANCH   7  16
BRANCH   4  22
HETATM   22  N5  UNL     1      35.925  57.837   9.268  1.00  0.00    -0.324 N 
ATOM     23  H52 UNL     1      36.313  56.985   9.672  1.00  0.00     0.179 HD
ATOM     24  H51 UNL     1      36.165  57.886   8.279  1.00  0.00     0.179 HD
ENDBRANCH   4  22
BRANCH   1  25
HETATM   25  N2  UNL     1      33.159  59.918  12.465  1.00  0.00    -0.290 N 
ATOM     26  H2  UNL     1      32.253  59.455  12.524  1.00  0.00     0.188 HD
BRANCH  25  27
HETATM   27  N1  UNL     1      33.532  60.768  13.493  1.00  0.00    -0.344 N 
ATOM     28  H12 UNL     1      33.564  61.767  13.287  1.00  0.00     0.176 HD
ATOM     29  H11 UNL     1      33.771  60.441  14.430  1.00  0.00     0.176 HD
ENDBRANCH  25  27
ENDBRANCH   1  25
TORSDOF 8
ENDMDL
MODEL 2
REMARK VINA RESULT: -6.697522355      2.245      3.810
REMARK  8 active torsions:
REMARK  status: ('A' for Active; 'I' for Inactive)
REMARK    1  A    between atoms: N1_1  and  N2_4 
REMARK    2  A    between atoms: N2_4  and  C1_6 
REMARK    3  A    between atoms: N4_9  and  N5_10 
REMARK    4  A    between atoms: C3_14  and  N6_15 
REMARK    5  A    between atoms: N6_15  and  N7_16 
REMARK    6  A    between atoms: N6_15  and  O1_19 
REMARK    7  A    between atoms: C4_21  and  S1_22 
REMARK    8  A    between atoms: S1_22  and  N8_23 
ROOT
HETATM    1  C1  UNL     1      32.976  62.078  11.627  1.00  0.00     0.155 A 
HETATM    2  N3  UNL     1      33.001  63.370  11.320  1.00  0.00    -0.262 N 
ATOM      3  H3  UNL     1      32.539  64.101  11.862  1.00  0.00     0.191 HD
HETATM    4  N4  UNL     1      33.702  63.582  10.222  1.00  0.00    -0.198 N 
HETATM    5  C2  UNL     1      34.185  62.388   9.746  1.00  0.00     0.128 A 
HETATM    6  C3  UNL     1      34.939  61.936   8.707  1.00  0.00     0.142 A 
HETATM    7  C4  UNL     1      35.171  60.585   8.639  1.00  0.00     0.154 A 
HETATM    8  S2  UNL     1      34.345  59.989  10.004  1.00  0.00    -0.068 SA
HETATM    9  C5  UNL     1      33.730  61.443  10.627  1.00  0.00     0.086 A 
ENDROOT
BRANCH   6  10
HETATM   10  N6  UNL     1      35.500  62.815   7.673  1.00  0.00    -0.166 N 
BRANCH  10  11
HETATM   11  N7  UNL     1      34.827  63.068   6.493  1.00  0.00    -0.319 N 
ATOM     12  H72 UNL     1      35.146  62.599   5.645  1.00  0.00     0.179 HD
ATOM     13  H71 UNL     1      34.031  63.704   6.457  1.00  0.00     0.179 HD
ENDBRANCH  10  11
BRANCH  10  14
HETATM   14  O1  UNL     1      36.615  63.358   7.847  1.00  0.00    -0.268 OA
ATOM     15  H1  UNL     1      37.263  63.350   7.153  1.00  0.00     0.247 HD
ENDBRANCH  10  14
ENDBRANCH   6  10
BRANCH   7  16
HETATM   16  S1  UNL     1      36.105  59.712   7.415  1.00  0.00     0.265 S 
HETATM   17  O2  UNL     1      36.137  58.241   7.667  1.00  0.00    -0.200 OA
HETATM   18  O3  UNL     1      35.366  59.911   6.097  1.00  0.00    -0.200 OA
BRANCH  16  19
HETATM   19  N8  UNL     1      37.681  60.360   7.351  1.00  0.00    -0.324 N 
ATOM     20  H82 UNL     1      37.982  61.091   6.706  1.00  0.00     0.169 HD
ATOM     21  H81 UNL     1      38.259  59.899   8.054  1.00  0.00     0.169 HD
ENDBRANCH  16  19
ENDBRANCH   7  16
BRANCH   4  22
HETATM   22  N5  UNL     1      33.889  64.847   9.681  1.00  0.00    -0.324 N 
ATOM     23  H52 UNL     1      34.391  65.632  10.094  1.00  0.00     0.179 HD
ATOM     24  H51 UNL     1      33.518  65.120   8.771  1.00  0.00     0.179 HD
ENDBRANCH   4  22
BRANCH   1  25
HETATM   25  N2  UNL     1      32.426  61.438  12.586  1.00  0.00    -0.290 N 
ATOM     26  H2  UNL     1      31.408  61.385  12.612  1.00  0.00     0.188 HD
BRANCH  25  27
HETATM   27  N1  UNL     1      33.144  60.814  13.593  1.00  0.00    -0.344 N 
ATOM     28  H12 UNL     1      34.005  61.265  13.903  1.00  0.00     0.176 HD
ATOM     29  H11 UNL     1      32.852  59.938  14.027  1.00  0.00     0.176 HD
ENDBRANCH  25  27
ENDBRANCH   1  25
TORSDOF 8
ENDMDL
MODEL 3
REMARK VINA RESULT: -6.539952892      1.806      2.631
REMARK  8 active torsions:
REMARK  status: ('A' for Active; 'I' for Inactive)
REMARK    1  A    between atoms: N1_1  and  N2_4 
REMARK    2  A    between atoms: N2_4  and  C1_6 
REMARK    3  A    between atoms: N4_9  and  N5_10 
REMARK    4  A    between atoms: C3_14  and  N6_15 
REMARK    5  A    between atoms: N6_15  and  N7_16 
REMARK    6  A    between atoms: N6_15  and  O1_19 
REMARK    7  A    between atoms: C4_21  and  S1_22 
REMARK    8  A    between atoms: S1_22  and  N8_23 
ROOT
HETATM    1  C1  UNL     1      32.821  60.942  12.483  1.00  0.00     0.155 A 
HETATM    2  N3  UNL     1      33.056  59.685  12.838  1.00  0.00    -0.262 N 
ATOM      3  H3  UNL     1      32.682  59.243  13.678  1.00  0.00     0.191 HD
HETATM    4  N4  UNL     1      33.837  59.083  11.961  1.00  0.00    -0.198 N 
HETATM    5  C2  UNL     1      34.158  59.960  10.953  1.00  0.00     0.128 A 
HETATM    6  C3  UNL     1      34.889  59.968   9.805  1.00  0.00     0.142 A 
HETATM    7  C4  UNL     1      34.918  61.137   9.086  1.00  0.00     0.154 A 
HETATM    8  S2  UNL     1      33.942  62.178  10.015  1.00  0.00    -0.068 SA
HETATM    9  C5  UNL     1      33.520  61.127  11.280  1.00  0.00     0.086 A 
ENDROOT
BRANCH   6  10
HETATM   10  N6  UNL     1      35.635  58.802   9.313  1.00  0.00    -0.166 N 
BRANCH  10  11
HETATM   11  N7  UNL     1      35.019  57.799   8.590  1.00  0.00    -0.319 N 
ATOM     12  H72 UNL     1      34.101  57.479   8.894  1.00  0.00     0.179 HD
ATOM     13  H71 UNL     1      35.461  57.383   7.770  1.00  0.00     0.179 HD
ENDBRANCH  10  11
BRANCH  10  14
HETATM   14  O1  UNL     1      36.861  58.698   9.547  1.00  0.00    -0.268 OA
ATOM     15  H1  UNL     1      37.162  58.197  10.296  1.00  0.00     0.247 HD
ENDBRANCH  10  14
ENDBRANCH   6  10
BRANCH   7  16
HETATM   16  S1  UNL     1      35.774  61.448   7.568  1.00  0.00     0.265 S 
HETATM   17  O2  UNL     1      37.254  61.309   7.713  1.00  0.00    -0.200 OA
HETATM   18  O3  UNL     1      35.330  60.358   6.600  1.00  0.00    -0.200 OA
BRANCH  16  19
HETATM   19  N8  UNL     1      35.354  62.999   7.000  1.00  0.00    -0.324 N 
ATOM     20  H82 UNL     1      34.673  63.615   7.445  1.00  0.00     0.169 HD
ATOM     21  H81 UNL     1      35.890  63.200   6.155  1.00  0.00     0.169 HD
ENDBRANCH  16  19
ENDBRANCH   7  16
BRANCH   4  22
HETATM   22  N5  UNL     1      34.238  57.761  12.092  1.00  0.00    -0.324 N 
ATOM     23  H52 UNL     1      33.659  56.956  12.331  1.00  0.00     0.179 HD
ATOM     24  H51 UNL     1      35.202  57.458  11.954  1.00  0.00     0.179 HD
ENDBRANCH   4  22
BRANCH   1  25
HETATM   25  N2  UNL     1      32.132  61.870  13.028  1.00  0.00    -0.290 N 
ATOM     26  H2  UNL     1      32.425  62.836  12.890  1.00  0.00     0.188 HD
BRANCH  25  27
HETATM   27  N1  UNL     1      31.007  61.626  13.799  1.00  0.00    -0.344 N 
ATOM     28  H12 UNL     1      31.153  61.252  14.737  1.00  0.00     0.176 HD
ATOM     29  H11 UNL     1      30.056  61.803  13.472  1.00  0.00     0.176 HD
ENDBRANCH  25  27
ENDBRANCH   1  25
TORSDOF 8
ENDMDL
MODEL 4
REMARK VINA RESULT: -6.526758198      2.379      3.757
REMARK  8 active torsions:
REMARK  status: ('A' for Active; 'I' for Inactive)
REMARK    1  A    between atoms: N1_1  and  N2_4 
REMARK    2  A    between atoms: N2_4  and  C1_6 
REMARK    3  A    between atoms: N4_9  and  N5_10 
REMARK    4  A    between atoms: C3_14  and  N6_15 
REMARK    5  A    between atoms: N6_15  and  N7_16 
REMARK    6  A    between atoms: N6_15  and  O1_19 
REMARK    7  A    between atoms: C4_21  and  S1_22 
REMARK    8  A    between atoms: S1_22  and  N8_23 
ROOT
HETATM    1  C1  UNL     1      32.897  62.151  11.621  1.00  0.00     0.155 A 
HETATM    2  N3  UNL     1      32.916  63.440  11.300  1.00  0.00    -0.262 N 
ATOM      3  H3  UNL     1      32.421  64.170  11.813  1.00  0.00     0.191 HD
HETATM    4  N4  UNL     1      33.659  63.650  10.230  1.00  0.00    -0.198 N 
HETATM    5  C2  UNL     1      34.178  62.458   9.789  1.00  0.00     0.128 A 
HETATM    6  C3  UNL     1      34.981  62.005   8.787  1.00  0.00     0.142 A 
HETATM    7  C4  UNL     1      35.236  60.657   8.746  1.00  0.00     0.154 A 
HETATM    8  S2  UNL     1      34.362  60.064  10.082  1.00  0.00    -0.068 SA
HETATM    9  C5  UNL     1      33.700  61.516  10.661  1.00  0.00     0.086 A 
ENDROOT
BRANCH   6  10
HETATM   10  N6  UNL     1      35.572  62.880   7.766  1.00  0.00    -0.166 N 
BRANCH  10  11
HETATM   11  N7  UNL     1      34.854  63.291   6.660  1.00  0.00    -0.319 N 
ATOM     12  H72 UNL     1      33.867  63.038   6.603  1.00  0.00     0.179 HD
ATOM     13  H71 UNL     1      35.286  63.834   5.913  1.00  0.00     0.179 HD
ENDBRANCH  10  11
BRANCH  10  14
HETATM   14  O1  UNL     1      36.755  63.274   7.885  1.00  0.00    -0.268 OA
ATOM     15  H1  UNL     1      36.937  64.187   8.071  1.00  0.00     0.247 HD
ENDBRANCH  10  14
ENDBRANCH   6  10
BRANCH   7  16
HETATM   16  S1  UNL     1      36.233  59.784   7.571  1.00  0.00     0.265 S 
HETATM   17  O2  UNL     1      37.634  60.297   7.524  1.00  0.00    -0.200 OA
HETATM   18  O3  UNL     1      36.313  58.346   8.070  1.00  0.00    -0.200 OA
BRANCH  16  19
HETATM   19  N8  UNL     1      35.493  59.873   6.038  1.00  0.00    -0.324 N 
ATOM     20  H82 UNL     1      35.523  60.689   5.426  1.00  0.00     0.169 HD
ATOM     21  H81 UNL     1      35.023  58.988   5.844  1.00  0.00     0.169 HD
ENDBRANCH  16  19
ENDBRANCH   7  16
BRANCH   4  22
HETATM   22  N5  UNL     1      33.849  64.911   9.681  1.00  0.00    -0.324 N 
ATOM     23  H52 UNL     1      33.910  65.801  10.174  1.00  0.00     0.179 HD
ATOM     24  H51 UNL     1      33.950  65.069   8.678  1.00  0.00     0.179 HD
ENDBRANCH   4  22
BRANCH   1  25
HETATM   25  N2  UNL     1      32.317  61.515  12.565  1.00  0.00    -0.290 N 
ATOM     26  H2  UNL     1      31.298  61.493  12.579  1.00  0.00     0.188 HD
BRANCH  25  27
HETATM   27  N1  UNL     1      33.004  60.853  13.569  1.00  0.00    -0.344 N 
ATOM     28  H12 UNL     1      33.118  61.341  14.458  1.00  0.00     0.176 HD
ATOM     29  H11 UNL     1      33.394  59.917  13.457  1.00  0.00     0.176 HD
ENDBRANCH  25  27
ENDBRANCH   1  25
TORSDOF 8
ENDMDL
MODEL 5
REMARK VINA RESULT: -6.461823939      1.555      2.560
REMARK  8 active torsions:
REMARK  status: ('A' for Active; 'I' for Inactive)
REMARK    1  A    between atoms: N1_1  and  N2_4 
REMARK    2  A    between atoms: N2_4  and  C1_6 
REMARK    3  A    between atoms: N4_9  and  N5_10 
REMARK    4  A    between atoms: C3_14  and  N6_15 
REMARK    5  A    between atoms: N6_15  and  N7_16 
REMARK    6  A    between atoms: N6_15  and  O1_19 
REMARK    7  A    between atoms: C4_21  and  S1_22 
REMARK    8  A    between atoms: S1_22  and  N8_23 
ROOT
HETATM    1  C1  UNL     1      32.819  60.964  12.486  1.00  0.00     0.155 A 
HETATM    2  N3  UNL     1      33.072  59.698  12.798  1.00  0.00    -0.262 N 
ATOM      3  H3  UNL     1      32.720  59.228  13.632  1.00  0.00     0.191 HD
HETATM    4  N4  UNL     1      33.838  59.130  11.886  1.00  0.00    -0.198 N 
HETATM    5  C2  UNL     1      34.131  60.040  10.899  1.00  0.00     0.128 A 
HETATM    6  C3  UNL     1      34.836  60.089   9.736  1.00  0.00     0.142 A 
HETATM    7  C4  UNL     1      34.841  61.279   9.053  1.00  0.00     0.154 A 
HETATM    8  S2  UNL     1      33.878  62.284  10.035  1.00  0.00    -0.068 SA
HETATM    9  C5  UNL     1      33.491  61.191  11.275  1.00  0.00     0.086 A 
ENDROOT
BRANCH   6  10
HETATM   10  N6  UNL     1      35.581  58.945   9.193  1.00  0.00    -0.166 N 
BRANCH  10  11
HETATM   11  N7  UNL     1      34.985  58.026   8.351  1.00  0.00    -0.319 N 
ATOM     12  H72 UNL     1      34.161  58.316   7.825  1.00  0.00     0.179 HD
ATOM     13  H71 UNL     1      35.349  57.079   8.250  1.00  0.00     0.179 HD
ENDBRANCH  10  11
BRANCH  10  14
HETATM   14  O1  UNL     1      36.786  58.783   9.490  1.00  0.00    -0.268 OA
ATOM     15  H1  UNL     1      37.205  57.944   9.340  1.00  0.00     0.247 HD
ENDBRANCH  10  14
ENDBRANCH   6  10
BRANCH   7  16
HETATM   16  S1  UNL     1      35.662  61.643   7.527  1.00  0.00     0.265 S 
HETATM   17  O2  UNL     1      35.297  60.683   6.443  1.00  0.00    -0.200 OA
HETATM   18  O3  UNL     1      35.151  63.010   7.087  1.00  0.00    -0.200 OA
BRANCH  16  19
HETATM   19  N8  UNL     1      37.346  61.662   7.793  1.00  0.00    -0.324 N 
ATOM     20  H82 UNL     1      37.792  61.931   8.670  1.00  0.00     0.169 HD
ATOM     21  H81 UNL     1      37.820  61.363   6.940  1.00  0.00     0.169 HD
ENDBRANCH  16  19
ENDBRANCH   7  16
BRANCH   4  22
HETATM   22  N5  UNL     1      34.253  57.808  11.968  1.00  0.00    -0.324 N 
ATOM     23  H52 UNL     1      34.659  57.333  12.773  1.00  0.00     0.179 HD
ATOM     24  H51 UNL     1      34.184  57.157  11.186  1.00  0.00     0.179 HD
ENDBRANCH   4  22
BRANCH   1  25
HETATM   25  N2  UNL     1      32.136  61.869  13.075  1.00  0.00    -0.290 N 
ATOM     26  H2  UNL     1      32.430  62.840  12.976  1.00  0.00     0.188 HD
BRANCH  25  27
HETATM   27  N1  UNL     1      31.014  61.595  13.841  1.00  0.00    -0.344 N 
ATOM     28  H12 UNL     1      31.142  61.005  14.664  1.00  0.00     0.176 HD
ATOM     29  H11 UNL     1      30.085  61.953  13.619  1.00  0.00     0.176 HD
ENDBRANCH  25  27
ENDBRANCH   1  25
TORSDOF 8
ENDMDL
