MODEL 1
REMARK VINA RESULT: -6.255513210      0.000      0.000
REMARK  4 active torsions:
REMARK  status: ('A' for Active; 'I' for Inactive)
REMARK    1  A    between atoms: C4_7  and  N2_8 
REMARK    2  A    between atoms: N2_8  and  C5_10 
REMARK    3  A    between atoms: C5_10  and  C6_11 
REMARK    4  A    between atoms: C6_11  and  C7_12 
ROOT
HETATM    1  N2  UNL     1      10.989  31.452  35.941  1.00  0.00    -0.226 N 
ATOM      2  H2  UNL     1      11.406  32.369  36.108  1.00  0.00     0.177 HD
ENDROOT
BRANCH   1   3
HETATM    3  C4  UNL     1      11.512  30.722  35.029  1.00  0.00     0.680 A 
HETATM    4  N1  UNL     1      11.710  29.407  35.222  1.00  0.00    -0.202 N 
HETATM    5  C3  UNL     1      12.266  28.649  34.248  1.00  0.00     0.111 A 
ATOM      6  H1  UNL     1      11.441  28.977  36.108  1.00  0.00     0.183 HD
HETATM    7  C2  UNL     1      12.622  29.255  33.057  1.00  0.00     0.092 A 
HETATM    8  C1  UNL     1      12.419  30.597  32.861  1.00  0.00     0.260 A 
HETATM    9  O1  UNL     1      12.725  31.200  31.793  1.00  0.00    -0.268 OA
HETATM   10  N4  UNL     1      11.863  31.309  33.864  1.00  0.00    -0.156 N 
ATOM     11  H4  UNL     1      11.704  32.309  33.739  1.00  0.00     0.187 HD
ENDBRANCH   1   3
BRANCH   1  12
HETATM   12  C5  UNL     1       9.864  31.082  36.745  1.00  0.00     0.142 C 
BRANCH  12  13
HETATM   13  C6  UNL     1       9.667  32.155  37.794  1.00  0.00     0.058 C 
BRANCH  13  14
HETATM   14  C7  UNL     1       9.962  31.676  39.151  1.00  0.00    -0.054 A 
HETATM   15  C8  UNL     1       9.766  30.347  39.456  1.00  0.00     0.024 A 
HETATM   16  C9  UNL     1      10.043  29.898  40.735  1.00  0.00     0.088 A 
HETATM   17  N3  UNL     1      10.501  30.759  41.660  1.00  0.00    -0.375 N 
HETATM   18  C10 UNL     1      10.711  32.067  41.417  1.00  0.00     0.088 A 
ATOM     19  H3  UNL     1      10.700  30.404  42.595  1.00  0.00     0.164 HD
HETATM   20  C11 UNL     1      10.432  32.511  40.138  1.00  0.00     0.024 A 
ENDBRANCH  13  14
ENDBRANCH  12  13
ENDBRANCH   1  12
TORSDOF 4
ENDMDL
MODEL 2
REMARK VINA RESULT: -6.208572403      0.986      1.588
REMARK  4 active torsions:
REMARK  status: ('A' for Active; 'I' for Inactive)
REMARK    1  A    between atoms: C4_7  and  N2_8 
REMARK    2  A    between atoms: N2_8  and  C5_10 
REMARK    3  A    between atoms: C5_10  and  C6_11 
REMARK    4  A    between atoms: C6_11  and  C7_12 
ROOT
HETATM    1  N2  UNL     1      10.453  31.834  36.570  1.00  0.00    -0.226 N 
ATOM      2  H2  UNL     1      10.434  32.832  36.361  1.00  0.00     0.177 HD
ENDROOT
BRANCH   1   3
HETATM    3  C4  UNL     1      11.000  31.060  35.711  1.00  0.00     0.680 A 
HETATM    4  N1  UNL     1      11.076  29.734  35.920  1.00  0.00    -0.202 N 
HETATM    5  C3  UNL     1      11.659  28.930  35.000  1.00  0.00     0.111 A 
ATOM      6  H1  UNL     1      10.693  29.332  36.776  1.00  0.00     0.183 HD
HETATM    7  C2  UNL     1      12.171  29.498  33.848  1.00  0.00     0.092 A 
HETATM    8  C1  UNL     1      12.093  30.851  33.637  1.00  0.00     0.260 A 
HETATM    9  O1  UNL     1      12.543  31.422  32.602  1.00  0.00    -0.268 OA
HETATM   10  N4  UNL     1      11.502  31.610  34.584  1.00  0.00    -0.156 N 
ATOM     11  H4  UNL     1      11.435  32.618  34.446  1.00  0.00     0.187 HD
ENDBRANCH   1   3
BRANCH   1  12
HETATM   12  C5  UNL     1       9.866  31.406  37.805  1.00  0.00     0.142 C 
BRANCH  12  13
HETATM   13  C6  UNL     1      10.401  32.294  38.907  1.00  0.00     0.058 C 
BRANCH  13  14
HETATM   14  C7  UNL     1      10.118  31.760  40.246  1.00  0.00    -0.054 A 
HETATM   15  C8  UNL     1      10.672  32.372  41.349  1.00  0.00     0.024 A 
HETATM   16  C9  UNL     1      10.405  31.867  42.610  1.00  0.00     0.088 A 
HETATM   17  N3  UNL     1       9.610  30.791  42.742  1.00  0.00    -0.375 N 
HETATM   18  C10 UNL     1       9.042  30.154  41.700  1.00  0.00     0.088 A 
ATOM     19  H3  UNL     1       9.427  30.439  43.681  1.00  0.00     0.164 HD
HETATM   20  C11 UNL     1       9.312  30.662  40.443  1.00  0.00     0.024 A 
ENDBRANCH  13  14
ENDBRANCH  12  13
ENDBRANCH   1  12
TORSDOF 4
ENDMDL
MODEL 3
REMARK VINA RESULT: -6.203495662      0.086      1.187
REMARK  4 active torsions:
REMARK  status: ('A' for Active; 'I' for Inactive)
REMARK    1  A    between atoms: C4_7  and  N2_8 
REMARK    2  A    between atoms: N2_8  and  C5_10 
REMARK    3  A    between atoms: C5_10  and  C6_11 
REMARK    4  A    between atoms: C6_11  and  C7_12 
ROOT
HETATM    1  N2  UNL     1      10.965  31.481  35.989  1.00  0.00    -0.226 N 
ATOM      2  H2  UNL     1      11.368  32.403  36.157  1.00  0.00     0.177 HD
ENDROOT
BRANCH   1   3
HETATM    3  C4  UNL     1      11.495  30.762  35.073  1.00  0.00     0.680 A 
HETATM    4  N1  UNL     1      11.657  29.437  35.237  1.00  0.00    -0.202 N 
HETATM    5  C3  UNL     1      12.221  28.691  34.258  1.00  0.00     0.111 A 
ATOM      6  H1  UNL     1      11.354  28.992  36.104  1.00  0.00     0.183 HD
HETATM    7  C2  UNL     1      12.623  29.318  33.093  1.00  0.00     0.092 A 
HETATM    8  C1  UNL     1      12.456  30.669  32.927  1.00  0.00     0.260 A 
HETATM    9  O1  UNL     1      12.805  31.292  31.884  1.00  0.00    -0.268 OA
HETATM   10  N4  UNL     1      11.890  31.368  33.934  1.00  0.00    -0.156 N 
ATOM     11  H4  UNL     1      11.758  32.375  33.830  1.00  0.00     0.187 HD
ENDBRANCH   1   3
BRANCH   1  12
HETATM   12  C5  UNL     1       9.850  31.090  36.798  1.00  0.00     0.142 C 
BRANCH  12  13
HETATM   13  C6  UNL     1       9.662  32.140  37.872  1.00  0.00     0.058 C 
BRANCH  13  14
HETATM   14  C7  UNL     1       9.962  31.628  39.216  1.00  0.00    -0.054 A 
HETATM   15  C8  UNL     1      10.437  32.492  40.178  1.00  0.00     0.024 A 
HETATM   16  C9  UNL     1      10.719  32.008  41.444  1.00  0.00     0.088 A 
HETATM   17  N3  UNL     1      10.525  30.707  41.718  1.00  0.00    -0.375 N 
HETATM   18  C10 UNL     1      10.063  29.818  40.818  1.00  0.00     0.088 A 
ATOM     19  H3  UNL     1      10.739  30.374  42.659  1.00  0.00     0.164 HD
HETATM   20  C11 UNL     1       9.783  30.306  39.555  1.00  0.00     0.024 A 
ENDBRANCH  13  14
ENDBRANCH  12  13
ENDBRANCH   1  12
TORSDOF 4
ENDMDL
MODEL 4
REMARK VINA RESULT: -6.167861632      2.747      7.020
REMARK  4 active torsions:
REMARK  status: ('A' for Active; 'I' for Inactive)
REMARK    1  A    between atoms: C4_7  and  N2_8 
REMARK    2  A    between atoms: N2_8  and  C5_10 
REMARK    3  A    between atoms: C5_10  and  C6_11 
REMARK    4  A    between atoms: C6_11  and  C7_12 
ROOT
HETATM    1  N2  UNL     1      10.527  31.023  36.010  1.00  0.00    -0.226 N 
ATOM      2  H2  UNL     1      10.758  31.927  35.596  1.00  0.00     0.177 HD
ENDROOT
BRANCH   1   3
HETATM    3  C4  UNL     1      10.196  31.006  37.246  1.00  0.00     0.680 A 
HETATM    4  N1  UNL     1       9.450  30.008  37.750  1.00  0.00    -0.202 N 
HETATM    5  C3  UNL     1       9.108  30.006  39.060  1.00  0.00     0.111 A 
ATOM      6  H1  UNL     1       9.140  29.249  37.143  1.00  0.00     0.183 HD
HETATM    7  C2  UNL     1       9.540  31.046  39.862  1.00  0.00     0.092 A 
HETATM    8  C1  UNL     1      10.301  32.063  39.346  1.00  0.00     0.260 A 
HETATM    9  O1  UNL     1      10.724  33.037  40.033  1.00  0.00    -0.268 OA
HETATM   10  N4  UNL     1      10.615  32.020  38.033  1.00  0.00    -0.156 N 
ATOM     11  H4  UNL     1      11.180  32.767  37.629  1.00  0.00     0.187 HD
ENDBRANCH   1   3
BRANCH   1  12
HETATM   12  C5  UNL     1      10.599  29.871  35.163  1.00  0.00     0.142 C 
BRANCH  12  13
HETATM   13  C6  UNL     1      12.021  29.750  34.660  1.00  0.00     0.058 C 
BRANCH  13  14
HETATM   14  C7  UNL     1      12.094  29.649  33.196  1.00  0.00    -0.054 A 
HETATM   15  C8  UNL     1      11.282  28.752  32.539  1.00  0.00     0.024 A 
HETATM   16  C9  UNL     1      11.352  28.659  31.160  1.00  0.00     0.088 A 
HETATM   17  N3  UNL     1      12.207  29.443  30.481  1.00  0.00    -0.375 N 
HETATM   18  C10 UNL     1      13.023  30.337  31.072  1.00  0.00     0.088 A 
ATOM     19  H3  UNL     1      12.240  29.357  29.466  1.00  0.00     0.164 HD
HETATM   20  C11 UNL     1      12.950  30.426  32.449  1.00  0.00     0.024 A 
ENDBRANCH  13  14
ENDBRANCH  12  13
ENDBRANCH   1  12
TORSDOF 4
ENDMDL
MODEL 5
REMARK VINA RESULT: -6.131041492      2.770      7.099
REMARK  4 active torsions:
REMARK  status: ('A' for Active; 'I' for Inactive)
REMARK    1  A    between atoms: C4_7  and  N2_8 
REMARK    2  A    between atoms: N2_8  and  C5_10 
REMARK    3  A    between atoms: C5_10  and  C6_11 
REMARK    4  A    between atoms: C6_11  and  C7_12 
ROOT
HETATM    1  N2  UNL     1      10.554  31.044  36.093  1.00  0.00    -0.226 N 
ATOM      2  H2  UNL     1      10.812  31.942  35.682  1.00  0.00     0.177 HD
ENDROOT
BRANCH   1   3
HETATM    3  C4  UNL     1      10.214  31.034  37.327  1.00  0.00     0.680 A 
HETATM    4  N1  UNL     1       9.460  30.042  37.830  1.00  0.00    -0.202 N 
HETATM    5  C3  UNL     1       9.108  30.048  39.138  1.00  0.00     0.111 A 
ATOM      6  H1  UNL     1       9.151  29.281  37.225  1.00  0.00     0.183 HD
HETATM    7  C2  UNL     1       9.539  31.090  39.938  1.00  0.00     0.092 A 
HETATM    8  C1  UNL     1      10.309  32.101  39.422  1.00  0.00     0.260 A 
HETATM    9  O1  UNL     1      10.730  33.076  40.108  1.00  0.00    -0.268 OA
HETATM   10  N4  UNL     1      10.632  32.050  38.112  1.00  0.00    -0.156 N 
ATOM     11  H4  UNL     1      11.203  32.793  37.709  1.00  0.00     0.187 HD
ENDBRANCH   1   3
BRANCH   1  12
HETATM   12  C5  UNL     1      10.602  29.891  35.245  1.00  0.00     0.142 C 
BRANCH  12  13
HETATM   13  C6  UNL     1      12.013  29.763  34.712  1.00  0.00     0.058 C 
BRANCH  13  14
HETATM   14  C7  UNL     1      12.050  29.621  33.250  1.00  0.00    -0.054 A 
HETATM   15  C8  UNL     1      12.958  30.357  32.522  1.00  0.00     0.024 A 
HETATM   16  C9  UNL     1      12.992  30.222  31.145  1.00  0.00     0.088 A 
HETATM   17  N3  UNL     1      12.142  29.375  30.538  1.00  0.00    -0.375 N 
HETATM   18  C10 UNL     1      11.235  28.631  31.199  1.00  0.00     0.088 A 
ATOM     19  H3  UNL     1      12.187  29.292  29.522  1.00  0.00     0.164 HD
HETATM   20  C11 UNL     1      11.205  28.771  32.574  1.00  0.00     0.024 A 
ENDBRANCH  13  14
ENDBRANCH  12  13
ENDBRANCH   1  12
TORSDOF 4
ENDMDL
