MODEL 1
REMARK VINA RESULT: -6.551526434      0.000      0.000
REMARK  5 active torsions:
REMARK  status: ('A' for Active; 'I' for Inactive)
REMARK    1  A    between atoms: C2_2  and  C3_3 
REMARK    2  A    between atoms: C3_3  and  O1_4 
REMARK    3  A    between atoms: O1_4  and  C4_5 
REMARK    4  A    between atoms: C10_13  and  N2_14 
REMARK    5  A    between atoms: N3_17  and  O2_18 
ROOT
HETATM    1  C4  UNL     1      13.635  28.339  31.167  1.00  0.00     0.070 A 
HETATM    2  C5  UNL     1      13.560  29.674  30.758  1.00  0.00     0.039 A 
HETATM    3  C6  UNL     1      13.017  30.621  31.601  1.00  0.00     0.036 A 
HETATM    4  C7  UNL     1      12.548  30.236  32.848  1.00  0.00     0.092 A 
HETATM    5  C8  UNL     1      12.611  28.917  33.275  1.00  0.00     0.012 A 
HETATM    6  C9  UNL     1      12.144  28.543  34.517  1.00  0.00     0.120 A 
HETATM    7  N1  UNL     1      11.625  29.509  35.293  1.00  0.00    -0.199 N 
ATOM      8  H1  UNL     1      11.272  29.259  36.217  1.00  0.00     0.183 HD
HETATM    9  C10 UNL     1      11.554  30.792  34.898  1.00  0.00     0.702 A 
HETATM   10  N3  UNL     1      12.010  31.152  33.689  1.00  0.00    -0.052 N 
HETATM   11  C11 UNL     1      13.165  27.977  32.408  1.00  0.00     0.052 A 
ENDROOT
BRANCH   1  12
HETATM   12  O1  UNL     1      14.175  27.410  30.323  1.00  0.00    -0.347 OA
BRANCH  12  13
HETATM   13  C3  UNL     1      14.002  26.031  30.402  1.00  0.00     0.202 C 
BRANCH  13  14
HETATM   14  C2  UNL     1      15.294  25.368  30.781  1.00  0.00    -0.011 C 
HETATM   15  C1  UNL     1      15.530  25.055  32.035  1.00  0.00     0.009 C 
ENDBRANCH  13  14
ENDBRANCH  12  13
ENDBRANCH   1  12
BRANCH  10  16
HETATM   16  O2  UNL     1      11.958  32.457  33.240  1.00  0.00    -0.269 OA
ATOM     17  H2  UNL     1      11.252  32.998  33.573  1.00  0.00     0.245 HD
ENDBRANCH  10  16
BRANCH   9  18
HETATM   18  N2  UNL     1      11.052  31.699  35.661  1.00  0.00    -0.232 N 
ATOM     19  H22 UNL     1      11.435  31.813  36.600  1.00  0.00     0.174 HD
ATOM     20  H21 UNL     1      10.287  32.294  35.343  1.00  0.00     0.174 HD
ENDBRANCH   9  18
TORSDOF 5
ENDMDL
MODEL 2
REMARK VINA RESULT: -6.406422583      0.721      1.327
REMARK  5 active torsions:
REMARK  status: ('A' for Active; 'I' for Inactive)
REMARK    1  A    between atoms: C2_2  and  C3_3 
REMARK    2  A    between atoms: C3_3  and  O1_4 
REMARK    3  A    between atoms: O1_4  and  C4_5 
REMARK    4  A    between atoms: C10_13  and  N2_14 
REMARK    5  A    between atoms: N3_17  and  O2_18 
ROOT
HETATM    1  C4  UNL     1      13.644  28.357  31.243  1.00  0.00     0.070 A 
HETATM    2  C5  UNL     1      13.581  29.690  30.828  1.00  0.00     0.039 A 
HETATM    3  C6  UNL     1      13.031  30.643  31.659  1.00  0.00     0.036 A 
HETATM    4  C7  UNL     1      12.544  30.266  32.902  1.00  0.00     0.092 A 
HETATM    5  C8  UNL     1      12.597  28.949  33.335  1.00  0.00     0.012 A 
HETATM    6  C9  UNL     1      12.112  28.583  34.573  1.00  0.00     0.120 A 
HETATM    7  N1  UNL     1      11.587  29.554  35.338  1.00  0.00    -0.199 N 
ATOM      8  H1  UNL     1      11.221  29.310  36.258  1.00  0.00     0.183 HD
HETATM    9  C10 UNL     1      11.527  30.835  34.936  1.00  0.00     0.702 A 
HETATM   10  N3  UNL     1      12.000  31.188  33.731  1.00  0.00    -0.052 N 
HETATM   11  C11 UNL     1      13.157  28.002  32.480  1.00  0.00     0.052 A 
ENDROOT
BRANCH   1  12
HETATM   12  O1  UNL     1      14.192  27.422  30.410  1.00  0.00    -0.347 OA
BRANCH  12  13
HETATM   13  C3  UNL     1      13.967  26.048  30.459  1.00  0.00     0.202 C 
BRANCH  13  14
HETATM   14  C2  UNL     1      12.912  25.662  29.463  1.00  0.00    -0.011 C 
HETATM   15  C1  UNL     1      11.641  25.731  29.791  1.00  0.00     0.009 C 
ENDBRANCH  13  14
ENDBRANCH  12  13
ENDBRANCH   1  12
BRANCH  10  16
HETATM   16  O2  UNL     1      11.959  32.491  33.276  1.00  0.00    -0.269 OA
ATOM     17  H2  UNL     1      11.698  33.157  33.901  1.00  0.00     0.245 HD
ENDBRANCH  10  16
BRANCH   9  18
HETATM   18  N2  UNL     1      11.019  31.748  35.689  1.00  0.00    -0.232 N 
ATOM     19  H22 UNL     1      11.131  31.665  36.699  1.00  0.00     0.174 HD
ATOM     20  H21 UNL     1      10.513  32.539  35.292  1.00  0.00     0.174 HD
ENDBRANCH   9  18
TORSDOF 5
ENDMDL
MODEL 3
REMARK VINA RESULT: -6.265821309      2.862      5.099
REMARK  5 active torsions:
REMARK  status: ('A' for Active; 'I' for Inactive)
REMARK    1  A    between atoms: C2_2  and  C3_3 
REMARK    2  A    between atoms: C3_3  and  O1_4 
REMARK    3  A    between atoms: O1_4  and  C4_5 
REMARK    4  A    between atoms: C10_13  and  N2_14 
REMARK    5  A    between atoms: N3_17  and  O2_18 
ROOT
HETATM    1  C4  UNL     1      11.898  28.597  34.470  1.00  0.00     0.070 A 
HETATM    2  C5  UNL     1      11.888  29.991  34.365  1.00  0.00     0.039 A 
HETATM    3  C6  UNL     1      12.265  30.595  33.184  1.00  0.00     0.036 A 
HETATM    4  C7  UNL     1      12.652  29.807  32.110  1.00  0.00     0.092 A 
HETATM    5  C8  UNL     1      12.670  28.423  32.190  1.00  0.00     0.012 A 
HETATM    6  C9  UNL     1      13.056  27.648  31.116  1.00  0.00     0.120 A 
HETATM    7  N1  UNL     1      13.413  28.291  29.993  1.00  0.00    -0.199 N 
ATOM      8  H1  UNL     1      13.703  27.743  29.184  1.00  0.00     0.183 HD
HETATM    9  C10 UNL     1      13.403  29.633  29.895  1.00  0.00     0.702 A 
HETATM   10  N3  UNL     1      13.027  30.383  30.942  1.00  0.00    -0.052 N 
HETATM   11  C11 UNL     1      12.284  27.834  33.392  1.00  0.00     0.052 A 
ENDROOT
BRANCH   1  12
HETATM   12  O1  UNL     1      11.521  28.011  35.646  1.00  0.00    -0.347 OA
BRANCH  12  13
HETATM   13  C3  UNL     1      10.353  28.277  36.357  1.00  0.00     0.202 C 
BRANCH  13  14
HETATM   14  C2  UNL     1       9.156  27.823  35.573  1.00  0.00    -0.011 C 
HETATM   15  C1  UNL     1       8.330  28.707  35.061  1.00  0.00     0.009 C 
ENDBRANCH  13  14
ENDBRANCH  12  13
ENDBRANCH   1  12
BRANCH  10  16
HETATM   16  O2  UNL     1      13.001  31.763  30.888  1.00  0.00    -0.269 OA
ATOM     17  H2  UNL     1      13.045  32.160  30.026  1.00  0.00     0.245 HD
ENDBRANCH  10  16
BRANCH   9  18
HETATM   18  N2  UNL     1      13.751  30.225  28.806  1.00  0.00    -0.232 N 
ATOM     19  H22 UNL     1      13.944  29.657  27.982  1.00  0.00     0.174 HD
ATOM     20  H21 UNL     1      13.834  31.240  28.760  1.00  0.00     0.174 HD
ENDBRANCH   9  18
TORSDOF 5
ENDMDL
MODEL 4
REMARK VINA RESULT: -6.152572814      2.749      5.374
REMARK  5 active torsions:
REMARK  status: ('A' for Active; 'I' for Inactive)
REMARK    1  A    between atoms: C2_2  and  C3_3 
REMARK    2  A    between atoms: C3_3  and  O1_4 
REMARK    3  A    between atoms: O1_4  and  C4_5 
REMARK    4  A    between atoms: C10_13  and  N2_14 
REMARK    5  A    between atoms: N3_17  and  O2_18 
ROOT
HETATM    1  C4  UNL     1      11.876  28.964  34.779  1.00  0.00     0.070 A 
HETATM    2  C5  UNL     1      11.893  30.343  34.552  1.00  0.00     0.039 A 
HETATM    3  C6  UNL     1      12.256  30.832  33.315  1.00  0.00     0.036 A 
HETATM    4  C7  UNL     1      12.602  29.945  32.306  1.00  0.00     0.092 A 
HETATM    5  C8  UNL     1      12.592  28.573  32.508  1.00  0.00     0.012 A 
HETATM    6  C9  UNL     1      12.937  27.698  31.498  1.00  0.00     0.120 A 
HETATM    7  N1  UNL     1      13.281  28.232  30.315  1.00  0.00    -0.199 N 
ATOM      8  H1  UNL     1      13.540  27.608  29.552  1.00  0.00     0.183 HD
HETATM    9  C10 UNL     1      13.298  29.559  30.100  1.00  0.00     0.702 A 
HETATM   10  N3  UNL     1      12.961  30.407  31.084  1.00  0.00    -0.052 N 
HETATM   11  C11 UNL     1      12.222  28.100  33.765  1.00  0.00     0.052 A 
ENDROOT
BRANCH   1  12
HETATM   12  O1  UNL     1      11.514  28.493  36.009  1.00  0.00    -0.347 OA
BRANCH  12  13
HETATM   13  C3  UNL     1      10.213  28.373  36.492  1.00  0.00     0.202 C 
BRANCH  13  14
HETATM   14  C2  UNL     1       9.944  29.432  37.521  1.00  0.00    -0.011 C 
HETATM   15  C1  UNL     1       9.248  30.500  37.201  1.00  0.00     0.009 C 
ENDBRANCH  13  14
ENDBRANCH  12  13
ENDBRANCH   1  12
BRANCH  10  16
HETATM   16  O2  UNL     1      12.963  31.777  30.909  1.00  0.00    -0.269 OA
ATOM     17  H2  UNL     1      12.366  32.280  31.450  1.00  0.00     0.245 HD
ENDBRANCH  10  16
BRANCH   9  18
HETATM   18  N2  UNL     1      13.632  30.046  28.956  1.00  0.00    -0.232 N 
ATOM     19  H22 UNL     1      13.044  30.769  28.542  1.00  0.00     0.174 HD
ATOM     20  H21 UNL     1      14.465  29.721  28.466  1.00  0.00     0.174 HD
ENDBRANCH   9  18
TORSDOF 5
ENDMDL
MODEL 5
REMARK VINA RESULT: -6.099597404      1.575      2.116
REMARK  5 active torsions:
REMARK  status: ('A' for Active; 'I' for Inactive)
REMARK    1  A    between atoms: C2_2  and  C3_3 
REMARK    2  A    between atoms: C3_3  and  O1_4 
REMARK    3  A    between atoms: O1_4  and  C4_5 
REMARK    4  A    between atoms: C10_13  and  N2_14 
REMARK    5  A    between atoms: N3_17  and  O2_18 
ROOT
HETATM    1  C4  UNL     1      12.872  27.617  30.870  1.00  0.00     0.070 A 
HETATM    2  C5  UNL     1      12.954  28.929  30.394  1.00  0.00     0.039 A 
HETATM    3  C6  UNL     1      12.694  29.985  31.242  1.00  0.00     0.036 A 
HETATM    4  C7  UNL     1      12.352  29.731  32.562  1.00  0.00     0.092 A 
HETATM    5  C8  UNL     1      12.265  28.438  33.057  1.00  0.00     0.012 A 
HETATM    6  C9  UNL     1      11.926  28.196  34.371  1.00  0.00     0.120 A 
HETATM    7  N1  UNL     1      11.684  29.263  35.149  1.00  0.00    -0.199 N 
ATOM      8  H1  UNL     1      11.431  29.112  36.126  1.00  0.00     0.183 HD
HETATM    9  C10 UNL     1      11.762  30.524  34.689  1.00  0.00     0.702 A 
HETATM   10  N3  UNL     1      12.093  30.756  33.410  1.00  0.00    -0.052 N 
HETATM   11  C11 UNL     1      12.533  27.386  32.183  1.00  0.00     0.052 A 
ENDROOT
BRANCH   1  12
HETATM   12  O1  UNL     1      13.133  26.580  30.019  1.00  0.00    -0.347 OA
BRANCH  12  13
HETATM   13  C3  UNL     1      12.327  25.461  29.821  1.00  0.00     0.202 C 
BRANCH  13  14
HETATM   14  C2  UNL     1      10.901  25.881  29.612  1.00  0.00    -0.011 C 
HETATM   15  C1  UNL     1      10.111  25.167  28.843  1.00  0.00     0.009 C 
ENDBRANCH  13  14
ENDBRANCH  12  13
ENDBRANCH   1  12
BRANCH  10  16
HETATM   16  O2  UNL     1      12.186  32.034  32.893  1.00  0.00    -0.269 OA
ATOM     17  H2  UNL     1      12.449  32.722  33.492  1.00  0.00     0.245 HD
ENDBRANCH  10  16
BRANCH   9  18
HETATM   18  N2  UNL     1      11.525  31.530  35.456  1.00  0.00    -0.232 N 
ATOM     19  H22 UNL     1      11.270  31.354  36.428  1.00  0.00     0.174 HD
ATOM     20  H21 UNL     1      11.587  32.487  35.108  1.00  0.00     0.174 HD
ENDBRANCH   9  18
TORSDOF 5
ENDMDL
