MODEL 1
REMARK VINA RESULT: -8.997726883      0.000      0.000
REMARK  8 active torsions:
REMARK  status: ('A' for Active; 'I' for Inactive)
REMARK    1  A    between atoms: N1_2  and  C2_4 
REMARK    2  A    between atoms: C2_4  and  C6_10 
REMARK    3  A    between atoms: N2_5  and  C3_7 
REMARK    4  A    between atoms: N3_13  and  C9_14 
REMARK    5  A    between atoms: C10_17  and  N5_18 
REMARK    6  A    between atoms: N5_18  and  C11_20 
REMARK    7  A    between atoms: C17_26  and  C18_27 
REMARK    8  A    between atoms: C18_27  and  C19_29 
ROOT
HETATM    1  C9  UNL     1       8.114   7.511  28.010  1.00  0.00     0.681 A 
HETATM    2  N4  UNL     1       7.854   6.804  29.157  1.00  0.00    -0.176 N 
ATOM      3  H4  UNL     1       6.898   6.491  29.325  1.00  0.00     0.186 HD
HETATM    4  C10 UNL     1       8.786   6.504  30.064  1.00  0.00     0.132 A 
HETATM    5  C17 UNL     1      10.089   6.950  29.801  1.00  0.00     0.070 A 
HETATM    6  C22 UNL     1      10.370   7.660  28.657  1.00  0.00     0.125 A 
HETATM    7  N6  UNL     1       9.360   7.929  27.773  1.00  0.00    -0.201 N 
ATOM      8  H6  UNL     1       9.562   8.455  26.923  1.00  0.00     0.183 HD
ENDROOT
BRANCH   1   9
HETATM    9  N3  UNL     1       7.077   7.790  27.097  1.00  0.00    -0.217 N 
HETATM   10  C8  UNL     1       6.496   6.650  26.361  1.00  0.00     0.142 C 
HETATM   11  C7  UNL     1       5.713   7.185  25.182  1.00  0.00     0.033 C 
HETATM   12  C6  UNL     1       6.598   8.167  24.451  1.00  0.00     0.056 C 
HETATM   13  C24 UNL     1       6.685   9.403  25.298  1.00  0.00     0.033 C 
HETATM   14  C23 UNL     1       6.502   9.064  26.786  1.00  0.00     0.142 C 
BRANCH  12  15
HETATM   15  C2  UNL     1       6.128   8.435  23.067  1.00  0.00     0.077 C 
HETATM   16  N2  UNL     1       5.960   9.597  22.590  1.00  0.00    -0.376 N 
ATOM     17  H2  UNL     1       6.170  10.369  23.223  1.00  0.00     0.161 HD
BRANCH  15  18
HETATM   18  N1  UNL     1       5.862   7.301  22.260  1.00  0.00    -0.384 N 
HETATM   19  C1  UNL     1       6.884   6.474  21.653  1.00  0.00     0.147 C 
ATOM     20  H1  UNL     1       4.887   7.051  22.096  1.00  0.00     0.160 HD
ENDBRANCH  15  18
BRANCH  16  21
HETATM   21  C3  UNL     1       5.517   9.969  21.290  1.00  0.00     0.074 C 
HETATM   22  C4  UNL     1       4.074  10.353  21.202  1.00  0.00     0.031 C 
HETATM   23  C5  UNL     1       6.322  11.130  20.691  1.00  0.00     0.031 C 
ENDBRANCH  16  21
ENDBRANCH  12  15
ENDBRANCH   1   9
BRANCH   4  24
HETATM   24  N5  UNL     1       8.594   5.858  31.129  1.00  0.00    -0.370 N 
ATOM     25  H5  UNL     1       9.075   6.234  31.946  1.00  0.00     0.161 HD
BRANCH  24  26
HETATM   26  C11 UNL     1       7.821   4.698  31.382  1.00  0.00     0.083 C 
HETATM   27  C12 UNL     1       6.432   4.924  31.879  1.00  0.00     0.025 C 
HETATM   28  C13 UNL     1       5.693   3.604  31.841  1.00  0.00     0.002 C 
HETATM   29  C14 UNL     1       6.543   2.464  31.360  1.00  0.00     0.000 C 
HETATM   30  C15 UNL     1       7.863   2.352  32.046  1.00  0.00     0.002 C 
HETATM   31  C16 UNL     1       8.492   3.712  32.313  1.00  0.00     0.025 C 
ENDBRANCH  24  26
ENDBRANCH   4  24
BRANCH   5  32
HETATM   32  C18 UNL     1      11.104   6.626  30.786  1.00  0.00     0.168 C 
HETATM   33  O1  UNL     1      11.225   7.271  31.867  1.00  0.00    -0.292 OA
BRANCH  32  34
HETATM   34  C19 UNL     1      12.040   5.520  30.565  1.00  0.00     0.061 A 
HETATM   35  C20 UNL     1      13.245   5.352  31.418  1.00  0.00     0.013 A 
HETATM   36  C21 UNL     1      12.049   4.530  31.741  1.00  0.00     0.013 A 
ENDBRANCH  32  34
ENDBRANCH   5  32
TORSDOF 8
ENDMDL
MODEL 2
REMARK VINA RESULT: -8.796460529      3.144      9.125
REMARK  8 active torsions:
REMARK  status: ('A' for Active; 'I' for Inactive)
REMARK    1  A    between atoms: N1_2  and  C2_4 
REMARK    2  A    between atoms: C2_4  and  C6_10 
REMARK    3  A    between atoms: N2_5  and  C3_7 
REMARK    4  A    between atoms: N3_13  and  C9_14 
REMARK    5  A    between atoms: C10_17  and  N5_18 
REMARK    6  A    between atoms: N5_18  and  C11_20 
REMARK    7  A    between atoms: C17_26  and  C18_27 
REMARK    8  A    between atoms: C18_27  and  C19_29 
ROOT
HETATM    1  C9  UNL     1       6.901   8.122  25.327  1.00  0.00     0.681 A 
HETATM    2  N4  UNL     1       7.316   7.075  24.545  1.00  0.00    -0.176 N 
ATOM      3  H4  UNL     1       8.072   6.484  24.891  1.00  0.00     0.186 HD
HETATM    4  C10 UNL     1       6.784   6.788  23.355  1.00  0.00     0.132 A 
HETATM    5  C17 UNL     1       5.747   7.620  22.910  1.00  0.00     0.070 A 
HETATM    6  C22 UNL     1       5.315   8.675  23.679  1.00  0.00     0.125 A 
HETATM    7  N6  UNL     1       5.911   8.906  24.890  1.00  0.00    -0.201 N 
ATOM      8  H6  UNL     1       5.596   9.687  25.465  1.00  0.00     0.183 HD
ENDROOT
BRANCH   1   9
HETATM    9  N3  UNL     1       7.511   8.364  26.574  1.00  0.00    -0.217 N 
HETATM   10  C8  UNL     1       8.958   8.094  26.685  1.00  0.00     0.142 C 
HETATM   11  C7  UNL     1       9.327   8.028  28.151  1.00  0.00     0.033 C 
HETATM   12  C6  UNL     1       8.344   7.103  28.830  1.00  0.00     0.056 C 
HETATM   13  C24 UNL     1       7.034   7.830  28.915  1.00  0.00     0.033 C 
HETATM   14  C23 UNL     1       6.896   8.850  27.772  1.00  0.00     0.142 C 
BRANCH  12  15
HETATM   15  C2  UNL     1       8.835   6.621  30.148  1.00  0.00     0.077 C 
HETATM   16  N2  UNL     1      10.055   6.394  30.408  1.00  0.00    -0.376 N 
ATOM     17  H2  UNL     1      10.708   6.564  29.643  1.00  0.00     0.161 HD
BRANCH  15  18
HETATM   18  N1  UNL     1       7.855   6.412  31.149  1.00  0.00    -0.384 N 
HETATM   19  C1  UNL     1       7.288   5.121  31.479  1.00  0.00     0.147 C 
ATOM     20  H1  UNL     1       7.527   7.225  31.671  1.00  0.00     0.160 HD
ENDBRANCH  15  18
BRANCH  16  21
HETATM   21  C3  UNL     1      10.634   5.933  31.622  1.00  0.00     0.074 C 
HETATM   22  C4  UNL     1      10.968   4.475  31.648  1.00  0.00     0.031 C 
HETATM   23  C5  UNL     1      11.915   6.689  32.001  1.00  0.00     0.031 C 
ENDBRANCH  16  21
ENDBRANCH  12  15
ENDBRANCH   1   9
BRANCH   4  24
HETATM   24  N5  UNL     1       7.133   5.837  22.604  1.00  0.00    -0.370 N 
ATOM     25  H5  UNL     1       7.302   6.103  21.633  1.00  0.00     0.161 HD
BRANCH  24  26
HETATM   26  C11 UNL     1       7.331   4.463  22.881  1.00  0.00     0.083 C 
HETATM   27  C12 UNL     1       7.978   3.657  21.804  1.00  0.00     0.025 C 
HETATM   28  C13 UNL     1       8.335   2.301  22.373  1.00  0.00     0.002 C 
HETATM   29  C14 UNL     1       7.923   2.135  23.807  1.00  0.00     0.000 C 
HETATM   30  C15 UNL     1       6.506   2.509  24.085  1.00  0.00     0.002 C 
HETATM   31  C16 UNL     1       6.070   3.741  23.305  1.00  0.00     0.025 C 
ENDBRANCH  24  26
ENDBRANCH   4  24
BRANCH   5  32
HETATM   32  C18 UNL     1       5.167   7.310  21.617  1.00  0.00     0.168 C 
HETATM   33  O1  UNL     1       4.529   6.239  21.404  1.00  0.00    -0.292 OA
BRANCH  32  34
HETATM   34  C19 UNL     1       5.299   8.239  20.491  1.00  0.00     0.061 A 
HETATM   35  C20 UNL     1       4.419   8.130  19.299  1.00  0.00     0.013 A 
HETATM   36  C21 UNL     1       4.058   9.133  20.335  1.00  0.00     0.013 A 
ENDBRANCH  32  34
ENDBRANCH   5  32
TORSDOF 8
ENDMDL
MODEL 3
REMARK VINA RESULT: -8.784705702      0.861      1.488
REMARK  8 active torsions:
REMARK  status: ('A' for Active; 'I' for Inactive)
REMARK    1  A    between atoms: N1_2  and  C2_4 
REMARK    2  A    between atoms: C2_4  and  C6_10 
REMARK    3  A    between atoms: N2_5  and  C3_7 
REMARK    4  A    between atoms: N3_13  and  C9_14 
REMARK    5  A    between atoms: C10_17  and  N5_18 
REMARK    6  A    between atoms: N5_18  and  C11_20 
REMARK    7  A    between atoms: C17_26  and  C18_27 
REMARK    8  A    between atoms: C18_27  and  C19_29 
ROOT
HETATM    1  C9  UNL     1       8.051   7.471  27.936  1.00  0.00     0.681 A 
HETATM    2  N4  UNL     1       7.840   6.759  29.089  1.00  0.00    -0.176 N 
ATOM      3  H4  UNL     1       6.910   6.377  29.258  1.00  0.00     0.186 HD
HETATM    4  C10 UNL     1       8.789   6.539  30.002  1.00  0.00     0.132 A 
HETATM    5  C17 UNL     1      10.056   7.078  29.738  1.00  0.00     0.070 A 
HETATM    6  C22 UNL     1      10.288   7.795  28.587  1.00  0.00     0.125 A 
HETATM    7  N6  UNL     1       9.264   7.979  27.698  1.00  0.00    -0.201 N 
ATOM      8  H6  UNL     1       9.429   8.509  26.843  1.00  0.00     0.183 HD
ENDROOT
BRANCH   1   9
HETATM    9  N3  UNL     1       6.999   7.663  27.017  1.00  0.00    -0.217 N 
HETATM   10  C8  UNL     1       6.858   6.674  25.931  1.00  0.00     0.142 C 
HETATM   11  C7  UNL     1       5.963   7.256  24.859  1.00  0.00     0.033 C 
HETATM   12  C6  UNL     1       6.473   8.642  24.539  1.00  0.00     0.056 C 
HETATM   13  C24 UNL     1       6.115   9.527  25.698  1.00  0.00     0.033 C 
HETATM   14  C23 UNL     1       6.029   8.716  27.002  1.00  0.00     0.142 C 
BRANCH  12  15
HETATM   15  C2  UNL     1       5.967   9.147  23.236  1.00  0.00     0.077 C 
HETATM   16  N2  UNL     1       5.993   8.478  22.160  1.00  0.00    -0.376 N 
ATOM     17  H2  UNL     1       6.391   7.541  22.233  1.00  0.00     0.161 HD
BRANCH  15  18
HETATM   18  N1  UNL     1       5.432  10.459  23.232  1.00  0.00    -0.384 N 
HETATM   19  C1  UNL     1       6.204  11.653  22.955  1.00  0.00     0.147 C 
ATOM     20  H1  UNL     1       4.439  10.570  23.437  1.00  0.00     0.160 HD
ENDBRANCH  15  18
BRANCH  16  21
HETATM   21  C3  UNL     1       5.542   8.857  20.866  1.00  0.00     0.074 C 
HETATM   22  C4  UNL     1       6.599   9.423  19.971  1.00  0.00     0.031 C 
HETATM   23  C5  UNL     1       4.881   7.704  20.098  1.00  0.00     0.031 C 
ENDBRANCH  16  21
ENDBRANCH  12  15
ENDBRANCH   1   9
BRANCH   4  24
HETATM   24  N5  UNL     1       8.641   5.891  31.073  1.00  0.00    -0.370 N 
ATOM     25  H5  UNL     1       9.167   6.258  31.867  1.00  0.00     0.161 HD
BRANCH  24  26
HETATM   26  C11 UNL     1       7.868   4.740  31.360  1.00  0.00     0.083 C 
HETATM   27  C12 UNL     1       6.498   4.981  31.901  1.00  0.00     0.025 C 
HETATM   28  C13 UNL     1       5.746   3.668  31.897  1.00  0.00     0.002 C 
HETATM   29  C14 UNL     1       6.571   2.516  31.398  1.00  0.00     0.000 C 
HETATM   30  C15 UNL     1       7.911   2.399  32.042  1.00  0.00     0.002 C 
HETATM   31  C16 UNL     1       8.560   3.755  32.277  1.00  0.00     0.025 C 
ENDBRANCH  24  26
ENDBRANCH   4  24
BRANCH   5  32
HETATM   32  C18 UNL     1      11.088   6.840  30.729  1.00  0.00     0.168 C 
HETATM   33  O1  UNL     1      11.125   7.465  31.828  1.00  0.00    -0.292 OA
BRANCH  32  34
HETATM   34  C19 UNL     1      12.144   5.851  30.493  1.00  0.00     0.061 A 
HETATM   35  C20 UNL     1      13.228   5.633  31.486  1.00  0.00     0.013 A 
HETATM   36  C21 UNL     1      12.079   4.690  31.499  1.00  0.00     0.013 A 
ENDBRANCH  32  34
ENDBRANCH   5  32
TORSDOF 8
ENDMDL
MODEL 4
REMARK VINA RESULT: -8.628220604      0.828      1.606
REMARK  8 active torsions:
REMARK  status: ('A' for Active; 'I' for Inactive)
REMARK    1  A    between atoms: N1_2  and  C2_4 
REMARK    2  A    between atoms: C2_4  and  C6_10 
REMARK    3  A    between atoms: N2_5  and  C3_7 
REMARK    4  A    between atoms: N3_13  and  C9_14 
REMARK    5  A    between atoms: C10_17  and  N5_18 
REMARK    6  A    between atoms: N5_18  and  C11_20 
REMARK    7  A    between atoms: C17_26  and  C18_27 
REMARK    8  A    between atoms: C18_27  and  C19_29 
ROOT
HETATM    1  C9  UNL     1       8.267   7.435  27.918  1.00  0.00     0.681 A 
HETATM    2  N4  UNL     1       7.925   6.789  29.078  1.00  0.00    -0.176 N 
ATOM      3  H4  UNL     1       6.950   6.521  29.212  1.00  0.00     0.186 HD
HETATM    4  C10 UNL     1       8.801   6.491  30.040  1.00  0.00     0.132 A 
HETATM    5  C17 UNL     1      10.132   6.873  29.823  1.00  0.00     0.070 A 
HETATM    6  C22 UNL     1      10.496   7.522  28.666  1.00  0.00     0.125 A 
HETATM    7  N6  UNL     1       9.540   7.793  27.724  1.00  0.00    -0.201 N 
ATOM      8  H6  UNL     1       9.803   8.274  26.864  1.00  0.00     0.183 HD
ENDROOT
BRANCH   1   9
HETATM    9  N3  UNL     1       7.286   7.716  26.945  1.00  0.00    -0.217 N 
HETATM   10  C8  UNL     1       6.512   6.578  26.413  1.00  0.00     0.142 C 
HETATM   11  C7  UNL     1       5.823   7.014  25.139  1.00  0.00     0.033 C 
HETATM   12  C6  UNL     1       6.858   7.682  24.264  1.00  0.00     0.056 C 
HETATM   13  C24 UNL     1       7.164   9.018  24.875  1.00  0.00     0.033 C 
HETATM   14  C23 UNL     1       6.937   8.991  26.395  1.00  0.00     0.142 C 
BRANCH  12  15
HETATM   15  C2  UNL     1       6.430   7.769  22.843  1.00  0.00     0.077 C 
HETATM   16  N2  UNL     1       7.140   7.384  21.866  1.00  0.00    -0.376 N 
ATOM     17  H2  UNL     1       8.051   6.995  22.108  1.00  0.00     0.161 HD
BRANCH  15  18
HETATM   18  N1  UNL     1       5.148   8.322  22.603  1.00  0.00    -0.384 N 
HETATM   19  C1  UNL     1       4.909   9.708  22.258  1.00  0.00     0.147 C 
ATOM     20  H1  UNL     1       4.341   7.703  22.677  1.00  0.00     0.160 HD
ENDBRANCH  15  18
BRANCH  16  21
HETATM   21  C3  UNL     1       6.835   7.420  20.477  1.00  0.00     0.074 C 
HETATM   22  C4  UNL     1       7.615   8.422  19.687  1.00  0.00     0.031 C 
HETATM   23  C5  UNL     1       7.025   6.063  19.785  1.00  0.00     0.031 C 
ENDBRANCH  16  21
ENDBRANCH  12  15
ENDBRANCH   1   9
BRANCH   4  24
HETATM   24  N5  UNL     1       8.532   5.899  31.120  1.00  0.00    -0.370 N 
ATOM     25  H5  UNL     1       8.920   6.340  31.954  1.00  0.00     0.161 HD
BRANCH  24  26
HETATM   26  C11 UNL     1       7.782   4.724  31.370  1.00  0.00     0.083 C 
HETATM   27  C12 UNL     1       6.379   4.922  31.841  1.00  0.00     0.025 C 
HETATM   28  C13 UNL     1       5.670   3.586  31.802  1.00  0.00     0.002 C 
HETATM   29  C14 UNL     1       6.555   2.461  31.348  1.00  0.00     0.000 C 
HETATM   30  C15 UNL     1       7.864   2.386  32.059  1.00  0.00     0.002 C 
HETATM   31  C16 UNL     1       8.458   3.762  32.323  1.00  0.00     0.025 C 
ENDBRANCH  24  26
ENDBRANCH   4  24
BRANCH   5  32
HETATM   32  C18 UNL     1      11.085   6.550  30.867  1.00  0.00     0.168 C 
HETATM   33  O1  UNL     1      11.157   7.212  31.943  1.00  0.00    -0.292 OA
BRANCH  32  34
HETATM   34  C19 UNL     1      12.016   5.428  30.717  1.00  0.00     0.061 A 
HETATM   35  C20 UNL     1      13.234   5.321  31.561  1.00  0.00     0.013 A 
HETATM   36  C21 UNL     1      12.041   4.530  31.965  1.00  0.00     0.013 A 
ENDBRANCH  32  34
ENDBRANCH   5  32
TORSDOF 8
ENDMDL
MODEL 5
REMARK VINA RESULT: -8.607017603      3.561      8.643
REMARK  8 active torsions:
REMARK  status: ('A' for Active; 'I' for Inactive)
REMARK    1  A    between atoms: N1_2  and  C2_4 
REMARK    2  A    between atoms: C2_4  and  C6_10 
REMARK    3  A    between atoms: N2_5  and  C3_7 
REMARK    4  A    between atoms: N3_13  and  C9_14 
REMARK    5  A    between atoms: C10_17  and  N5_18 
REMARK    6  A    between atoms: N5_18  and  C11_20 
REMARK    7  A    between atoms: C17_26  and  C18_27 
REMARK    8  A    between atoms: C18_27  and  C19_29 
ROOT
HETATM    1  C9  UNL     1       7.054   7.315  25.174  1.00  0.00     0.681 A 
HETATM    2  N4  UNL     1       6.565   6.043  25.021  1.00  0.00    -0.176 N 
ATOM      3  H4  UNL     1       6.532   5.437  25.841  1.00  0.00     0.186 HD
HETATM    4  C10 UNL     1       6.130   5.556  23.857  1.00  0.00     0.132 A 
HETATM    5  C17 UNL     1       6.189   6.416  22.751  1.00  0.00     0.070 A 
HETATM    6  C22 UNL     1       6.676   7.696  22.883  1.00  0.00     0.125 A 
HETATM    7  N6  UNL     1       7.104   8.124  24.111  1.00  0.00    -0.201 N 
ATOM      8  H6  UNL     1       7.465   9.072  24.216  1.00  0.00     0.183 HD
ENDROOT
BRANCH   1   9
HETATM    9  N3  UNL     1       7.496   7.760  26.436  1.00  0.00    -0.217 N 
HETATM   10  C8  UNL     1       8.951   7.921  26.628  1.00  0.00     0.142 C 
HETATM   11  C7  UNL     1       9.237   8.009  28.111  1.00  0.00     0.033 C 
HETATM   12  C6  UNL     1       8.520   6.861  28.784  1.00  0.00     0.056 C 
HETATM   13  C24 UNL     1       7.055   7.183  28.774  1.00  0.00     0.033 C 
HETATM   14  C23 UNL     1       6.699   8.085  27.580  1.00  0.00     0.142 C 
BRANCH  12  15
HETATM   15  C2  UNL     1       9.051   6.581  30.145  1.00  0.00     0.077 C 
HETATM   16  N2  UNL     1      10.275   6.375  30.397  1.00  0.00    -0.376 N 
ATOM     17  H2  UNL     1      10.904   6.414  29.595  1.00  0.00     0.161 HD
BRANCH  15  18
HETATM   18  N1  UNL     1       8.103   6.547  31.197  1.00  0.00    -0.384 N 
HETATM   19  C1  UNL     1       7.473   5.340  31.689  1.00  0.00     0.147 C 
ATOM     20  H1  UNL     1       7.848   7.431  31.637  1.00  0.00     0.160 HD
ENDBRANCH  15  18
BRANCH  16  21
HETATM   21  C3  UNL     1      10.891   6.099  31.650  1.00  0.00     0.074 C 
HETATM   22  C4  UNL     1      11.378   4.694  31.815  1.00  0.00     0.031 C 
HETATM   23  C5  UNL     1      12.080   7.020  31.951  1.00  0.00     0.031 C 
ENDBRANCH  16  21
ENDBRANCH  12  15
ENDBRANCH   1   9
BRANCH   4  24
HETATM   24  N5  UNL     1       5.674   4.396  23.671  1.00  0.00    -0.370 N 
ATOM     25  H5  UNL     1       4.775   4.366  23.188  1.00  0.00     0.161 HD
BRANCH  24  26
HETATM   26  C11 UNL     1       6.199   3.127  24.018  1.00  0.00     0.083 C 
HETATM   27  C12 UNL     1       7.678   2.968  23.897  1.00  0.00     0.025 C 
HETATM   28  C13 UNL     1       8.071   1.660  24.548  1.00  0.00     0.002 C 
HETATM   29  C14 UNL     1       6.898   0.893  25.088  1.00  0.00     0.000 C 
HETATM   30  C15 UNL     1       5.776   0.728  24.120  1.00  0.00     0.002 C 
HETATM   31  C16 UNL     1       5.548   1.977  23.281  1.00  0.00     0.025 C 
ENDBRANCH  24  26
ENDBRANCH   4  24
BRANCH   5  32
HETATM   32  C18 UNL     1       5.717   5.889  21.485  1.00  0.00     0.168 C 
HETATM   33  O1  UNL     1       4.492   5.667  21.262  1.00  0.00    -0.292 OA
BRANCH  32  34
HETATM   34  C19 UNL     1       6.654   5.589  20.399  1.00  0.00     0.061 A 
HETATM   35  C20 UNL     1       8.011   5.052  20.680  1.00  0.00     0.013 A 
HETATM   36  C21 UNL     1       6.950   4.084  20.294  1.00  0.00     0.013 A 
ENDBRANCH  32  34
ENDBRANCH   5  32
TORSDOF 8
ENDMDL
