MODEL 1
REMARK VINA RESULT: -5.400021967      0.000      0.000
REMARK  7 active torsions:
REMARK  status: ('A' for Active; 'I' for Inactive)
REMARK    1  A    between atoms: C2_7  and  C3_8 
REMARK    2  A    between atoms: C3_8  and  O1_9 
REMARK    3  A    between atoms: O1_9  and  C4_10 
REMARK    4  A    between atoms: C4_10  and  C5_11 
REMARK    5  A    between atoms: C5_11  and  C6_12 
REMARK    6  A    between atoms: C6_12  and  N3_13 
REMARK    7  A    between atoms: C8_18  and  N4_19 
ROOT
HETATM    1  N1  UNL     1      41.292  64.382-150.871  1.00  0.00    -0.387 N 
ATOM      2  H11 UNL     1      42.095  64.009-151.378  1.00  0.00     0.157 HD
ATOM      3  H12 UNL     1      41.583  64.467-149.897  1.00  0.00     0.157 HD
HETATM    4  C1  UNL     1      40.130  64.696-151.327  1.00  0.00     0.102 C 
HETATM    5  N2  UNL     1      39.012  65.217-150.620  1.00  0.00    -0.372 N 
ATOM      6  H2  UNL     1      38.976  65.366-149.612  1.00  0.00     0.161 HD
HETATM    7  C2  UNL     1      37.929  65.506-151.541  1.00  0.00     0.109 C 
HETATM    8  C7  UNL     1      38.684  65.707-152.839  1.00  0.00     0.068 C 
HETATM    9  C8  UNL     1      39.708  64.573-152.745  1.00  0.00     0.251 C 
ENDROOT
BRANCH   7  10
HETATM   10  C3  UNL     1      37.191  66.776-151.138  1.00  0.00     0.192 C 
BRANCH  10  11
HETATM   11  O1  UNL     1      35.881  66.628-151.510  1.00  0.00    -0.389 OA
BRANCH  11  12
HETATM   12  C4  UNL     1      35.243  65.534-150.978  1.00  0.00     0.169 C 
BRANCH  12  13
HETATM   13  C5  UNL     1      34.176  65.866-149.987  1.00  0.00     0.053 C 
BRANCH  13  14
HETATM   14  C6  UNL     1      34.742  65.618-148.597  1.00  0.00     0.231 C 
BRANCH  14  15
HETATM   15  N3  UNL     1      35.951  64.852-148.633  1.00  0.00    -0.079 N 
ATOM     16  H33 UNL     1      36.230  64.560-147.697  1.00  0.00     0.274 HD
ATOM     17  H32 UNL     1      35.793  63.933-149.049  1.00  0.00     0.274 HD
ATOM     18  H31 UNL     1      36.707  65.345-149.106  1.00  0.00     0.274 HD
ENDBRANCH  14  15
ENDBRANCH  13  14
ENDBRANCH  12  13
ENDBRANCH  11  12
ENDBRANCH  10  11
ENDBRANCH   7  10
BRANCH   9  19
HETATM   19  N4  UNL     1      39.015  63.303-152.868  1.00  0.00    -0.068 N 
ATOM     20  H43 UNL     1      39.622  62.543-153.176  1.00  0.00     0.275 HD
ATOM     21  H42 UNL     1      38.751  62.900-151.969  1.00  0.00     0.275 HD
ATOM     22  H41 UNL     1      38.220  63.458-153.488  1.00  0.00     0.275 HD
ENDBRANCH   9  19
TORSDOF 7
ENDMDL
MODEL 2
REMARK VINA RESULT: -5.295473130      1.480      1.721
REMARK  7 active torsions:
REMARK  status: ('A' for Active; 'I' for Inactive)
REMARK    1  A    between atoms: C2_7  and  C3_8 
REMARK    2  A    between atoms: C3_8  and  O1_9 
REMARK    3  A    between atoms: O1_9  and  C4_10 
REMARK    4  A    between atoms: C4_10  and  C5_11 
REMARK    5  A    between atoms: C5_11  and  C6_12 
REMARK    6  A    between atoms: C6_12  and  N3_13 
REMARK    7  A    between atoms: C8_18  and  N4_19 
ROOT
HETATM    1  N1  UNL     1      39.921  62.595-153.291  1.00  0.00    -0.387 N 
ATOM      2  H11 UNL     1      40.341  62.124-154.093  1.00  0.00     0.157 HD
ATOM      3  H12 UNL     1      40.349  62.183-152.461  1.00  0.00     0.157 HD
HETATM    4  C1  UNL     1      39.030  63.523-153.282  1.00  0.00     0.102 C 
HETATM    5  N2  UNL     1      38.446  64.179-152.164  1.00  0.00    -0.372 N 
ATOM      6  H2  UNL     1      38.635  63.950-151.188  1.00  0.00     0.161 HD
HETATM    7  C2  UNL     1      37.543  65.222-152.613  1.00  0.00     0.109 C 
HETATM    8  C7  UNL     1      38.103  65.534-153.986  1.00  0.00     0.068 C 
HETATM    9  C8  UNL     1      38.408  64.122-154.489  1.00  0.00     0.251 C 
ENDROOT
BRANCH   7  10
HETATM   10  C3  UNL     1      37.621  66.442-151.703  1.00  0.00     0.192 C 
BRANCH  10  11
HETATM   11  O1  UNL     1      36.338  66.861-151.465  1.00  0.00    -0.389 OA
BRANCH  11  12
HETATM   12  C4  UNL     1      35.443  65.862-151.170  1.00  0.00     0.169 C 
BRANCH  12  13
HETATM   13  C5  UNL     1      34.640  66.101-149.933  1.00  0.00     0.053 C 
BRANCH  13  14
HETATM   14  C6  UNL     1      35.225  65.238-148.827  1.00  0.00     0.231 C 
BRANCH  14  15
HETATM   15  N3  UNL     1      36.298  64.412-149.294  1.00  0.00    -0.079 N 
ATOM     16  H33 UNL     1      35.965  63.718-149.963  1.00  0.00     0.274 HD
ATOM     17  H32 UNL     1      36.928  64.935-149.903  1.00  0.00     0.274 HD
ATOM     18  H31 UNL     1      36.807  63.971-148.529  1.00  0.00     0.274 HD
ENDBRANCH  14  15
ENDBRANCH  13  14
ENDBRANCH  12  13
ENDBRANCH  11  12
ENDBRANCH  10  11
ENDBRANCH   7  10
BRANCH   9  19
HETATM   19  N4  UNL     1      37.156  63.419-154.709  1.00  0.00    -0.068 N 
ATOM     20  H43 UNL     1      37.284  62.438-154.954  1.00  0.00     0.275 HD
ATOM     21  H42 UNL     1      36.624  63.269-153.852  1.00  0.00     0.275 HD
ATOM     22  H41 UNL     1      36.641  63.947-155.415  1.00  0.00     0.275 HD
ENDBRANCH   9  19
TORSDOF 7
ENDMDL
MODEL 3
REMARK VINA RESULT: -5.191376661      1.880      2.306
REMARK  7 active torsions:
REMARK  status: ('A' for Active; 'I' for Inactive)
REMARK    1  A    between atoms: C2_7  and  C3_8 
REMARK    2  A    between atoms: C3_8  and  O1_9 
REMARK    3  A    between atoms: O1_9  and  C4_10 
REMARK    4  A    between atoms: C4_10  and  C5_11 
REMARK    5  A    between atoms: C5_11  and  C6_12 
REMARK    6  A    between atoms: C6_12  and  N3_13 
REMARK    7  A    between atoms: C8_18  and  N4_19 
ROOT
HETATM    1  N1  UNL     1      39.784  62.554-153.110  1.00  0.00    -0.387 N 
ATOM      2  H11 UNL     1      40.646  62.430-153.641  1.00  0.00     0.157 HD
ATOM      3  H12 UNL     1      39.923  62.071-152.222  1.00  0.00     0.157 HD
HETATM    4  C1  UNL     1      38.715  63.183-153.452  1.00  0.00     0.102 C 
HETATM    5  N2  UNL     1      37.513  63.357-152.711  1.00  0.00    -0.372 N 
ATOM      6  H2  UNL     1      37.326  62.944-151.797  1.00  0.00     0.161 HD
HETATM    7  C2  UNL     1      36.594  64.207-153.443  1.00  0.00     0.109 C 
HETATM    8  C7  UNL     1      37.545  64.992-154.322  1.00  0.00     0.068 C 
HETATM    9  C8  UNL     1      38.513  63.886-154.744  1.00  0.00     0.251 C 
ENDROOT
BRANCH   7  10
HETATM   10  C3  UNL     1      35.834  65.131-152.500  1.00  0.00     0.192 C 
BRANCH  10  11
HETATM   11  O1  UNL     1      36.737  66.016-151.973  1.00  0.00    -0.389 OA
BRANCH  11  12
HETATM   12  C4  UNL     1      36.398  66.537-150.749  1.00  0.00     0.169 C 
BRANCH  12  13
HETATM   13  C5  UNL     1      35.180  65.925-150.136  1.00  0.00     0.053 C 
BRANCH  13  14
HETATM   14  C6  UNL     1      35.625  65.134-148.915  1.00  0.00     0.231 C 
BRANCH  14  15
HETATM   15  N3  UNL     1      36.865  64.453-149.133  1.00  0.00    -0.079 N 
ATOM     16  H33 UNL     1      37.225  64.056-148.266  1.00  0.00     0.274 HD
ATOM     17  H32 UNL     1      36.725  63.590-149.660  1.00  0.00     0.274 HD
ATOM     18  H31 UNL     1      37.560  65.049-149.581  1.00  0.00     0.274 HD
ENDBRANCH  14  15
ENDBRANCH  13  14
ENDBRANCH  12  13
ENDBRANCH  11  12
ENDBRANCH  10  11
ENDBRANCH   7  10
BRANCH   9  19
HETATM   19  N4  UNL     1      37.818  62.960-155.621  1.00  0.00    -0.068 N 
ATOM     20  H43 UNL     1      37.372  62.191-155.121  1.00  0.00     0.275 HD
ATOM     21  H42 UNL     1      36.971  63.355-156.032  1.00  0.00     0.275 HD
ATOM     22  H41 UNL     1      38.494  62.648-156.318  1.00  0.00     0.275 HD
ENDBRANCH   9  19
TORSDOF 7
ENDMDL
MODEL 4
REMARK VINA RESULT: -5.040752369      2.756      5.416
REMARK  7 active torsions:
REMARK  status: ('A' for Active; 'I' for Inactive)
REMARK    1  A    between atoms: C2_7  and  C3_8 
REMARK    2  A    between atoms: C3_8  and  O1_9 
REMARK    3  A    between atoms: O1_9  and  C4_10 
REMARK    4  A    between atoms: C4_10  and  C5_11 
REMARK    5  A    between atoms: C5_11  and  C6_12 
REMARK    6  A    between atoms: C6_12  and  N3_13 
REMARK    7  A    between atoms: C8_18  and  N4_19 
ROOT
HETATM    1  N1  UNL     1      36.748  64.688-148.915  1.00  0.00    -0.387 N 
ATOM      2  H11 UNL     1      36.005  64.670-148.217  1.00  0.00     0.157 HD
ATOM      3  H12 UNL     1      37.627  64.614-148.401  1.00  0.00     0.157 HD
HETATM    4  C1  UNL     1      36.645  64.783-150.194  1.00  0.00     0.102 C 
HETATM    5  N2  UNL     1      37.682  64.807-151.168  1.00  0.00    -0.372 N 
ATOM      6  H2  UNL     1      38.680  64.801-150.958  1.00  0.00     0.161 HD
HETATM    7  C2  UNL     1      37.113  64.841-152.502  1.00  0.00     0.109 C 
HETATM    8  C7  UNL     1      35.752  64.221-152.264  1.00  0.00     0.068 C 
HETATM    9  C8  UNL     1      35.368  64.889-150.943  1.00  0.00     0.251 C 
ENDROOT
BRANCH   7  10
HETATM   10  C3  UNL     1      37.935  63.997-153.468  1.00  0.00     0.192 C 
BRANCH  10  11
HETATM   11  O1  UNL     1      37.540  62.694-153.317  1.00  0.00    -0.389 OA
BRANCH  11  12
HETATM   12  C4  UNL     1      38.361  61.763-153.904  1.00  0.00     0.169 C 
BRANCH  12  13
HETATM   13  C5  UNL     1      39.809  61.921-153.569  1.00  0.00     0.053 C 
BRANCH  13  14
HETATM   14  C6  UNL     1      40.433  60.534-153.546  1.00  0.00     0.231 C 
BRANCH  14  15
HETATM   15  N3  UNL     1      39.484  59.508-153.856  1.00  0.00    -0.079 N 
ATOM     16  H33 UNL     1      38.752  59.857-154.473  1.00  0.00     0.274 HD
ATOM     17  H32 UNL     1      39.892  58.802-154.471  1.00  0.00     0.274 HD
ATOM     18  H31 UNL     1      39.088  59.082-153.019  1.00  0.00     0.274 HD
ENDBRANCH  14  15
ENDBRANCH  13  14
ENDBRANCH  12  13
ENDBRANCH  11  12
ENDBRANCH  10  11
ENDBRANCH   7  10
BRANCH   9  19
HETATM   19  N4  UNL     1      35.137  66.303-151.180  1.00  0.00    -0.068 N 
ATOM     20  H43 UNL     1      34.243  66.494-151.634  1.00  0.00     0.275 HD
ATOM     21  H42 UNL     1      34.961  66.831-150.325  1.00  0.00     0.275 HD
ATOM     22  H41 UNL     1      35.938  66.649-151.709  1.00  0.00     0.275 HD
ENDBRANCH   9  19
TORSDOF 7
ENDMDL
MODEL 5
REMARK VINA RESULT: -5.015541873      1.990      2.749
REMARK  7 active torsions:
REMARK  status: ('A' for Active; 'I' for Inactive)
REMARK    1  A    between atoms: C2_7  and  C3_8 
REMARK    2  A    between atoms: C3_8  and  O1_9 
REMARK    3  A    between atoms: O1_9  and  C4_10 
REMARK    4  A    between atoms: C4_10  and  C5_11 
REMARK    5  A    between atoms: C5_11  and  C6_12 
REMARK    6  A    between atoms: C6_12  and  N3_13 
REMARK    7  A    between atoms: C8_18  and  N4_19 
ROOT
HETATM    1  N1  UNL     1      38.361  61.037-154.200  1.00  0.00    -0.387 N 
ATOM      2  H11 UNL     1      39.243  60.527-154.237  1.00  0.00     0.157 HD
ATOM      3  H12 UNL     1      37.625  60.351-154.369  1.00  0.00     0.157 HD
HETATM    4  C1  UNL     1      38.168  62.292-153.986  1.00  0.00     0.102 C 
HETATM    5  N2  UNL     1      36.937  63.003-153.934  1.00  0.00    -0.372 N 
ATOM      6  H2  UNL     1      36.020  62.596-154.116  1.00  0.00     0.161 HD
HETATM    7  C2  UNL     1      37.177  64.390-153.584  1.00  0.00     0.109 C 
HETATM    8  C7  UNL     1      38.498  64.291-152.850  1.00  0.00     0.068 C 
HETATM    9  C8  UNL     1      39.238  63.291-153.740  1.00  0.00     0.251 C 
ENDROOT
BRANCH   7  10
HETATM   10  C3  UNL     1      36.081  64.920-152.667  1.00  0.00     0.192 C 
BRANCH  10  11
HETATM   11  O1  UNL     1      36.603  65.977-151.969  1.00  0.00    -0.389 OA
BRANCH  11  12
HETATM   12  C4  UNL     1      35.881  66.363-150.868  1.00  0.00     0.169 C 
BRANCH  12  13
HETATM   13  C5  UNL     1      35.072  65.270-150.248  1.00  0.00     0.053 C 
BRANCH  13  14
HETATM   14  C6  UNL     1      35.798  64.812-148.993  1.00  0.00     0.231 C 
BRANCH  14  15
HETATM   15  N3  UNL     1      37.205  64.657-149.206  1.00  0.00    -0.079 N 
ATOM     16  H33 UNL     1      37.518  63.723-148.941  1.00  0.00     0.274 HD
ATOM     17  H32 UNL     1      37.426  64.626-150.202  1.00  0.00     0.274 HD
ATOM     18  H31 UNL     1      37.750  65.376-148.731  1.00  0.00     0.274 HD
ENDBRANCH  14  15
ENDBRANCH  13  14
ENDBRANCH  12  13
ENDBRANCH  11  12
ENDBRANCH  10  11
ENDBRANCH   7  10
BRANCH   9  19
HETATM   19  N4  UNL     1      39.527  63.920-155.016  1.00  0.00    -0.068 N 
ATOM     20  H43 UNL     1      39.408  63.292-155.810  1.00  0.00     0.275 HD
ATOM     21  H42 UNL     1      38.827  64.610-155.292  1.00  0.00     0.275 HD
ATOM     22  H41 UNL     1      40.468  64.308-154.948  1.00  0.00     0.275 HD
ENDBRANCH   9  19
TORSDOF 7
ENDMDL
