MODEL 1
REMARK VINA RESULT: -5.257359080      0.000      0.000
REMARK  7 active torsions:
REMARK  status: ('A' for Active; 'I' for Inactive)
REMARK    1  A    between atoms: N4_11  and  C4_12 
REMARK    2  A    between atoms: C4_12  and  C5_13 
REMARK    3  A    between atoms: C5_13  and  N5_14 
REMARK    4  A    between atoms: C5_13  and  C6_18 
REMARK    5  A    between atoms: C6_18  and  C7_19 
REMARK    6  A    between atoms: C7_19  and  C8_20 
REMARK    7  A    between atoms: C8_20  and  N6_21 
ROOT
HETATM    1  C4  UNL     1      37.711  65.981-151.693  1.00  0.00     0.175 C 
ENDROOT
BRANCH   1   2
HETATM    2  N4  UNL     1      36.548  65.700-150.919  1.00  0.00    -0.200 N 
HETATM    3  C1  UNL     1      36.683  65.195-149.599  1.00  0.00     0.676 C 
HETATM    4  N1  UNL     1      37.787  64.658-149.168  1.00  0.00    -0.234 N 
HETATM    5  N2  UNL     1      35.616  65.226-148.629  1.00  0.00    -0.189 N 
ATOM      6  H12 UNL     1      37.884  64.295-148.220  1.00  0.00     0.174 HD
ATOM      7  H11 UNL     1      38.541  64.636-149.854  1.00  0.00     0.174 HD
HETATM    8  C2  UNL     1      34.500  65.740-148.997  1.00  0.00     0.195 C 
ATOM      9  H2  UNL     1      35.743  64.854-147.688  1.00  0.00     0.184 HD
HETATM   10  N3  UNL     1      34.303  66.260-150.303  1.00  0.00    -0.369 N 
HETATM   11  C3  UNL     1      35.186  65.897-151.400  1.00  0.00     0.265 C 
ATOM     12  H3  UNL     1      33.528  66.902-150.474  1.00  0.00     0.161 HD
ENDBRANCH   1   2
BRANCH   1  13
HETATM   13  C5  UNL     1      37.963  65.035-152.823  1.00  0.00     0.202 C 
BRANCH  13  14
HETATM   14  N5  UNL     1      37.601  63.707-152.625  1.00  0.00    -0.073 N 
ATOM     15  H53 UNL     1      36.650  63.664-152.261  1.00  0.00     0.274 HD
ATOM     16  H52 UNL     1      37.479  63.249-153.528  1.00  0.00     0.274 HD
ATOM     17  H51 UNL     1      38.216  63.143-152.039  1.00  0.00     0.274 HD
ENDBRANCH  13  14
BRANCH  13  18
HETATM   18  C6  UNL     1      39.428  65.102-153.200  1.00  0.00     0.036 C 
BRANCH  18  19
HETATM   19  C7  UNL     1      40.218  63.959-152.612  1.00  0.00     0.029 C 
BRANCH  19  20
HETATM   20  C8  UNL     1      41.418  64.425-151.836  1.00  0.00     0.229 C 
BRANCH  20  21
HETATM   21  N6  UNL     1      41.116  64.602-150.429  1.00  0.00    -0.079 N 
ATOM     22  H63 UNL     1      40.636  63.786-150.047  1.00  0.00     0.274 HD
ATOM     23  H62 UNL     1      41.962  64.570-149.861  1.00  0.00     0.274 HD
ATOM     24  H61 UNL     1      40.586  65.456-150.257  1.00  0.00     0.274 HD
ENDBRANCH  20  21
ENDBRANCH  19  20
ENDBRANCH  18  19
ENDBRANCH  13  18
ENDBRANCH   1  13
TORSDOF 7
ENDMDL
MODEL 2
REMARK VINA RESULT: -5.255514469      1.475      4.944
REMARK  7 active torsions:
REMARK  status: ('A' for Active; 'I' for Inactive)
REMARK    1  A    between atoms: N4_11  and  C4_12 
REMARK    2  A    between atoms: C4_12  and  C5_13 
REMARK    3  A    between atoms: C5_13  and  N5_14 
REMARK    4  A    between atoms: C5_13  and  C6_18 
REMARK    5  A    between atoms: C6_18  and  C7_19 
REMARK    6  A    between atoms: C7_19  and  C8_20 
REMARK    7  A    between atoms: C8_20  and  N6_21 
ROOT
HETATM    1  C4  UNL     1      37.787  65.238-152.711  1.00  0.00     0.175 C 
ENDROOT
BRANCH   1   2
HETATM    2  N4  UNL     1      39.159  65.070-152.361  1.00  0.00    -0.200 N 
HETATM    3  C1  UNL     1      39.531  64.955-150.995  1.00  0.00     0.676 C 
HETATM    4  N1  UNL     1      38.746  65.326-150.026  1.00  0.00    -0.234 N 
HETATM    5  N2  UNL     1      40.803  64.429-150.566  1.00  0.00    -0.189 N 
ATOM      6  H12 UNL     1      39.014  65.243-149.045  1.00  0.00     0.174 HD
ATOM      7  H11 UNL     1      37.847  65.698-150.330  1.00  0.00     0.174 HD
HETATM    8  C2  UNL     1      41.623  64.050-151.477  1.00  0.00     0.195 C 
ATOM      9  H2  UNL     1      41.042  64.359-149.577  1.00  0.00     0.184 HD
HETATM   10  N3  UNL     1      41.309  64.141-152.858  1.00  0.00    -0.369 N 
HETATM   11  C3  UNL     1      40.243  65.008-153.334  1.00  0.00     0.265 C 
ATOM     12  H3  UNL     1      41.841  63.587-153.530  1.00  0.00     0.161 HD
ENDBRANCH   1   2
BRANCH   1  13
HETATM   13  C5  UNL     1      37.002  63.971-152.820  1.00  0.00     0.202 C 
BRANCH  13  14
HETATM   14  N5  UNL     1      36.617  63.578-154.098  1.00  0.00    -0.073 N 
ATOM     15  H53 UNL     1      35.862  62.896-154.030  1.00  0.00     0.274 HD
ATOM     16  H52 UNL     1      36.134  64.348-154.561  1.00  0.00     0.274 HD
ATOM     17  H51 UNL     1      37.348  63.217-154.710  1.00  0.00     0.274 HD
ENDBRANCH  13  14
BRANCH  13  18
HETATM   18  C6  UNL     1      35.774  64.079-151.941  1.00  0.00     0.036 C 
BRANCH  18  19
HETATM   19  C7  UNL     1      35.475  65.506-151.555  1.00  0.00     0.029 C 
BRANCH  19  20
HETATM   20  C8  UNL     1      34.723  65.610-150.258  1.00  0.00     0.229 C 
BRANCH  20  21
HETATM   21  N6  UNL     1      35.091  66.798-149.513  1.00  0.00    -0.079 N 
ATOM     22  H63 UNL     1      34.834  66.714-148.529  1.00  0.00     0.274 HD
ATOM     23  H62 UNL     1      36.103  66.872-149.408  1.00  0.00     0.274 HD
ATOM     24  H61 UNL     1      34.700  67.643-149.928  1.00  0.00     0.274 HD
ENDBRANCH  20  21
ENDBRANCH  19  20
ENDBRANCH  18  19
ENDBRANCH  13  18
ENDBRANCH   1  13
TORSDOF 7
ENDMDL
MODEL 3
REMARK VINA RESULT: -5.185837631      1.524      5.313
REMARK  7 active torsions:
REMARK  status: ('A' for Active; 'I' for Inactive)
REMARK    1  A    between atoms: N4_11  and  C4_12 
REMARK    2  A    between atoms: C4_12  and  C5_13 
REMARK    3  A    between atoms: C5_13  and  N5_14 
REMARK    4  A    between atoms: C5_13  and  C6_18 
REMARK    5  A    between atoms: C6_18  and  C7_19 
REMARK    6  A    between atoms: C7_19  and  C8_20 
REMARK    7  A    between atoms: C8_20  and  N6_21 
ROOT
HETATM    1  C4  UNL     1      37.700  65.678-152.440  1.00  0.00     0.175 C 
ENDROOT
BRANCH   1   2
HETATM    2  N4  UNL     1      38.265  64.411-152.768  1.00  0.00    -0.200 N 
HETATM    3  C1  UNL     1      37.429  63.361-153.229  1.00  0.00     0.676 C 
HETATM    4  N1  UNL     1      36.139  63.373-153.058  1.00  0.00    -0.234 N 
HETATM    5  N2  UNL     1      37.930  62.198-153.917  1.00  0.00    -0.189 N 
ATOM      6  H12 UNL     1      35.538  62.618-153.390  1.00  0.00     0.174 HD
ATOM      7  H11 UNL     1      35.785  64.196-152.572  1.00  0.00     0.174 HD
HETATM    8  C2  UNL     1      39.195  62.127-154.112  1.00  0.00     0.195 C 
ATOM      9  H2  UNL     1      37.303  61.459-154.237  1.00  0.00     0.184 HD
HETATM   10  N3  UNL     1      40.084  63.143-153.674  1.00  0.00    -0.369 N 
HETATM   11  C3  UNL     1      39.687  64.104-152.656  1.00  0.00     0.265 C 
ATOM     12  H3  UNL     1      41.018  63.202-154.080  1.00  0.00     0.161 HD
ENDBRANCH   1   2
BRANCH   1  13
HETATM   13  C5  UNL     1      37.696  66.011-150.983  1.00  0.00     0.202 C 
BRANCH  13  14
HETATM   14  N5  UNL     1      37.866  64.955-150.094  1.00  0.00    -0.073 N 
ATOM     15  H53 UNL     1      36.955  64.566-149.850  1.00  0.00     0.274 HD
ATOM     16  H52 UNL     1      38.285  64.164-150.582  1.00  0.00     0.274 HD
ATOM     17  H51 UNL     1      38.393  65.148-149.242  1.00  0.00     0.274 HD
ENDBRANCH  13  14
BRANCH  13  18
HETATM   18  C6  UNL     1      36.411  66.741-150.650  1.00  0.00     0.036 C 
BRANCH  18  19
HETATM   19  C7  UNL     1      35.191  65.911-150.963  1.00  0.00     0.029 C 
BRANCH  19  20
HETATM   20  C8  UNL     1      34.178  65.930-149.853  1.00  0.00     0.229 C 
BRANCH  20  21
HETATM   21  N6  UNL     1      34.806  66.056-148.551  1.00  0.00    -0.079 N 
ATOM     22  H63 UNL     1      35.354  66.914-148.486  1.00  0.00     0.274 HD
ATOM     23  H62 UNL     1      34.117  66.251-147.825  1.00  0.00     0.274 HD
ATOM     24  H61 UNL     1      35.368  65.238-148.319  1.00  0.00     0.274 HD
ENDBRANCH  20  21
ENDBRANCH  19  20
ENDBRANCH  18  19
ENDBRANCH  13  18
ENDBRANCH   1  13
TORSDOF 7
ENDMDL
MODEL 4
REMARK VINA RESULT: -5.169708403      2.379      3.844
REMARK  7 active torsions:
REMARK  status: ('A' for Active; 'I' for Inactive)
REMARK    1  A    between atoms: N4_11  and  C4_12 
REMARK    2  A    between atoms: C4_12  and  C5_13 
REMARK    3  A    between atoms: C5_13  and  N5_14 
REMARK    4  A    between atoms: C5_13  and  C6_18 
REMARK    5  A    between atoms: C6_18  and  C7_19 
REMARK    6  A    between atoms: C7_19  and  C8_20 
REMARK    7  A    between atoms: C8_20  and  N6_21 
ROOT
HETATM    1  C4  UNL     1      39.188  64.355-153.482  1.00  0.00     0.175 C 
ENDROOT
BRANCH   1   2
HETATM    2  N4  UNL     1      38.001  64.599-152.732  1.00  0.00    -0.200 N 
HETATM    3  C1  UNL     1      36.760  64.073-153.180  1.00  0.00     0.676 C 
HETATM    4  N1  UNL     1      36.578  63.665-154.401  1.00  0.00    -0.234 N 
HETATM    5  N2  UNL     1      35.602  63.952-152.330  1.00  0.00    -0.189 N 
ATOM      6  H12 UNL     1      35.687  63.286-154.723  1.00  0.00     0.174 HD
ATOM      7  H11 UNL     1      37.398  63.750-155.002  1.00  0.00     0.174 HD
HETATM    8  C2  UNL     1      35.719  64.343-151.114  1.00  0.00     0.195 C 
ATOM      9  H2  UNL     1      34.724  63.570-152.682  1.00  0.00     0.184 HD
HETATM   10  N3  UNL     1      36.932  64.879-150.608  1.00  0.00    -0.369 N 
HETATM   11  C3  UNL     1      37.965  65.379-151.500  1.00  0.00     0.265 C 
ATOM     12  H3  UNL     1      37.081  64.913-149.599  1.00  0.00     0.161 HD
ENDBRANCH   1   2
BRANCH   1  13
HETATM   13  C5  UNL     1      39.889  63.076-153.159  1.00  0.00     0.202 C 
BRANCH  13  14
HETATM   14  N5  UNL     1      40.872  63.127-152.176  1.00  0.00    -0.073 N 
ATOM     15  H53 UNL     1      41.680  63.638-152.529  1.00  0.00     0.274 HD
ATOM     16  H52 UNL     1      40.570  63.747-151.424  1.00  0.00     0.274 HD
ATOM     17  H51 UNL     1      41.178  62.237-151.781  1.00  0.00     0.274 HD
ENDBRANCH  13  14
BRANCH  13  18
HETATM   18  C6  UNL     1      40.486  62.509-154.430  1.00  0.00     0.036 C 
BRANCH  18  19
HETATM   19  C7  UNL     1      39.519  61.609-155.159  1.00  0.00     0.029 C 
BRANCH  19  20
HETATM   20  C8  UNL     1      38.747  60.716-154.228  1.00  0.00     0.229 C 
BRANCH  20  21
HETATM   21  N6  UNL     1      39.480  59.506-153.909  1.00  0.00    -0.079 N 
ATOM     22  H63 UNL     1      38.848  58.722-153.745  1.00  0.00     0.274 HD
ATOM     23  H62 UNL     1      39.974  59.145-154.725  1.00  0.00     0.274 HD
ATOM     24  H61 UNL     1      40.114  59.641-153.122  1.00  0.00     0.274 HD
ENDBRANCH  20  21
ENDBRANCH  19  20
ENDBRANCH  18  19
ENDBRANCH  13  18
ENDBRANCH   1  13
TORSDOF 7
ENDMDL
MODEL 5
REMARK VINA RESULT: -5.155377130      1.589      2.947
REMARK  7 active torsions:
REMARK  status: ('A' for Active; 'I' for Inactive)
REMARK    1  A    between atoms: N4_11  and  C4_12 
REMARK    2  A    between atoms: C4_12  and  C5_13 
REMARK    3  A    between atoms: C5_13  and  N5_14 
REMARK    4  A    between atoms: C5_13  and  C6_18 
REMARK    5  A    between atoms: C6_18  and  C7_19 
REMARK    6  A    between atoms: C7_19  and  C8_20 
REMARK    7  A    between atoms: C8_20  and  N6_21 
ROOT
HETATM    1  C4  UNL     1      39.060  65.013-153.127  1.00  0.00     0.175 C 
ENDROOT
BRANCH   1   2
HETATM    2  N4  UNL     1      37.749  65.047-152.570  1.00  0.00    -0.200 N 
HETATM    3  C1  UNL     1      36.763  64.130-153.023  1.00  0.00     0.676 C 
HETATM    4  N1  UNL     1      36.881  63.481-154.144  1.00  0.00    -0.234 N 
HETATM    5  N2  UNL     1      35.555  63.844-152.290  1.00  0.00    -0.189 N 
ATOM      6  H12 UNL     1      36.173  62.821-154.469  1.00  0.00     0.174 HD
ATOM      7  H11 UNL     1      37.735  63.683-154.662  1.00  0.00     0.174 HD
HETATM    8  C2  UNL     1      35.381  64.458-151.178  1.00  0.00     0.195 C 
ATOM      9  H2  UNL     1      34.866  63.180-152.642  1.00  0.00     0.184 HD
HETATM   10  N3  UNL     1      36.328  65.387-150.673  1.00  0.00    -0.369 N 
HETATM   11  C3  UNL     1      37.329  65.989-151.539  1.00  0.00     0.265 C 
ATOM     12  H3  UNL     1      36.306  65.636-149.684  1.00  0.00     0.161 HD
ENDBRANCH   1   2
BRANCH   1  13
HETATM   13  C5  UNL     1      40.039  64.158-152.388  1.00  0.00     0.202 C 
BRANCH  13  14
HETATM   14  N5  UNL     1      40.281  64.484-151.057  1.00  0.00    -0.073 N 
ATOM     15  H53 UNL     1      40.762  65.381-151.009  1.00  0.00     0.274 HD
ATOM     16  H52 UNL     1      39.400  64.716-150.598  1.00  0.00     0.274 HD
ATOM     17  H51 UNL     1      40.785  63.796-150.497  1.00  0.00     0.274 HD
ENDBRANCH  13  14
BRANCH  13  18
HETATM   18  C6  UNL     1      41.351  64.150-153.144  1.00  0.00     0.036 C 
BRANCH  18  19
HETATM   19  C7  UNL     1      42.447  63.459-152.372  1.00  0.00     0.029 C 
BRANCH  19  20
HETATM   20  C8  UNL     1      43.750  64.207-152.425  1.00  0.00     0.229 C 
BRANCH  20  21
HETATM   21  N6  UNL     1      44.004  64.939-151.199  1.00  0.00    -0.079 N 
ATOM     22  H63 UNL     1      43.326  65.691-151.070  1.00  0.00     0.274 HD
ATOM     23  H62 UNL     1      43.779  64.378-150.378  1.00  0.00     0.274 HD
ATOM     24  H61 UNL     1      44.960  65.291-151.157  1.00  0.00     0.274 HD
ENDBRANCH  20  21
ENDBRANCH  19  20
ENDBRANCH  18  19
ENDBRANCH  13  18
ENDBRANCH   1  13
TORSDOF 7
ENDMDL
