MODEL 1
REMARK VINA RESULT: -4.549213336      0.000      0.000
REMARK  6 active torsions:
REMARK  status: ('A' for Active; 'I' for Inactive)
REMARK    1  A    between atoms: N1_2  and  C2_5 
REMARK    2  A    between atoms: C2_5  and  C3_6 
REMARK    3  A    between atoms: C3_6  and  N2_7 
REMARK    4  A    between atoms: N2_7  and  C4_9 
REMARK    5  A    between atoms: C4_9  and  C5_10 
REMARK    6  A    between atoms: C7_14  and  N4_15 
ROOT
HETATM    1  C5  UNL     1      37.355  65.556-151.725  1.00  0.00     0.011 A 
HETATM    2  C6  UNL     1      36.396  64.579-151.721  1.00  0.00     0.120 A 
HETATM    3  N3  UNL     1      35.253  64.763-151.023  1.00  0.00    -0.201 N 
ATOM      4  H3  UNL     1      34.539  64.035-151.020  1.00  0.00     0.183 HD
HETATM    5  C7  UNL     1      35.052  65.897-150.333  1.00  0.00     0.675 A 
HETATM    6  N5  UNL     1      35.986  66.865-150.329  1.00  0.00    -0.201 N 
ATOM      7  H5  UNL     1      35.821  67.722-149.801  1.00  0.00     0.183 HD
HETATM    8  C8  UNL     1      37.147  66.712-151.022  1.00  0.00     0.120 A 
ENDROOT
BRANCH   1   9
HETATM    9  C4  UNL     1      38.599  65.355-152.487  1.00  0.00     0.097 C 
BRANCH   9  10
HETATM   10  N2  UNL     1      39.067  64.048-152.326  1.00  0.00    -0.396 N 
ATOM     11  H2  UNL     1      39.095  63.616-151.403  1.00  0.00     0.158 HD
BRANCH  10  12
HETATM   12  C3  UNL     1      39.500  63.339-153.461  1.00  0.00     0.146 C 
BRANCH  12  13
HETATM   13  C2  UNL     1      38.348  62.450-153.939  1.00  0.00     0.251 C 
BRANCH  13  14
HETATM   14  N1  UNL     1      37.711  63.001-155.117  1.00  0.00    -0.077 N 
HETATM   15  C1  UNL     1      38.733  63.543-155.962  1.00  0.00     0.267 C 
ATOM     16  H12 UNL     1      36.984  63.680-154.891  1.00  0.00     0.276 HD
ATOM     17  H11 UNL     1      37.120  62.324-155.599  1.00  0.00     0.276 HD
ENDBRANCH  13  14
ENDBRANCH  12  13
ENDBRANCH  10  12
ENDBRANCH   9  10
ENDBRANCH   1   9
BRANCH   5  18
HETATM   18  N4  UNL     1      33.959  66.091-149.656  1.00  0.00    -0.234 N 
ATOM     19  H42 UNL     1      33.614  67.045-149.555  1.00  0.00     0.174 HD
ATOM     20  H41 UNL     1      33.452  65.312-149.234  1.00  0.00     0.174 HD
ENDBRANCH   5  18
TORSDOF 6
ENDMDL
MODEL 2
REMARK VINA RESULT: -4.544707276      0.046      1.304
REMARK  6 active torsions:
REMARK  status: ('A' for Active; 'I' for Inactive)
REMARK    1  A    between atoms: N1_2  and  C2_5 
REMARK    2  A    between atoms: C2_5  and  C3_6 
REMARK    3  A    between atoms: C3_6  and  N2_7 
REMARK    4  A    between atoms: N2_7  and  C4_9 
REMARK    5  A    between atoms: C4_9  and  C5_10 
REMARK    6  A    between atoms: C7_14  and  N4_15 
ROOT
HETATM    1  C5  UNL     1      37.307  65.547-151.734  1.00  0.00     0.011 A 
HETATM    2  C6  UNL     1      37.119  66.704-151.027  1.00  0.00     0.120 A 
HETATM    3  N3  UNL     1      35.980  66.882-150.321  1.00  0.00    -0.201 N 
ATOM      4  H3  UNL     1      35.839  67.744-149.794  1.00  0.00     0.183 HD
HETATM    5  C7  UNL     1      35.032  65.931-150.307  1.00  0.00     0.675 A 
HETATM    6  N5  UNL     1      35.205  64.789-150.996  1.00  0.00    -0.201 N 
ATOM      7  H5  UNL     1      34.478  64.074-150.978  1.00  0.00     0.183 HD
HETATM    8  C8  UNL     1      36.340  64.579-151.717  1.00  0.00     0.120 A 
ENDROOT
BRANCH   1   9
HETATM    9  C4  UNL     1      38.549  65.355-152.502  1.00  0.00     0.097 C 
BRANCH   9  10
HETATM   10  N2  UNL     1      39.047  64.062-152.317  1.00  0.00    -0.396 N 
ATOM     11  H2  UNL     1      39.105  63.657-151.383  1.00  0.00     0.158 HD
BRANCH  10  12
HETATM   12  C3  UNL     1      39.466  63.331-153.443  1.00  0.00     0.146 C 
BRANCH  12  13
HETATM   13  C2  UNL     1      38.301  62.450-153.902  1.00  0.00     0.251 C 
BRANCH  13  14
HETATM   14  N1  UNL     1      37.691  62.970-155.109  1.00  0.00    -0.077 N 
HETATM   15  C1  UNL     1      38.732  63.496-155.940  1.00  0.00     0.267 C 
ATOM     16  H12 UNL     1      36.956  63.651-154.917  1.00  0.00     0.276 HD
ATOM     17  H11 UNL     1      37.115  62.278-155.588  1.00  0.00     0.276 HD
ENDBRANCH  13  14
ENDBRANCH  12  13
ENDBRANCH  10  12
ENDBRANCH   9  10
ENDBRANCH   1   9
BRANCH   5  18
HETATM   18  N4  UNL     1      33.931  66.085-149.633  1.00  0.00    -0.234 N 
ATOM     19  H42 UNL     1      33.771  66.976-149.163  1.00  0.00     0.174 HD
ATOM     20  H41 UNL     1      33.238  65.338-149.572  1.00  0.00     0.174 HD
ENDBRANCH   5  18
TORSDOF 6
ENDMDL
MODEL 3
REMARK VINA RESULT: -4.527112894      1.458      5.463
REMARK  6 active torsions:
REMARK  status: ('A' for Active; 'I' for Inactive)
REMARK    1  A    between atoms: N1_2  and  C2_5 
REMARK    2  A    between atoms: C2_5  and  C3_6 
REMARK    3  A    between atoms: C3_6  and  N2_7 
REMARK    4  A    between atoms: N2_7  and  C4_9 
REMARK    5  A    between atoms: C4_9  and  C5_10 
REMARK    6  A    between atoms: C7_14  and  N4_15 
ROOT
HETATM    1  C5  UNL     1      38.005  64.666-152.865  1.00  0.00     0.011 A 
HETATM    2  C6  UNL     1      36.952  64.465-153.717  1.00  0.00     0.120 A 
HETATM    3  N3  UNL     1      37.051  63.544-154.701  1.00  0.00    -0.201 N 
ATOM      4  H3  UNL     1      36.267  63.393-155.336  1.00  0.00     0.183 HD
HETATM    5  C7  UNL     1      38.175  62.824-154.849  1.00  0.00     0.675 A 
HETATM    6  N5  UNL     1      39.217  63.012-154.020  1.00  0.00    -0.201 N 
ATOM      7  H5  UNL     1      40.066  62.460-154.142  1.00  0.00     0.183 HD
HETATM    8  C8  UNL     1      39.149  63.931-153.018  1.00  0.00     0.120 A 
ENDROOT
BRANCH   1   9
HETATM    9  C4  UNL     1      37.894  65.670-151.794  1.00  0.00     0.097 C 
BRANCH   9  10
HETATM   10  N2  UNL     1      37.630  65.053-150.568  1.00  0.00    -0.396 N 
ATOM     11  H2  UNL     1      38.393  64.713-149.983  1.00  0.00     0.158 HD
BRANCH  10  12
HETATM   12  C3  UNL     1      36.293  64.910-150.156  1.00  0.00     0.146 C 
BRANCH  12  13
HETATM   13  C2  UNL     1      35.504  66.119-150.664  1.00  0.00     0.251 C 
BRANCH  13  14
HETATM   14  N1  UNL     1      34.991  66.913-149.567  1.00  0.00    -0.077 N 
HETATM   15  C1  UNL     1      34.784  66.042-148.448  1.00  0.00     0.267 C 
ATOM     16  H12 UNL     1      34.153  67.438-149.818  1.00  0.00     0.276 HD
ATOM     17  H11 UNL     1      35.588  67.708-149.342  1.00  0.00     0.276 HD
ENDBRANCH  13  14
ENDBRANCH  12  13
ENDBRANCH  10  12
ENDBRANCH   9  10
ENDBRANCH   1   9
BRANCH   5  18
HETATM   18  N4  UNL     1      38.288  61.934-155.790  1.00  0.00    -0.234 N 
ATOM     19  H42 UNL     1      38.984  62.086-156.521  1.00  0.00     0.174 HD
ATOM     20  H41 UNL     1      37.699  61.100-155.804  1.00  0.00     0.174 HD
ENDBRANCH   5  18
TORSDOF 6
ENDMDL
MODEL 4
REMARK VINA RESULT: -4.519869509      1.701      5.723
REMARK  6 active torsions:
REMARK  status: ('A' for Active; 'I' for Inactive)
REMARK    1  A    between atoms: N1_2  and  C2_5 
REMARK    2  A    between atoms: C2_5  and  C3_6 
REMARK    3  A    between atoms: C3_6  and  N2_7 
REMARK    4  A    between atoms: N2_7  and  C4_9 
REMARK    5  A    between atoms: C4_9  and  C5_10 
REMARK    6  A    between atoms: C7_14  and  N4_15 
ROOT
HETATM    1  C5  UNL     1      38.093  63.697-153.261  1.00  0.00     0.011 A 
HETATM    2  C6  UNL     1      39.168  64.250-152.619  1.00  0.00     0.120 A 
HETATM    3  N3  UNL     1      40.321  63.551-152.516  1.00  0.00    -0.201 N 
ATOM      4  H3  UNL     1      41.122  63.963-152.037  1.00  0.00     0.183 HD
HETATM    5  C7  UNL     1      40.419  62.319-153.040  1.00  0.00     0.675 A 
HETATM    6  N5  UNL     1      39.371  61.764-153.674  1.00  0.00    -0.201 N 
ATOM      7  H5  UNL     1      39.457  60.827-154.068  1.00  0.00     0.183 HD
HETATM    8  C8  UNL     1      38.196  62.441-153.796  1.00  0.00     0.120 A 
ENDROOT
BRANCH   1   9
HETATM    9  C4  UNL     1      36.838  64.460-153.373  1.00  0.00     0.097 C 
BRANCH   9  10
HETATM   10  N2  UNL     1      35.848  63.898-152.562  1.00  0.00    -0.396 N 
ATOM     11  H2  UNL     1      35.229  63.173-152.926  1.00  0.00     0.158 HD
BRANCH  10  12
HETATM   12  C3  UNL     1      35.720  64.351-151.237  1.00  0.00     0.146 C 
BRANCH  12  13
HETATM   13  C2  UNL     1      35.911  65.870-151.230  1.00  0.00     0.251 C 
BRANCH  13  14
HETATM   14  N1  UNL     1      34.847  66.532-150.502  1.00  0.00    -0.077 N 
HETATM   15  C1  UNL     1      34.636  65.818-149.279  1.00  0.00     0.267 C 
ATOM     16  H12 UNL     1      33.995  66.631-151.054  1.00  0.00     0.276 HD
ATOM     17  H11 UNL     1      35.029  67.524-150.353  1.00  0.00     0.276 HD
ENDBRANCH  13  14
ENDBRANCH  12  13
ENDBRANCH  10  12
ENDBRANCH   9  10
ENDBRANCH   1   9
BRANCH   5  18
HETATM   18  N4  UNL     1      41.520  61.633-152.951  1.00  0.00    -0.234 N 
ATOM     19  H42 UNL     1      41.700  60.913-153.651  1.00  0.00     0.174 HD
ATOM     20  H41 UNL     1      42.192  61.805-152.203  1.00  0.00     0.174 HD
ENDBRANCH   5  18
TORSDOF 6
ENDMDL
MODEL 5
REMARK VINA RESULT: -4.519570800      1.760      2.355
REMARK  6 active torsions:
REMARK  status: ('A' for Active; 'I' for Inactive)
REMARK    1  A    between atoms: N1_2  and  C2_5 
REMARK    2  A    between atoms: C2_5  and  C3_6 
REMARK    3  A    between atoms: C3_6  and  N2_7 
REMARK    4  A    between atoms: N2_7  and  C4_9 
REMARK    5  A    between atoms: C4_9  and  C5_10 
REMARK    6  A    between atoms: C7_14  and  N4_15 
ROOT
HETATM    1  C5  UNL     1      36.989  64.316-152.407  1.00  0.00     0.011 A 
HETATM    2  C6  UNL     1      37.676  65.467-152.126  1.00  0.00     0.120 A 
HETATM    3  N3  UNL     1      37.150  66.369-151.267  1.00  0.00    -0.201 N 
ATOM      4  H3  UNL     1      37.662  67.226-151.057  1.00  0.00     0.183 HD
HETATM    5  C7  UNL     1      35.959  66.145-150.689  1.00  0.00     0.675 A 
HETATM    6  N5  UNL     1      35.274  65.020-150.956  1.00  0.00    -0.201 N 
ATOM      7  H5  UNL     1      34.370  64.861-150.511  1.00  0.00     0.183 HD
HETATM    8  C8  UNL     1      35.775  64.090-151.816  1.00  0.00     0.120 A 
ENDROOT
BRANCH   1   9
HETATM    9  C4  UNL     1      37.563  63.334-153.342  1.00  0.00     0.097 C 
BRANCH   9  10
HETATM   10  N2  UNL     1      38.896  63.068-153.018  1.00  0.00    -0.396 N 
ATOM     11  H2  UNL     1      39.330  63.506-152.205  1.00  0.00     0.158 HD
BRANCH  10  12
HETATM   12  C3  UNL     1      39.628  62.186-153.832  1.00  0.00     0.146 C 
BRANCH  12  13
HETATM   13  C2  UNL     1      38.753  60.963-154.119  1.00  0.00     0.251 C 
BRANCH  13  14
HETATM   14  N1  UNL     1      39.546  59.752-154.187  1.00  0.00    -0.077 N 
HETATM   15  C1  UNL     1      40.732  60.040-154.936  1.00  0.00     0.267 C 
ATOM     16  H12 UNL     1      39.024  58.960-154.563  1.00  0.00     0.276 HD
ATOM     17  H11 UNL     1      39.746  59.360-153.268  1.00  0.00     0.276 HD
ENDBRANCH  13  14
ENDBRANCH  12  13
ENDBRANCH  10  12
ENDBRANCH   9  10
ENDBRANCH   1   9
BRANCH   5  18
HETATM   18  N4  UNL     1      35.439  67.002-149.861  1.00  0.00    -0.234 N 
ATOM     19  H42 UNL     1      36.012  67.788-149.553  1.00  0.00     0.174 HD
ATOM     20  H41 UNL     1      34.481  66.899-149.523  1.00  0.00     0.174 HD
ENDBRANCH   5  18
TORSDOF 6
ENDMDL
