MODEL 1
REMARK VINA RESULT: -7.571109369      0.000      0.000
REMARK  9 active torsions:
REMARK  status: ('A' for Active; 'I' for Inactive)
REMARK    1  A    between atoms: C4_4  and  N1_5 
REMARK    2  A    between atoms: N1_5  and  C5_7 
REMARK    3  A    between atoms: C5_7  and  C6_8 
REMARK    4  A    between atoms: C7_11  and  S1_12 
REMARK    5  A    between atoms: S1_12  and  C8_13 
REMARK    6  A    between atoms: C8_13  and  C9_14 
REMARK    7  A    between atoms: C9_14  and  O1_15 
REMARK    8  A    between atoms: C11_21  and  N5_22 
REMARK    9  A    between atoms: C12_27  and  N7_28 
ROOT
HETATM    1  C1  UNL     1      45.668  29.922  20.051  1.00  0.00     0.068 C 
HETATM    2  C2  UNL     1      44.532  29.343  19.275  1.00  0.00     0.009 A 
HETATM    3  C3  UNL     1      43.330  29.070  19.904  1.00  0.00     0.054 A 
HETATM    4  C4  UNL     1      42.306  28.535  19.163  1.00  0.00     0.047 A 
HETATM    5  C10 UNL     1      42.529  28.294  17.810  1.00  0.00     0.079 A 
HETATM    6  C11 UNL     1      41.532  27.756  17.010  1.00  0.00     0.131 A 
HETATM    7  N6  UNL     1      41.758  27.527  15.705  1.00  0.00    -0.176 N 
ATOM      8  H6  UNL     1      41.006  27.130  15.142  1.00  0.00     0.186 HD
HETATM    9  C12 UNL     1      42.934  27.800  15.113  1.00  0.00     0.679 A 
HETATM   10  N8  UNL     1      43.903  28.323  15.889  1.00  0.00    -0.176 N 
ATOM     11  H8  UNL     1      44.804  28.538  15.463  1.00  0.00     0.186 HD
HETATM   12  C13 UNL     1      43.736  28.575  17.207  1.00  0.00     0.137 A 
HETATM   13  N9  UNL     1      44.713  29.097  17.966  1.00  0.00    -0.345 N 
ATOM     14  H9  UNL     1      45.614  29.311  17.539  1.00  0.00     0.167 HD
ENDROOT
BRANCH   4  15
HETATM   15  N1  UNL     1      41.160  28.251  19.661  1.00  0.00    -0.386 N 
ATOM     16  H1  UNL     1      40.682  27.401  19.364  1.00  0.00     0.159 HD
BRANCH  15  17
HETATM   17  C5  UNL     1      40.542  29.100  20.622  1.00  0.00     0.171 C 
BRANCH  17  18
HETATM   18  C6  UNL     1      39.032  29.150  20.527  1.00  0.00     0.314 C 
HETATM   19  N2  UNL     1      38.552  29.062  19.186  1.00  0.00    -0.110 NA
HETATM   20  N3  UNL     1      37.776  27.926  19.048  1.00  0.00    -0.102 NA
HETATM   21  C7  UNL     1      38.104  27.057  20.183  1.00  0.00     0.357 C 
HETATM   22  N4  UNL     1      38.529  27.980  21.219  1.00  0.00    -0.026 N 
ATOM     23  H42 UNL     1      39.197  27.577  21.875  1.00  0.00     0.282 HD
ATOM     24  H41 UNL     1      37.800  28.192  21.900  1.00  0.00     0.282 HD
BRANCH  21  25
HETATM   25  S1  UNL     1      36.623  26.171  20.742  1.00  0.00    -0.117 SA
BRANCH  25  26
HETATM   26  C8  UNL     1      35.475  27.370  21.499  1.00  0.00     0.103 C 
BRANCH  26  27
HETATM   27  C9  UNL     1      34.807  28.216  20.439  1.00  0.00     0.174 C 
BRANCH  27  28
HETATM   28  O1  UNL     1      35.597  29.350  20.256  1.00  0.00    -0.400 OA
ATOM     29  H1  UNL     1      35.665  29.498  19.321  1.00  0.00     0.209 HD
ENDBRANCH  27  28
ENDBRANCH  26  27
ENDBRANCH  25  26
ENDBRANCH  21  25
ENDBRANCH  17  18
ENDBRANCH  15  17
ENDBRANCH   4  15
BRANCH   6  30
HETATM   30  N5  UNL     1      40.398  27.482  17.535  1.00  0.00    -0.384 N 
ATOM     31  H52 UNL     1      39.849  28.208  17.996  1.00  0.00     0.157 HD
ATOM     32  H51 UNL     1      40.050  26.525  17.485  1.00  0.00     0.157 HD
ENDBRANCH   6  30
BRANCH   9  33
HETATM   33  N7  UNL     1      43.141  27.574  13.850  1.00  0.00    -0.234 N 
ATOM     34  H72 UNL     1      44.047  27.241  13.519  1.00  0.00     0.174 HD
ATOM     35  H71 UNL     1      42.417  27.717  13.145  1.00  0.00     0.174 HD
ENDBRANCH   9  33
TORSDOF 9
ENDMDL
MODEL 2
REMARK VINA RESULT: -7.553313108      4.117      6.766
REMARK  9 active torsions:
REMARK  status: ('A' for Active; 'I' for Inactive)
REMARK    1  A    between atoms: C4_4  and  N1_5 
REMARK    2  A    between atoms: N1_5  and  C5_7 
REMARK    3  A    between atoms: C5_7  and  C6_8 
REMARK    4  A    between atoms: C7_11  and  S1_12 
REMARK    5  A    between atoms: S1_12  and  C8_13 
REMARK    6  A    between atoms: C8_13  and  C9_14 
REMARK    7  A    between atoms: C9_14  and  O1_15 
REMARK    8  A    between atoms: C11_21  and  N5_22 
REMARK    9  A    between atoms: C12_27  and  N7_28 
ROOT
HETATM    1  C1  UNL     1      38.709  27.648  20.031  1.00  0.00     0.068 C 
HETATM    2  C2  UNL     1      39.980  27.916  19.296  1.00  0.00     0.009 A 
HETATM    3  C3  UNL     1      41.050  28.501  19.950  1.00  0.00     0.054 A 
HETATM    4  C4  UNL     1      42.204  28.736  19.245  1.00  0.00     0.047 A 
HETATM    5  C10 UNL     1      42.240  28.371  17.901  1.00  0.00     0.079 A 
HETATM    6  C11 UNL     1      43.377  28.583  17.138  1.00  0.00     0.131 A 
HETATM    7  N6  UNL     1      43.401  28.228  15.842  1.00  0.00    -0.176 N 
ATOM      8  H6  UNL     1      44.252  28.396  15.305  1.00  0.00     0.186 HD
HETATM    9  C12 UNL     1      42.351  27.660  15.224  1.00  0.00     0.679 A 
HETATM   10  N8  UNL     1      41.244  27.454  15.966  1.00  0.00    -0.176 N 
ATOM     11  H8  UNL     1      40.433  27.025  15.520  1.00  0.00     0.186 HD
HETATM   12  C13 UNL     1      41.160  27.790  17.273  1.00  0.00     0.137 A 
HETATM   13  N9  UNL     1      40.049  27.578  17.996  1.00  0.00    -0.345 N 
ATOM     14  H9  UNL     1      39.239  27.149  17.549  1.00  0.00     0.167 HD
ENDROOT
BRANCH   4  15
HETATM   15  N1  UNL     1      43.244  29.272  19.768  1.00  0.00    -0.386 N 
ATOM     16  H1  UNL     1      43.621  30.129  19.365  1.00  0.00     0.159 HD
BRANCH  15  17
HETATM   17  C5  UNL     1      43.881  28.693  20.902  1.00  0.00     0.171 C 
BRANCH  17  18
HETATM   18  C6  UNL     1      45.178  29.366  21.296  1.00  0.00     0.314 C 
HETATM   19  N2  UNL     1      45.573  30.396  20.389  1.00  0.00    -0.110 NA
HETATM   20  N3  UNL     1      45.611  31.606  21.055  1.00  0.00    -0.102 NA
HETATM   21  C7  UNL     1      44.831  31.431  22.285  1.00  0.00     0.357 C 
HETATM   22  N4  UNL     1      44.945  30.013  22.571  1.00  0.00    -0.026 N 
ATOM     23  H42 UNL     1      44.145  29.636  23.079  1.00  0.00     0.282 HD
ATOM     24  H41 UNL     1      45.651  29.795  23.274  1.00  0.00     0.282 HD
BRANCH  21  25
HETATM   25  S1  UNL     1      45.577  32.378  23.640  1.00  0.00    -0.117 SA
BRANCH  25  26
HETATM   26  C8  UNL     1      46.936  31.397  24.361  1.00  0.00     0.103 C 
BRANCH  26  27
HETATM   27  C9  UNL     1      48.221  31.618  23.597  1.00  0.00     0.174 C 
BRANCH  27  28
HETATM   28  O1  UNL     1      48.104  30.941  22.384  1.00  0.00    -0.400 OA
ATOM     29  H1  UNL     1      48.477  30.076  22.507  1.00  0.00     0.209 HD
ENDBRANCH  27  28
ENDBRANCH  26  27
ENDBRANCH  25  26
ENDBRANCH  21  25
ENDBRANCH  17  18
ENDBRANCH  15  17
ENDBRANCH   4  15
BRANCH   6  30
HETATM   30  N5  UNL     1      44.400  29.121  17.687  1.00  0.00    -0.384 N 
ATOM     31  H52 UNL     1      44.411  29.317  18.688  1.00  0.00     0.157 HD
ATOM     32  H51 UNL     1      45.208  29.350  17.108  1.00  0.00     0.157 HD
ENDBRANCH   6  30
BRANCH   9  33
HETATM   33  N7  UNL     1      42.385  27.322  13.970  1.00  0.00    -0.234 N 
ATOM     34  H72 UNL     1      43.252  27.379  13.436  1.00  0.00     0.174 HD
ATOM     35  H71 UNL     1      41.558  26.988  13.474  1.00  0.00     0.174 HD
ENDBRANCH   9  33
TORSDOF 9
ENDMDL
MODEL 3
REMARK VINA RESULT: -7.445218278      3.203      3.920
REMARK  9 active torsions:
REMARK  status: ('A' for Active; 'I' for Inactive)
REMARK    1  A    between atoms: C4_4  and  N1_5 
REMARK    2  A    between atoms: N1_5  and  C5_7 
REMARK    3  A    between atoms: C5_7  and  C6_8 
REMARK    4  A    between atoms: C7_11  and  S1_12 
REMARK    5  A    between atoms: S1_12  and  C8_13 
REMARK    6  A    between atoms: C8_13  and  C9_14 
REMARK    7  A    between atoms: C9_14  and  O1_15 
REMARK    8  A    between atoms: C11_21  and  N5_22 
REMARK    9  A    between atoms: C12_27  and  N7_28 
ROOT
HETATM    1  C1  UNL     1      45.618  29.926  20.201  1.00  0.00     0.068 C 
HETATM    2  C2  UNL     1      44.413  29.386  19.505  1.00  0.00     0.009 A 
HETATM    3  C3  UNL     1      43.253  29.137  20.218  1.00  0.00     0.054 A 
HETATM    4  C4  UNL     1      42.164  28.639  19.549  1.00  0.00     0.047 A 
HETATM    5  C10 UNL     1      42.280  28.409  18.180  1.00  0.00     0.079 A 
HETATM    6  C11 UNL     1      41.214  27.908  17.451  1.00  0.00     0.131 A 
HETATM    7  N6  UNL     1      41.337  27.689  16.130  1.00  0.00    -0.176 N 
ATOM      8  H6  UNL     1      40.535  27.319  15.619  1.00  0.00     0.186 HD
HETATM    9  C12 UNL     1      42.473  27.938  15.456  1.00  0.00     0.679 A 
HETATM   10  N8  UNL     1      43.511  28.426  16.164  1.00  0.00    -0.176 N 
ATOM     11  H8  UNL     1      44.384  28.623  15.675  1.00  0.00     0.186 HD
HETATM   12  C13 UNL     1      43.447  28.666  17.493  1.00  0.00     0.137 A 
HETATM   13  N9  UNL     1      44.491  29.151  18.184  1.00  0.00    -0.345 N 
ATOM     14  H9  UNL     1      45.364  29.348  17.694  1.00  0.00     0.167 HD
ENDROOT
BRANCH   4  15
HETATM   15  N1  UNL     1      41.050  28.379  20.127  1.00  0.00    -0.386 N 
ATOM     16  H1  UNL     1      40.531  27.543  19.860  1.00  0.00     0.159 HD
BRANCH  15  17
HETATM   17  C5  UNL     1      40.524  29.235  21.134  1.00  0.00     0.171 C 
BRANCH  17  18
HETATM   18  C6  UNL     1      40.124  30.608  20.637  1.00  0.00     0.314 C 
HETATM   19  N2  UNL     1      38.742  30.697  20.290  1.00  0.00    -0.110 NA
HETATM   20  N3  UNL     1      38.123  31.631  21.100  1.00  0.00    -0.102 NA
HETATM   21  C7  UNL     1      39.008  31.837  22.252  1.00  0.00     0.357 C 
HETATM   22  N4  UNL     1      40.329  31.529  21.736  1.00  0.00    -0.026 N 
ATOM     23  H42 UNL     1      40.972  31.179  22.446  1.00  0.00     0.282 HD
ATOM     24  H41 UNL     1      40.869  32.356  21.479  1.00  0.00     0.282 HD
BRANCH  21  25
HETATM   25  S1  UNL     1      38.959  33.571  22.778  1.00  0.00    -0.117 SA
BRANCH  25  26
HETATM   26  C8  UNL     1      40.606  34.038  23.408  1.00  0.00     0.103 C 
BRANCH  26  27
HETATM   27  C9  UNL     1      41.324  34.932  22.423  1.00  0.00     0.174 C 
BRANCH  27  28
HETATM   28  O1  UNL     1      42.022  34.105  21.545  1.00  0.00    -0.400 OA
ATOM     29  H1  UNL     1      41.751  33.212  21.724  1.00  0.00     0.209 HD
ENDBRANCH  27  28
ENDBRANCH  26  27
ENDBRANCH  25  26
ENDBRANCH  21  25
ENDBRANCH  17  18
ENDBRANCH  15  17
ENDBRANCH   4  15
BRANCH   6  30
HETATM   30  N5  UNL     1      40.114  27.657  18.054  1.00  0.00    -0.384 N 
ATOM     31  H52 UNL     1      39.893  28.109  18.942  1.00  0.00     0.157 HD
ATOM     32  H51 UNL     1      39.460  26.998  17.634  1.00  0.00     0.157 HD
ENDBRANCH   6  30
BRANCH   9  33
HETATM   33  N7  UNL     1      42.581  27.723  14.178  1.00  0.00    -0.234 N 
ATOM     34  H72 UNL     1      43.323  28.163  13.634  1.00  0.00     0.174 HD
ATOM     35  H71 UNL     1      41.938  27.113  13.674  1.00  0.00     0.174 HD
ENDBRANCH   9  33
TORSDOF 9
ENDMDL
MODEL 4
REMARK VINA RESULT: -7.378619148      3.334      7.732
REMARK  9 active torsions:
REMARK  status: ('A' for Active; 'I' for Inactive)
REMARK    1  A    between atoms: C4_4  and  N1_5 
REMARK    2  A    between atoms: N1_5  and  C5_7 
REMARK    3  A    between atoms: C5_7  and  C6_8 
REMARK    4  A    between atoms: C7_11  and  S1_12 
REMARK    5  A    between atoms: S1_12  and  C8_13 
REMARK    6  A    between atoms: C8_13  and  C9_14 
REMARK    7  A    between atoms: C9_14  and  O1_15 
REMARK    8  A    between atoms: C11_21  and  N5_22 
REMARK    9  A    between atoms: C12_27  and  N7_28 
ROOT
HETATM    1  C1  UNL     1      37.704  25.345  20.288  1.00  0.00     0.068 C 
HETATM    2  C2  UNL     1      37.624  26.720  20.864  1.00  0.00     0.009 A 
HETATM    3  C3  UNL     1      38.005  27.813  20.106  1.00  0.00     0.054 A 
HETATM    4  C4  UNL     1      37.921  29.063  20.665  1.00  0.00     0.047 A 
HETATM    5  C10 UNL     1      37.452  29.169  21.973  1.00  0.00     0.079 A 
HETATM    6  C11 UNL     1      37.344  30.405  22.591  1.00  0.00     0.131 A 
HETATM    7  N6  UNL     1      36.891  30.496  23.853  1.00  0.00    -0.176 N 
ATOM      8  H6  UNL     1      36.823  31.419  24.282  1.00  0.00     0.186 HD
HETATM    9  C12 UNL     1      36.525  29.421  24.572  1.00  0.00     0.679 A 
HETATM   10  N8  UNL     1      36.630  28.219  23.972  1.00  0.00    -0.176 N 
ATOM     11  H8  UNL     1      36.358  27.388  24.498  1.00  0.00     0.186 HD
HETATM   12  C13 UNL     1      37.078  28.064  22.706  1.00  0.00     0.137 A 
HETATM   13  N9  UNL     1      37.176  26.859  22.124  1.00  0.00    -0.345 N 
ATOM     14  H9  UNL     1      36.905  26.028  22.651  1.00  0.00     0.167 HD
ENDROOT
BRANCH   4  15
HETATM   15  N1  UNL     1      38.252  30.131  20.039  1.00  0.00    -0.386 N 
ATOM     16  H1  UNL     1      38.009  31.039  20.434  1.00  0.00     0.159 HD
BRANCH  15  17
HETATM   17  C5  UNL     1      38.952  30.073  18.801  1.00  0.00     0.171 C 
BRANCH  17  18
HETATM   18  C6  UNL     1      40.420  30.428  18.901  1.00  0.00     0.314 C 
HETATM   19  N2  UNL     1      40.765  31.038  20.145  1.00  0.00    -0.110 NA
HETATM   20  N3  UNL     1      41.680  30.242  20.809  1.00  0.00    -0.102 NA
HETATM   21  C7  UNL     1      41.604  28.914  20.192  1.00  0.00     0.357 C 
HETATM   22  N4  UNL     1      41.159  29.183  18.838  1.00  0.00    -0.026 N 
ATOM     23  H42 UNL     1      40.629  28.416  18.424  1.00  0.00     0.282 HD
ATOM     24  H41 UNL     1      41.915  29.193  18.154  1.00  0.00     0.282 HD
BRANCH  21  25
HETATM   25  S1  UNL     1      43.249  28.152  20.142  1.00  0.00    -0.117 SA
BRANCH  25  26
HETATM   26  C8  UNL     1      44.389  29.277  19.268  1.00  0.00     0.103 C 
BRANCH  26  27
HETATM   27  C9  UNL     1      44.353  29.025  17.778  1.00  0.00     0.174 C 
BRANCH  27  28
HETATM   28  O1  UNL     1      43.705  30.111  17.190  1.00  0.00    -0.400 OA
ATOM     29  H1  UNL     1      44.363  30.614  16.725  1.00  0.00     0.209 HD
ENDBRANCH  27  28
ENDBRANCH  26  27
ENDBRANCH  25  26
ENDBRANCH  21  25
ENDBRANCH  17  18
ENDBRANCH  15  17
ENDBRANCH   4  15
BRANCH   6  30
HETATM   30  N5  UNL     1      37.682  31.454  21.941  1.00  0.00    -0.384 N 
ATOM     31  H52 UNL     1      37.321  31.624  21.002  1.00  0.00     0.157 HD
ATOM     32  H51 UNL     1      38.320  32.120  22.376  1.00  0.00     0.157 HD
ENDBRANCH   6  30
BRANCH   9  33
HETATM   33  N7  UNL     1      36.089  29.521  25.793  1.00  0.00    -0.234 N 
ATOM     34  H72 UNL     1      35.103  29.376  26.010  1.00  0.00     0.174 HD
ATOM     35  H71 UNL     1      36.706  29.746  26.574  1.00  0.00     0.174 HD
ENDBRANCH   9  33
TORSDOF 9
ENDMDL
MODEL 5
REMARK VINA RESULT: -7.378586386      1.461      1.579
REMARK  9 active torsions:
REMARK  status: ('A' for Active; 'I' for Inactive)
REMARK    1  A    between atoms: C4_4  and  N1_5 
REMARK    2  A    between atoms: N1_5  and  C5_7 
REMARK    3  A    between atoms: C5_7  and  C6_8 
REMARK    4  A    between atoms: C7_11  and  S1_12 
REMARK    5  A    between atoms: S1_12  and  C8_13 
REMARK    6  A    between atoms: C8_13  and  C9_14 
REMARK    7  A    between atoms: C9_14  and  O1_15 
REMARK    8  A    between atoms: C11_21  and  N5_22 
REMARK    9  A    between atoms: C12_27  and  N7_28 
ROOT
HETATM    1  C1  UNL     1      45.636  29.868  19.801  1.00  0.00     0.068 C 
HETATM    2  C2  UNL     1      44.412  29.328  19.138  1.00  0.00     0.009 A 
HETATM    3  C3  UNL     1      43.241  29.178  19.860  1.00  0.00     0.054 A 
HETATM    4  C4  UNL     1      42.134  28.677  19.221  1.00  0.00     0.047 A 
HETATM    5  C10 UNL     1      42.246  28.346  17.872  1.00  0.00     0.079 A 
HETATM    6  C11 UNL     1      41.163  27.836  17.174  1.00  0.00     0.131 A 
HETATM    7  N6  UNL     1      41.281  27.519  15.873  1.00  0.00    -0.176 N 
ATOM      8  H6  UNL     1      40.467  27.146  15.385  1.00  0.00     0.186 HD
HETATM    9  C12 UNL     1      42.428  27.674  15.190  1.00  0.00     0.679 A 
HETATM   10  N8  UNL     1      43.482  28.169  15.868  1.00  0.00    -0.176 N 
ATOM     11  H8  UNL     1      44.364  28.295  15.372  1.00  0.00     0.186 HD
HETATM   12  C13 UNL     1      43.424  28.506  17.176  1.00  0.00     0.137 A 
HETATM   13  N9  UNL     1      44.485  28.997  17.837  1.00  0.00    -0.345 N 
ATOM     14  H9  UNL     1      45.366  29.123  17.339  1.00  0.00     0.167 HD
ENDROOT
BRANCH   4  15
HETATM   15  N1  UNL     1      41.009  28.504  19.809  1.00  0.00    -0.386 N 
ATOM     16  H1  UNL     1      40.405  27.736  19.517  1.00  0.00     0.159 HD
BRANCH  15  17
HETATM   17  C5  UNL     1      40.586  29.364  20.861  1.00  0.00     0.171 C 
BRANCH  17  18
HETATM   18  C6  UNL     1      39.095  29.620  20.893  1.00  0.00     0.314 C 
HETATM   19  N2  UNL     1      38.441  29.270  19.673  1.00  0.00    -0.110 NA
HETATM   20  N3  UNL     1      37.518  28.270  19.916  1.00  0.00    -0.102 NA
HETATM   21  C7  UNL     1      37.876  27.678  21.209  1.00  0.00     0.357 C 
HETATM   22  N4  UNL     1      38.541  28.756  21.915  1.00  0.00    -0.026 N 
ATOM     23  H42 UNL     1      39.232  28.433  22.593  1.00  0.00     0.282 HD
ATOM     24  H41 UNL     1      37.938  29.244  22.577  1.00  0.00     0.282 HD
BRANCH  21  25
HETATM   25  S1  UNL     1      36.379  27.201  22.116  1.00  0.00    -0.117 SA
BRANCH  25  26
HETATM   26  C8  UNL     1      35.909  28.570  23.227  1.00  0.00     0.103 C 
BRANCH  26  27
HETATM   27  C9  UNL     1      36.306  28.263  24.653  1.00  0.00     0.174 C 
BRANCH  27  28
HETATM   28  O1  UNL     1      37.483  27.518  24.603  1.00  0.00    -0.400 OA
ATOM     29  H1  UNL     1      37.236  26.607  24.491  1.00  0.00     0.209 HD
ENDBRANCH  27  28
ENDBRANCH  26  27
ENDBRANCH  25  26
ENDBRANCH  21  25
ENDBRANCH  17  18
ENDBRANCH  15  17
ENDBRANCH   4  15
BRANCH   6  30
HETATM   30  N5  UNL     1      40.052  27.674  17.787  1.00  0.00    -0.384 N 
ATOM     31  H52 UNL     1      39.331  27.061  17.405  1.00  0.00     0.157 HD
ATOM     32  H51 UNL     1      39.897  28.166  18.667  1.00  0.00     0.157 HD
ENDBRANCH   6  30
BRANCH   9  33
HETATM   33  N7  UNL     1      42.532  27.364  13.932  1.00  0.00    -0.234 N 
ATOM     34  H72 UNL     1      41.801  26.830  13.463  1.00  0.00     0.174 HD
ATOM     35  H71 UNL     1      43.338  27.638  13.369  1.00  0.00     0.174 HD
ENDBRANCH   9  33
TORSDOF 9
ENDMDL
