MODEL 1
REMARK VINA RESULT: -7.421414944      0.000      0.000
REMARK  12 active torsions:
REMARK  status: ('A' for Active; 'I' for Inactive)
REMARK    1  A    between atoms: C2_2  and  C4_4 
REMARK    2  A    between atoms: C4_4  and  C5_5 
REMARK    3  A    between atoms: C5_5  and  N1_6 
REMARK    4  A    between atoms: C5_5  and  C15_25 
REMARK    5  A    between atoms: N1_6  and  C6_8 
REMARK    6  A    between atoms: C6_8  and  C7_9 
REMARK    7  A    between atoms: C8_10  and  C9_11 
REMARK    8  A    between atoms: C9_11  and  C12_14 
REMARK    9  A    between atoms: C12_14  and  C13_15 
REMARK   10  A    between atoms: N3_17  and  O1_19 
REMARK   11  A    between atoms: N4_21  and  O2_23 
REMARK   12  A    between atoms: C15_25  and  O4_27 
ROOT
HETATM    1  C6  UNL     1      34.224   8.559  15.351  1.00  0.00     0.121 C 
HETATM    2  N4  UNL     1      34.107   9.623  14.615  1.00  0.00    -0.251 N 
ATOM      3  H4  UNL     1      33.287   9.692  14.014  1.00  0.00     0.196 HD
ENDROOT
BRANCH   1   4
HETATM    4  N1  UNL     1      35.377   8.508  16.168  1.00  0.00    -0.361 N 
ATOM      5  H1  UNL     1      36.279   8.278  15.748  1.00  0.00     0.162 HD
BRANCH   4   6
HETATM    6  C5  UNL     1      35.303   8.782  17.627  1.00  0.00     0.186 C 
BRANCH   6   7
HETATM    7  C4  UNL     1      35.444   7.489  18.327  1.00  0.00     0.068 C 
BRANCH   7   8
HETATM    8  C2  UNL     1      34.398   7.177  19.303  1.00  0.00    -0.091 C 
HETATM    9  C1  UNL     1      34.582   7.336  20.628  1.00  0.00     0.014 C 
HETATM   10  C3  UNL     1      33.024   6.704  18.907  1.00  0.00     0.042 C 
ENDBRANCH   7   8
ENDBRANCH   6   7
BRANCH   6  11
HETATM   11  C15 UNL     1      36.281   9.836  17.913  1.00  0.00     0.281 C 
HETATM   12  O3  UNL     1      37.349   9.877  17.211  1.00  0.00    -0.263 OA
BRANCH  11  13
HETATM   13  O4  UNL     1      36.173  10.810  18.869  1.00  0.00    -0.325 OA
HETATM   14  C16 UNL     1      36.286  10.663  20.258  1.00  0.00     0.213 C 
ENDBRANCH  11  13
ENDBRANCH   6  11
ENDBRANCH   4   6
ENDBRANCH   1   4
BRANCH   1  15
HETATM   15  C7  UNL     1      33.272   7.489  15.342  1.00  0.00     0.046 C 
HETATM   16  C8  UNL     1      32.458   7.281  14.348  1.00  0.00    -0.014 C 
BRANCH  16  17
HETATM   17  C9  UNL     1      31.462   6.167  14.330  1.00  0.00    -0.024 C 
HETATM   18  C10 UNL     1      30.138   6.754  14.763  1.00  0.00     0.019 C 
HETATM   19  C11 UNL     1      31.968   5.160  15.347  1.00  0.00     0.019 C 
BRANCH  17  20
HETATM   20  C12 UNL     1      31.393   5.504  12.996  1.00  0.00     0.087 C 
BRANCH  20  21
HETATM   21  C13 UNL     1      30.244   5.942  12.179  1.00  0.00     0.114 C 
HETATM   22  N2  UNL     1      30.230   7.179  11.497  1.00  0.00    -0.086 NA
HETATM   23  N3  UNL     1      29.215   5.174  12.087  1.00  0.00    -0.259 N 
ATOM     24  H3  UNL     1      29.206   4.279  12.576  1.00  0.00     0.195 HD
BRANCH  23  25
HETATM   25  O1  UNL     1      28.133   5.549  11.338  1.00  0.00    -0.289 OA
ATOM     26  H1  UNL     1      27.429   6.054  11.727  1.00  0.00     0.244 HD
ENDBRANCH  23  25
ENDBRANCH  20  21
ENDBRANCH  17  20
ENDBRANCH  16  17
ENDBRANCH   1  15
BRANCH   2  27
HETATM   27  O2  UNL     1      34.995  10.648  14.586  1.00  0.00    -0.284 OA
HETATM   28  C14 UNL     1      35.878  10.942  13.536  1.00  0.00     0.237 C 
ENDBRANCH   2  27
TORSDOF 12
ENDMDL
MODEL 2
REMARK VINA RESULT: -7.373144572      2.597      4.167
REMARK  12 active torsions:
REMARK  status: ('A' for Active; 'I' for Inactive)
REMARK    1  A    between atoms: C2_2  and  C4_4 
REMARK    2  A    between atoms: C4_4  and  C5_5 
REMARK    3  A    between atoms: C5_5  and  N1_6 
REMARK    4  A    between atoms: C5_5  and  C15_25 
REMARK    5  A    between atoms: N1_6  and  C6_8 
REMARK    6  A    between atoms: C6_8  and  C7_9 
REMARK    7  A    between atoms: C8_10  and  C9_11 
REMARK    8  A    between atoms: C9_11  and  C12_14 
REMARK    9  A    between atoms: C12_14  and  C13_15 
REMARK   10  A    between atoms: N3_17  and  O1_19 
REMARK   11  A    between atoms: N4_21  and  O2_23 
REMARK   12  A    between atoms: C15_25  and  O4_27 
ROOT
HETATM    1  C6  UNL     1      34.014   9.387  16.275  1.00  0.00     0.121 C 
HETATM    2  N4  UNL     1      35.021  10.077  16.720  1.00  0.00    -0.251 N 
ATOM      3  H4  UNL     1      35.608  10.551  16.035  1.00  0.00     0.196 HD
ENDROOT
BRANCH   1   4
HETATM    4  N1  UNL     1      33.229   8.749  17.263  1.00  0.00    -0.361 N 
ATOM      5  H1  UNL     1      32.583   9.304  17.825  1.00  0.00     0.162 HD
BRANCH   4   6
HETATM    6  C5  UNL     1      33.325   7.284  17.498  1.00  0.00     0.186 C 
BRANCH   6   7
HETATM    7  C4  UNL     1      33.350   7.073  18.959  1.00  0.00     0.068 C 
BRANCH   7   8
HETATM    8  C2  UNL     1      34.664   7.185  19.596  1.00  0.00    -0.091 C 
HETATM    9  C1  UNL     1      34.805   7.449  20.909  1.00  0.00     0.014 C 
HETATM   10  C3  UNL     1      35.956   6.965  18.852  1.00  0.00     0.042 C 
ENDBRANCH   7   8
ENDBRANCH   6   7
BRANCH   6  11
HETATM   11  C15 UNL     1      32.249   6.657  16.724  1.00  0.00     0.281 C 
HETATM   12  O3  UNL     1      31.109   7.235  16.696  1.00  0.00    -0.263 OA
BRANCH  11  13
HETATM   13  O4  UNL     1      32.333   5.495  16.006  1.00  0.00    -0.325 OA
HETATM   14  C16 UNL     1      31.950   5.280  14.677  1.00  0.00     0.213 C 
ENDBRANCH  11  13
ENDBRANCH   6  11
ENDBRANCH   4   6
ENDBRANCH   1   4
BRANCH   1  15
HETATM   15  C7  UNL     1      33.709   9.252  14.881  1.00  0.00     0.046 C 
HETATM   16  C8  UNL     1      32.620   9.731  14.352  1.00  0.00    -0.014 C 
BRANCH  16  17
HETATM   17  C9  UNL     1      32.294   9.594  12.900  1.00  0.00    -0.024 C 
HETATM   18  C10 UNL     1      32.920   8.302  12.427  1.00  0.00     0.019 C 
HETATM   19  C11 UNL     1      32.944  10.791  12.228  1.00  0.00     0.019 C 
BRANCH  17  20
HETATM   20  C12 UNL     1      30.824   9.649  12.653  1.00  0.00     0.087 C 
BRANCH  20  21
HETATM   21  C13 UNL     1      30.093   8.484  13.188  1.00  0.00     0.114 C 
HETATM   22  N2  UNL     1      29.904   7.301  12.439  1.00  0.00    -0.086 NA
HETATM   23  N3  UNL     1      29.604   8.547  14.378  1.00  0.00    -0.259 N 
ATOM     24  H3  UNL     1      29.728   9.394  14.932  1.00  0.00     0.195 HD
BRANCH  23  25
HETATM   25  O1  UNL     1      28.921   7.485  14.905  1.00  0.00    -0.289 OA
ATOM     26  H1  UNL     1      28.014   7.330  14.669  1.00  0.00     0.244 HD
ENDBRANCH  23  25
ENDBRANCH  20  21
ENDBRANCH  17  20
ENDBRANCH  16  17
ENDBRANCH   1  15
BRANCH   2  27
HETATM   27  O2  UNL     1      35.349  10.214  18.029  1.00  0.00    -0.284 OA
HETATM   28  C14 UNL     1      36.600  10.609  18.527  1.00  0.00     0.237 C 
ENDBRANCH   2  27
TORSDOF 12
ENDMDL
MODEL 3
REMARK VINA RESULT: -7.343017676      3.206      6.400
REMARK  12 active torsions:
REMARK  status: ('A' for Active; 'I' for Inactive)
REMARK    1  A    between atoms: C2_2  and  C4_4 
REMARK    2  A    between atoms: C4_4  and  C5_5 
REMARK    3  A    between atoms: C5_5  and  N1_6 
REMARK    4  A    between atoms: C5_5  and  C15_25 
REMARK    5  A    between atoms: N1_6  and  C6_8 
REMARK    6  A    between atoms: C6_8  and  C7_9 
REMARK    7  A    between atoms: C8_10  and  C9_11 
REMARK    8  A    between atoms: C9_11  and  C12_14 
REMARK    9  A    between atoms: C12_14  and  C13_15 
REMARK   10  A    between atoms: N3_17  and  O1_19 
REMARK   11  A    between atoms: N4_21  and  O2_23 
REMARK   12  A    between atoms: C15_25  and  O4_27 
ROOT
HETATM    1  C6  UNL     1      33.835   9.137  13.028  1.00  0.00     0.121 C 
HETATM    2  N4  UNL     1      34.775   9.856  12.491  1.00  0.00    -0.251 N 
ATOM      3  H4  UNL     1      35.403  10.355  13.119  1.00  0.00     0.196 HD
ENDROOT
BRANCH   1   4
HETATM    4  N1  UNL     1      32.988   8.463  12.117  1.00  0.00    -0.361 N 
ATOM      5  H1  UNL     1      33.399   7.848  11.414  1.00  0.00     0.162 HD
BRANCH   4   6
HETATM    6  C5  UNL     1      31.512   8.632  12.166  1.00  0.00     0.186 C 
BRANCH   6   7
HETATM    7  C4  UNL     1      31.148   9.623  11.133  1.00  0.00     0.068 C 
BRANCH   7   8
HETATM    8  C2  UNL     1      31.235  11.027  11.541  1.00  0.00    -0.091 C 
HETATM    9  C1  UNL     1      31.598  12.001  10.684  1.00  0.00     0.014 C 
HETATM   10  C3  UNL     1      30.880  11.501  12.926  1.00  0.00     0.042 C 
ENDBRANCH   7   8
ENDBRANCH   6   7
BRANCH   6  11
HETATM   11  C15 UNL     1      30.927   7.290  12.076  1.00  0.00     0.281 C 
HETATM   12  O3  UNL     1      31.709   6.303  11.858  1.00  0.00    -0.263 OA
BRANCH  11  13
HETATM   13  O4  UNL     1      29.603   6.969  12.209  1.00  0.00    -0.325 OA
HETATM   14  C16 UNL     1      29.024   5.694  12.182  1.00  0.00     0.213 C 
ENDBRANCH  11  13
ENDBRANCH   6  11
ENDBRANCH   4   6
ENDBRANCH   1   4
BRANCH   1  15
HETATM   15  C7  UNL     1      33.637   9.033  14.443  1.00  0.00     0.046 C 
HETATM   16  C8  UNL     1      33.584   7.888  15.062  1.00  0.00    -0.014 C 
BRANCH  16  17
HETATM   17  C9  UNL     1      33.378   7.770  16.537  1.00  0.00    -0.024 C 
HETATM   18  C10 UNL     1      32.844   9.101  17.015  1.00  0.00     0.019 C 
HETATM   19  C11 UNL     1      34.755   7.497  17.114  1.00  0.00     0.019 C 
BRANCH  17  20
HETATM   20  C12 UNL     1      32.481   6.630  16.883  1.00  0.00     0.087 C 
BRANCH  20  21
HETATM   21  C13 UNL     1      31.302   6.519  16.003  1.00  0.00     0.114 C 
HETATM   22  N2  UNL     1      31.063   5.381  15.200  1.00  0.00    -0.086 NA
HETATM   23  N3  UNL     1      30.462   7.494  15.959  1.00  0.00    -0.259 N 
ATOM     24  H3  UNL     1      30.620   8.324  16.529  1.00  0.00     0.195 HD
BRANCH  23  25
HETATM   25  O1  UNL     1      29.358   7.424  15.153  1.00  0.00    -0.289 OA
ATOM     26  H1  UNL     1      29.451   7.272  14.220  1.00  0.00     0.244 HD
ENDBRANCH  23  25
ENDBRANCH  20  21
ENDBRANCH  17  20
ENDBRANCH  16  17
ENDBRANCH   1  15
BRANCH   2  27
HETATM   27  O2  UNL     1      34.982   9.991  11.157  1.00  0.00    -0.284 OA
HETATM   28  C14 UNL     1      35.243  11.193  10.483  1.00  0.00     0.237 C 
ENDBRANCH   2  27
TORSDOF 12
ENDMDL
MODEL 4
REMARK VINA RESULT: -7.217098206      2.348      2.912
REMARK  12 active torsions:
REMARK  status: ('A' for Active; 'I' for Inactive)
REMARK    1  A    between atoms: C2_2  and  C4_4 
REMARK    2  A    between atoms: C4_4  and  C5_5 
REMARK    3  A    between atoms: C5_5  and  N1_6 
REMARK    4  A    between atoms: C5_5  and  C15_25 
REMARK    5  A    between atoms: N1_6  and  C6_8 
REMARK    6  A    between atoms: C6_8  and  C7_9 
REMARK    7  A    between atoms: C8_10  and  C9_11 
REMARK    8  A    between atoms: C9_11  and  C12_14 
REMARK    9  A    between atoms: C12_14  and  C13_15 
REMARK   10  A    between atoms: N3_17  and  O1_19 
REMARK   11  A    between atoms: N4_21  and  O2_23 
REMARK   12  A    between atoms: C15_25  and  O4_27 
ROOT
HETATM    1  C6  UNL     1      35.910   9.145  14.967  1.00  0.00     0.121 C 
HETATM    2  N4  UNL     1      36.652   9.300  13.912  1.00  0.00    -0.251 N 
ATOM      3  H4  UNL     1      36.179   9.470  13.024  1.00  0.00     0.196 HD
ENDROOT
BRANCH   1   4
HETATM    4  N1  UNL     1      36.610   8.912  16.174  1.00  0.00    -0.361 N 
ATOM      5  H1  UNL     1      37.620   8.766  16.147  1.00  0.00     0.162 HD
BRANCH   4   6
HETATM    6  C5  UNL     1      35.903   8.875  17.481  1.00  0.00     0.186 C 
BRANCH   6   7
HETATM    7  C4  UNL     1      36.052   7.509  18.025  1.00  0.00     0.068 C 
BRANCH   7   8
HETATM    8  C2  UNL     1      35.238   7.202  19.202  1.00  0.00    -0.091 C 
HETATM    9  C1  UNL     1      35.776   6.730  20.343  1.00  0.00     0.014 C 
HETATM   10  C3  UNL     1      33.750   7.433  19.252  1.00  0.00     0.042 C 
ENDBRANCH   7   8
ENDBRANCH   6   7
BRANCH   6  11
HETATM   11  C15 UNL     1      36.416   9.996  18.274  1.00  0.00     0.281 C 
HETATM   12  O3  UNL     1      37.580  10.449  18.000  1.00  0.00    -0.263 OA
BRANCH  11  13
HETATM   13  O4  UNL     1      35.768  10.633  19.298  1.00  0.00    -0.325 OA
HETATM   14  C16 UNL     1      36.153  10.703  20.643  1.00  0.00     0.213 C 
ENDBRANCH  11  13
ENDBRANCH   6  11
ENDBRANCH   4   6
ENDBRANCH   1   4
BRANCH   1  15
HETATM   15  C7  UNL     1      34.479   9.186  14.935  1.00  0.00     0.046 C 
HETATM   16  C8  UNL     1      33.756   8.179  14.534  1.00  0.00    -0.014 C 
BRANCH  16  17
HETATM   17  C9  UNL     1      32.263   8.214  14.496  1.00  0.00    -0.024 C 
HETATM   18  C10 UNL     1      31.837   7.482  13.245  1.00  0.00     0.019 C 
HETATM   19  C11 UNL     1      31.898   9.685  14.417  1.00  0.00     0.019 C 
BRANCH  17  20
HETATM   20  C12 UNL     1      31.662   7.640  15.735  1.00  0.00     0.087 C 
BRANCH  20  21
HETATM   21  C13 UNL     1      31.668   6.164  15.764  1.00  0.00     0.114 C 
HETATM   22  N2  UNL     1      30.710   5.391  15.072  1.00  0.00    -0.086 NA
HETATM   23  N3  UNL     1      32.575   5.557  16.447  1.00  0.00    -0.259 N 
ATOM     24  H3  UNL     1      33.274   6.099  16.956  1.00  0.00     0.195 HD
BRANCH  23  25
HETATM   25  O1  UNL     1      32.610   4.190  16.496  1.00  0.00    -0.289 OA
ATOM     26  H1  UNL     1      33.288   3.742  16.988  1.00  0.00     0.244 HD
ENDBRANCH  23  25
ENDBRANCH  20  21
ENDBRANCH  17  20
ENDBRANCH  16  17
ENDBRANCH   1  15
BRANCH   2  27
HETATM   27  O2  UNL     1      38.007   9.252  13.902  1.00  0.00    -0.284 OA
HETATM   28  C14 UNL     1      38.819   9.165  12.761  1.00  0.00     0.237 C 
ENDBRANCH   2  27
TORSDOF 12
ENDMDL
MODEL 5
REMARK VINA RESULT: -7.209387811      2.300      4.757
REMARK  12 active torsions:
REMARK  status: ('A' for Active; 'I' for Inactive)
REMARK    1  A    between atoms: C2_2  and  C4_4 
REMARK    2  A    between atoms: C4_4  and  C5_5 
REMARK    3  A    between atoms: C5_5  and  N1_6 
REMARK    4  A    between atoms: C5_5  and  C15_25 
REMARK    5  A    between atoms: N1_6  and  C6_8 
REMARK    6  A    between atoms: C6_8  and  C7_9 
REMARK    7  A    between atoms: C8_10  and  C9_11 
REMARK    8  A    between atoms: C9_11  and  C12_14 
REMARK    9  A    between atoms: C12_14  and  C13_15 
REMARK   10  A    between atoms: N3_17  and  O1_19 
REMARK   11  A    between atoms: N4_21  and  O2_23 
REMARK   12  A    between atoms: C15_25  and  O4_27 
ROOT
HETATM    1  C6  UNL     1      33.402   8.699  15.561  1.00  0.00     0.121 C 
HETATM    2  N4  UNL     1      33.553   7.729  16.413  1.00  0.00    -0.251 N 
ATOM      3  H4  UNL     1      32.741   7.145  16.610  1.00  0.00     0.196 HD
ENDROOT
BRANCH   1   4
HETATM    4  N1  UNL     1      34.555   9.482  15.319  1.00  0.00    -0.361 N 
ATOM      5  H1  UNL     1      34.850  10.167  16.016  1.00  0.00     0.162 HD
BRANCH   4   6
HETATM    6  C5  UNL     1      35.346   9.326  14.070  1.00  0.00     0.186 C 
BRANCH   6   7
HETATM    7  C4  UNL     1      35.051  10.493  13.213  1.00  0.00     0.068 C 
BRANCH   7   8
HETATM    8  C2  UNL     1      34.375  10.198  11.948  1.00  0.00    -0.091 C 
HETATM    9  C1  UNL     1      33.444  11.018  11.424  1.00  0.00     0.014 C 
HETATM   10  C3  UNL     1      34.699   8.989  11.109  1.00  0.00     0.042 C 
ENDBRANCH   7   8
ENDBRANCH   6   7
BRANCH   6  11
HETATM   11  C15 UNL     1      36.736   9.095  14.472  1.00  0.00     0.281 C 
HETATM   12  O3  UNL     1      37.078   9.392  15.668  1.00  0.00    -0.263 OA
BRANCH  11  13
HETATM   13  O4  UNL     1      37.735   8.579  13.691  1.00  0.00    -0.325 OA
HETATM   14  C16 UNL     1      38.413   9.209  12.640  1.00  0.00     0.213 C 
ENDBRANCH  11  13
ENDBRANCH   6  11
ENDBRANCH   4   6
ENDBRANCH   1   4
BRANCH   1  15
HETATM   15  C7  UNL     1      32.159   8.987  14.910  1.00  0.00     0.046 C 
HETATM   16  C8  UNL     1      31.807   8.426  13.789  1.00  0.00    -0.014 C 
BRANCH  16  17
HETATM   17  C9  UNL     1      30.513   8.721  13.103  1.00  0.00    -0.024 C 
HETATM   18  C10 UNL     1      30.697   8.370  11.644  1.00  0.00     0.019 C 
HETATM   19  C11 UNL     1      30.296  10.213  13.280  1.00  0.00     0.019 C 
BRANCH  17  20
HETATM   20  C12 UNL     1      29.372   7.995  13.732  1.00  0.00     0.087 C 
BRANCH  20  21
HETATM   21  C13 UNL     1      29.361   6.548  13.440  1.00  0.00     0.114 C 
HETATM   22  N2  UNL     1      30.292   5.654  14.013  1.00  0.00    -0.086 NA
HETATM   23  N3  UNL     1      28.474   6.083  12.630  1.00  0.00    -0.259 N 
ATOM     24  H3  UNL     1      27.796   6.714  12.204  1.00  0.00     0.195 HD
BRANCH  23  25
HETATM   25  O1  UNL     1      28.435   4.746  12.337  1.00  0.00    -0.289 OA
ATOM     26  H1  UNL     1      28.617   4.441  11.456  1.00  0.00     0.244 HD
ENDBRANCH  23  25
ENDBRANCH  20  21
ENDBRANCH  17  20
ENDBRANCH  16  17
ENDBRANCH   1  15
BRANCH   2  27
HETATM   27  O2  UNL     1      34.709   7.437  17.059  1.00  0.00    -0.284 OA
HETATM   28  C14 UNL     1      34.923   7.528  18.442  1.00  0.00     0.237 C 
ENDBRANCH   2  27
TORSDOF 12
ENDMDL
