MODEL 1
REMARK VINA RESULT: -8.166916857      0.000      0.000
REMARK  12 active torsions:
REMARK  status: ('A' for Active; 'I' for Inactive)
REMARK    1  A    between atoms: C3_5  and  N2_6 
REMARK    2  A    between atoms: N2_6  and  C4_8 
REMARK    3  A    between atoms: C4_8  and  C5_9 
REMARK    4  A    between atoms: C5_9  and  N3_10 
REMARK    5  A    between atoms: N3_10  and  C6_12 
REMARK    6  A    between atoms: C6_12  and  C7_13 
REMARK    7  A    between atoms: C7_13  and  C8_14 
REMARK    8  A    between atoms: C8_14  and  N4_15 
REMARK    9  A    between atoms: N4_15  and  C9_17 
REMARK   10  A    between atoms: C11_21  and  N6_22 
REMARK   11  A    between atoms: C12_27  and  N8_28 
REMARK   12  A    between atoms: C15_41  and  O1_42 
ROOT
HETATM    1  C7  UNL     1      37.676  27.494  20.863  1.00  0.00     0.039 C 
ENDROOT
BRANCH   1   2
HETATM    2  C6  UNL     1      36.797  27.817  22.030  1.00  0.00     0.115 C 
BRANCH   2   3
HETATM    3  N3  UNL     1      37.510  28.172  23.228  1.00  0.00    -0.420 N 
ATOM      4  H3  UNL     1      38.123  27.517  23.715  1.00  0.00     0.153 HD
BRANCH   3   5
HETATM    5  C5  UNL     1      37.299  29.503  23.684  1.00  0.00     0.134 C 
BRANCH   5   6
HETATM    6  C4  UNL     1      38.633  30.203  23.976  1.00  0.00     0.157 C 
BRANCH   6   7
HETATM    7  N2  UNL     1      38.826  31.181  22.948  1.00  0.00    -0.225 N 
ATOM      8  H2  UNL     1      38.108  31.230  22.225  1.00  0.00     0.177 HD
BRANCH   7   9
HETATM    9  C3  UNL     1      39.802  31.998  22.838  1.00  0.00     0.675 C 
HETATM   10  N1  UNL     1      41.145  31.482  22.856  1.00  0.00    -0.219 N 
HETATM   11  C2  UNL     1      42.084  32.180  22.017  1.00  0.00     0.131 C 
ATOM     12  H1  UNL     1      41.413  30.678  23.423  1.00  0.00     0.178 HD
HETATM   13  C1  UNL     1      43.423  31.491  22.203  1.00  0.00     0.036 C 
HETATM   14  C15 UNL     1      42.152  33.627  22.403  1.00  0.00     0.208 C 
HETATM   15  C14 UNL     1      40.814  34.204  22.576  1.00  0.00     0.122 C 
HETATM   16  N10 UNL     1      39.638  33.426  22.691  1.00  0.00    -0.179 N 
HETATM   17  N11 UNL     1      40.634  35.511  22.637  1.00  0.00    -0.386 N 
ATOM     18  H10 UNL     1      38.713  33.855  22.670  1.00  0.00     0.185 HD
ATOM     19 2H11 UNL     1      39.704  35.912  22.757  1.00  0.00     0.157 HD
ATOM     20 1H11 UNL     1      41.481  36.072  22.554  1.00  0.00     0.157 HD
BRANCH  14  21
HETATM   21  O1  UNL     1      42.834  34.383  21.432  1.00  0.00    -0.386 OA
ATOM     22  H1  UNL     1      43.757  34.160  21.407  1.00  0.00     0.210 HD
ENDBRANCH  14  21
ENDBRANCH   7   9
ENDBRANCH   6   7
ENDBRANCH   5   6
ENDBRANCH   3   5
ENDBRANCH   2   3
ENDBRANCH   1   2
BRANCH   1  23
HETATM   23  C8  UNL     1      38.362  28.742  20.322  1.00  0.00     0.123 C 
BRANCH  23  24
HETATM   24  N4  UNL     1      38.753  28.512  18.949  1.00  0.00    -0.370 N 
ATOM     25  H4  UNL     1      38.063  28.242  18.248  1.00  0.00     0.161 HD
BRANCH  24  26
HETATM   26  C9  UNL     1      40.018  28.659  18.628  1.00  0.00     0.147 A 
HETATM   27  N5  UNL     1      40.562  28.345  17.458  1.00  0.00    -0.331 N 
HETATM   28  C10 UNL     1      41.857  28.554  17.291  1.00  0.00     0.113 A 
ATOM     29  H5  UNL     1      39.995  27.952  16.707  1.00  0.00     0.168 HD
HETATM   30  C11 UNL     1      42.641  28.298  16.142  1.00  0.00     0.144 A 
HETATM   31  C13 UNL     1      42.549  29.083  18.340  1.00  0.00     0.124 A 
HETATM   32  N7  UNL     1      43.937  28.565  16.127  1.00  0.00    -0.175 N 
HETATM   33  C12 UNL     1      44.592  29.082  17.166  1.00  0.00     0.678 A 
ATOM     34  H7  UNL     1      44.462  28.364  15.276  1.00  0.00     0.186 HD
HETATM   35  N9  UNL     1      43.898  29.345  18.285  1.00  0.00    -0.183 N 
ATOM     36  H9  UNL     1      44.372  29.741  19.097  1.00  0.00     0.185 HD
HETATM   37  S1  UNL     1      41.330  29.262  19.525  1.00  0.00    -0.034 SA
BRANCH  30  38
HETATM   38  N6  UNL     1      42.117  27.803  15.070  1.00  0.00    -0.383 N 
ATOM     39  H62 UNL     1      41.545  28.419  14.493  1.00  0.00     0.157 HD
ATOM     40  H61 UNL     1      42.266  26.828  14.810  1.00  0.00     0.157 HD
ENDBRANCH  30  38
BRANCH  33  41
HETATM   41  N8  UNL     1      45.837  29.318  17.083  1.00  0.00    -0.234 N 
ATOM     42  H82 UNL     1      46.522  28.767  17.599  1.00  0.00     0.174 HD
ATOM     43  H81 UNL     1      46.176  30.078  16.494  1.00  0.00     0.174 HD
ENDBRANCH  33  41
ENDBRANCH  24  26
ENDBRANCH  23  24
ENDBRANCH   1  23
TORSDOF 12
ENDMDL
MODEL 2
REMARK VINA RESULT: -8.162189165      1.021      1.226
REMARK  12 active torsions:
REMARK  status: ('A' for Active; 'I' for Inactive)
REMARK    1  A    between atoms: C3_5  and  N2_6 
REMARK    2  A    between atoms: N2_6  and  C4_8 
REMARK    3  A    between atoms: C4_8  and  C5_9 
REMARK    4  A    between atoms: C5_9  and  N3_10 
REMARK    5  A    between atoms: N3_10  and  C6_12 
REMARK    6  A    between atoms: C6_12  and  C7_13 
REMARK    7  A    between atoms: C7_13  and  C8_14 
REMARK    8  A    between atoms: C8_14  and  N4_15 
REMARK    9  A    between atoms: N4_15  and  C9_17 
REMARK   10  A    between atoms: C11_21  and  N6_22 
REMARK   11  A    between atoms: C12_27  and  N8_28 
REMARK   12  A    between atoms: C15_41  and  O1_42 
ROOT
HETATM    1  C7  UNL     1      37.383  28.779  20.994  1.00  0.00     0.039 C 
ENDROOT
BRANCH   1   2
HETATM    2  C6  UNL     1      38.088  29.873  21.732  1.00  0.00     0.115 C 
BRANCH   2   3
HETATM    3  N3  UNL     1      37.666  30.033  23.099  1.00  0.00    -0.420 N 
ATOM      4  H3  UNL     1      37.791  29.302  23.799  1.00  0.00     0.153 HD
BRANCH   3   5
HETATM    5  C5  UNL     1      37.064  31.287  23.401  1.00  0.00     0.134 C 
BRANCH   5   6
HETATM    6  C4  UNL     1      37.419  32.337  22.340  1.00  0.00     0.157 C 
BRANCH   6   7
HETATM    7  N2  UNL     1      38.134  33.382  23.009  1.00  0.00    -0.225 N 
ATOM      8  H2  UNL     1      37.599  33.953  23.663  1.00  0.00     0.177 HD
BRANCH   7   9
HETATM    9  C3  UNL     1      39.371  33.675  22.874  1.00  0.00     0.675 C 
HETATM   10  N1  UNL     1      40.350  32.628  22.993  1.00  0.00    -0.219 N 
HETATM   11  C2  UNL     1      41.502  32.763  22.140  1.00  0.00     0.131 C 
ATOM     12  H1  UNL     1      40.236  31.845  23.637  1.00  0.00     0.178 HD
HETATM   13  C1  UNL     1      42.401  31.579  22.441  1.00  0.00     0.036 C 
HETATM   14  C15 UNL     1      42.199  34.064  22.406  1.00  0.00     0.208 C 
HETATM   15  C14 UNL     1      41.249  35.182  22.471  1.00  0.00     0.122 C 
HETATM   16  N10 UNL     1      39.851  35.010  22.600  1.00  0.00    -0.179 N 
HETATM   17  N11 UNL     1      41.662  36.434  22.415  1.00  0.00    -0.386 N 
ATOM     18  H10 UNL     1      39.209  35.797  22.504  1.00  0.00     0.185 HD
ATOM     19 2H11 UNL     1      41.003  37.211  22.461  1.00  0.00     0.157 HD
ATOM     20 1H11 UNL     1      42.670  36.558  22.322  1.00  0.00     0.157 HD
BRANCH  14  21
HETATM   21  O1  UNL     1      43.146  34.350  21.405  1.00  0.00    -0.386 OA
ATOM     22  H1  UNL     1      43.874  33.741  21.436  1.00  0.00     0.210 HD
ENDBRANCH  14  21
ENDBRANCH   7   9
ENDBRANCH   6   7
ENDBRANCH   5   6
ENDBRANCH   3   5
ENDBRANCH   2   3
ENDBRANCH   1   2
BRANCH   1  23
HETATM   23  C8  UNL     1      38.366  27.913  20.216  1.00  0.00     0.123 C 
BRANCH  23  24
HETATM   24  N4  UNL     1      38.687  28.565  18.966  1.00  0.00    -0.370 N 
ATOM     25  H4  UNL     1      37.950  28.908  18.350  1.00  0.00     0.161 HD
BRANCH  24  26
HETATM   26  C9  UNL     1      39.953  28.705  18.643  1.00  0.00     0.147 A 
HETATM   27  N5  UNL     1      40.498  28.368  17.480  1.00  0.00    -0.331 N 
HETATM   28  C10 UNL     1      41.793  28.572  17.310  1.00  0.00     0.113 A 
ATOM     29  H5  UNL     1      39.931  27.963  16.735  1.00  0.00     0.168 HD
HETATM   30  C11 UNL     1      42.577  28.295  16.166  1.00  0.00     0.144 A 
HETATM   31  C13 UNL     1      42.485  29.119  18.349  1.00  0.00     0.124 A 
HETATM   32  N7  UNL     1      43.874  28.559  16.147  1.00  0.00    -0.175 N 
HETATM   33  C12 UNL     1      44.529  29.094  17.177  1.00  0.00     0.678 A 
ATOM     34  H7  UNL     1      44.399  28.342  15.300  1.00  0.00     0.186 HD
HETATM   35  N9  UNL     1      43.834  29.378  18.290  1.00  0.00    -0.183 N 
ATOM     36  H9  UNL     1      44.308  29.788  19.095  1.00  0.00     0.185 HD
HETATM   37  S1  UNL     1      41.265  29.321  19.530  1.00  0.00    -0.034 SA
BRANCH  30  38
HETATM   38  N6  UNL     1      42.053  27.780  15.103  1.00  0.00    -0.383 N 
ATOM     39  H62 UNL     1      41.480  28.386  14.517  1.00  0.00     0.157 HD
ATOM     40  H61 UNL     1      42.204  26.802  14.858  1.00  0.00     0.157 HD
ENDBRANCH  30  38
BRANCH  33  41
HETATM   41  N8  UNL     1      45.774  29.327  17.091  1.00  0.00    -0.234 N 
ATOM     42  H82 UNL     1      46.182  29.753  16.259  1.00  0.00     0.174 HD
ATOM     43  H81 UNL     1      46.396  29.084  17.862  1.00  0.00     0.174 HD
ENDBRANCH  33  41
ENDBRANCH  24  26
ENDBRANCH  23  24
ENDBRANCH   1  23
TORSDOF 12
ENDMDL
MODEL 3
REMARK VINA RESULT: -8.066560813      1.547      1.969
REMARK  12 active torsions:
REMARK  status: ('A' for Active; 'I' for Inactive)
REMARK    1  A    between atoms: C3_5  and  N2_6 
REMARK    2  A    between atoms: N2_6  and  C4_8 
REMARK    3  A    between atoms: C4_8  and  C5_9 
REMARK    4  A    between atoms: C5_9  and  N3_10 
REMARK    5  A    between atoms: N3_10  and  C6_12 
REMARK    6  A    between atoms: C6_12  and  C7_13 
REMARK    7  A    between atoms: C7_13  and  C8_14 
REMARK    8  A    between atoms: C8_14  and  N4_15 
REMARK    9  A    between atoms: N4_15  and  C9_17 
REMARK   10  A    between atoms: C11_21  and  N6_22 
REMARK   11  A    between atoms: C12_27  and  N8_28 
REMARK   12  A    between atoms: C15_41  and  O1_42 
ROOT
HETATM    1  C7  UNL     1      37.112  28.355  20.080  1.00  0.00     0.039 C 
ENDROOT
BRANCH   1   2
HETATM    2  C6  UNL     1      37.559  27.187  20.901  1.00  0.00     0.115 C 
BRANCH   2   3
HETATM    3  N3  UNL     1      37.403  27.366  22.321  1.00  0.00    -0.420 N 
ATOM      4  H3  UNL     1      37.887  26.781  23.003  1.00  0.00     0.153 HD
BRANCH   3   5
HETATM    5  C5  UNL     1      36.525  28.419  22.703  1.00  0.00     0.134 C 
BRANCH   5   6
HETATM    6  C4  UNL     1      37.122  29.241  23.852  1.00  0.00     0.157 C 
BRANCH   6   7
HETATM    7  N2  UNL     1      38.218  29.985  23.309  1.00  0.00    -0.225 N 
ATOM      8  H2  UNL     1      38.987  29.442  22.916  1.00  0.00     0.177 HD
BRANCH   7   9
HETATM    9  C3  UNL     1      38.337  31.257  23.264  1.00  0.00     0.675 C 
HETATM   10  N1  UNL     1      39.644  31.839  23.411  1.00  0.00    -0.219 N 
HETATM   11  C2  UNL     1      39.878  33.032  22.638  1.00  0.00     0.131 C 
ATOM     12  H1  UNL     1      40.356  31.435  24.019  1.00  0.00     0.178 HD
HETATM   13  C1  UNL     1      41.291  33.481  22.956  1.00  0.00     0.036 C 
HETATM   14  C15 UNL     1      38.873  34.087  22.992  1.00  0.00     0.208 C 
HETATM   15  C14 UNL     1      37.510  33.543  23.034  1.00  0.00     0.122 C 
HETATM   16  N10 UNL     1      37.224  32.158  23.066  1.00  0.00    -0.179 N 
HETATM   17  N11 UNL     1      36.456  34.338  23.046  1.00  0.00    -0.386 N 
ATOM     18  H10 UNL     1      36.272  31.810  22.956  1.00  0.00     0.185 HD
ATOM     19 2H11 UNL     1      35.509  33.960  23.076  1.00  0.00     0.157 HD
ATOM     20 1H11 UNL     1      36.662  35.336  23.023  1.00  0.00     0.157 HD
BRANCH  14  21
HETATM   21  O1  UNL     1      38.895  35.145  22.065  1.00  0.00    -0.386 OA
ATOM     22  H1  UNL     1      39.530  35.806  22.313  1.00  0.00     0.210 HD
ENDBRANCH  14  21
ENDBRANCH   7   9
ENDBRANCH   6   7
ENDBRANCH   5   6
ENDBRANCH   3   5
ENDBRANCH   2   3
ENDBRANCH   1   2
BRANCH   1  23
HETATM   23  C8  UNL     1      38.233  28.863  19.182  1.00  0.00     0.123 C 
BRANCH  23  24
HETATM   24  N4  UNL     1      39.361  29.248  20.003  1.00  0.00    -0.370 N 
ATOM     25  H4  UNL     1      39.231  29.510  20.980  1.00  0.00     0.161 HD
BRANCH  24  26
HETATM   26  C9  UNL     1      40.555  29.252  19.457  1.00  0.00     0.147 A 
HETATM   27  N5  UNL     1      40.855  28.795  18.246  1.00  0.00    -0.331 N 
HETATM   28  C10 UNL     1      42.111  28.869  17.840  1.00  0.00     0.113 A 
ATOM     29  H5  UNL     1      40.134  28.397  17.644  1.00  0.00     0.168 HD
HETATM   30  C11 UNL     1      42.654  28.451  16.603  1.00  0.00     0.144 A 
HETATM   31  C13 UNL     1      43.019  29.414  18.698  1.00  0.00     0.124 A 
HETATM   32  N7  UNL     1      43.943  28.594  16.340  1.00  0.00    -0.175 N 
HETATM   33  C12 UNL     1      44.812  29.130  17.197  1.00  0.00     0.678 A 
ATOM     34  H7  UNL     1      44.289  28.278  15.434  1.00  0.00     0.186 HD
HETATM   35  N9  UNL     1      44.352  29.545  18.388  1.00  0.00    -0.183 N 
ATOM     36  H9  UNL     1      44.993  29.960  19.064  1.00  0.00     0.185 HD
HETATM   37  S1  UNL     1      42.050  29.800  20.053  1.00  0.00    -0.034 SA
BRANCH  30  38
HETATM   38  N6  UNL     1      41.910  27.921  15.689  1.00  0.00    -0.383 N 
ATOM     39  H62 UNL     1      40.931  28.204  15.653  1.00  0.00     0.157 HD
ATOM     40  H61 UNL     1      42.286  27.241  15.028  1.00  0.00     0.157 HD
ENDBRANCH  30  38
BRANCH  33  41
HETATM   41  N8  UNL     1      46.036  29.243  16.879  1.00  0.00    -0.234 N 
ATOM     42  H82 UNL     1      46.370  29.008  15.944  1.00  0.00     0.174 HD
ATOM     43  H81 UNL     1      46.716  29.570  17.565  1.00  0.00     0.174 HD
ENDBRANCH  33  41
ENDBRANCH  24  26
ENDBRANCH  23  24
ENDBRANCH   1  23
TORSDOF 12
ENDMDL
MODEL 4
REMARK VINA RESULT: -7.990630355      2.244      6.856
REMARK  12 active torsions:
REMARK  status: ('A' for Active; 'I' for Inactive)
REMARK    1  A    between atoms: C3_5  and  N2_6 
REMARK    2  A    between atoms: N2_6  and  C4_8 
REMARK    3  A    between atoms: C4_8  and  C5_9 
REMARK    4  A    between atoms: C5_9  and  N3_10 
REMARK    5  A    between atoms: N3_10  and  C6_12 
REMARK    6  A    between atoms: C6_12  and  C7_13 
REMARK    7  A    between atoms: C7_13  and  C8_14 
REMARK    8  A    between atoms: C8_14  and  N4_15 
REMARK    9  A    between atoms: N4_15  and  C9_17 
REMARK   10  A    between atoms: C11_21  and  N6_22 
REMARK   11  A    between atoms: C12_27  and  N8_28 
REMARK   12  A    between atoms: C15_41  and  O1_42 
ROOT
HETATM    1  C7  UNL     1      35.968  27.778  21.944  1.00  0.00     0.039 C 
ENDROOT
BRANCH   1   2
HETATM    2  C6  UNL     1      36.376  27.675  20.509  1.00  0.00     0.115 C 
BRANCH   2   3
HETATM    3  N3  UNL     1      36.593  28.942  19.861  1.00  0.00    -0.420 N 
ATOM      4  H3  UNL     1      35.828  29.500  19.480  1.00  0.00     0.153 HD
BRANCH   3   5
HETATM    5  C5  UNL     1      37.951  29.360  19.793  1.00  0.00     0.134 C 
BRANCH   5   6
HETATM    6  C4  UNL     1      38.893  28.151  19.707  1.00  0.00     0.157 C 
BRANCH   6   7
HETATM    7  N2  UNL     1      39.538  28.213  18.430  1.00  0.00    -0.225 N 
ATOM      8  H2  UNL     1      38.967  27.973  17.620  1.00  0.00     0.177 HD
BRANCH   7   9
HETATM    9  C3  UNL     1      40.752  28.537  18.197  1.00  0.00     0.675 C 
HETATM   10  N1  UNL     1      41.307  28.259  16.899  1.00  0.00    -0.219 N 
HETATM   11  C2  UNL     1      42.258  29.229  16.417  1.00  0.00     0.131 C 
ATOM     12  H1  UNL     1      41.047  27.435  16.358  1.00  0.00     0.178 HD
HETATM   13  C1  UNL     1      42.725  28.734  15.061  1.00  0.00     0.036 C 
HETATM   14  C15 UNL     1      43.401  29.360  17.378  1.00  0.00     0.208 C 
HETATM   15  C14 UNL     1      42.932  29.479  18.764  1.00  0.00     0.122 C 
HETATM   16  N10 UNL     1      41.611  29.176  19.168  1.00  0.00    -0.179 N 
HETATM   17  N11 UNL     1      43.739  29.882  19.728  1.00  0.00    -0.386 N 
ATOM     18  H10 UNL     1      41.278  29.400  20.106  1.00  0.00     0.185 HD
ATOM     19 2H11 UNL     1      43.413  29.964  20.690  1.00  0.00     0.157 HD
ATOM     20 1H11 UNL     1      44.692  30.101  19.436  1.00  0.00     0.157 HD
BRANCH  14  21
HETATM   21  O1  UNL     1      44.189  30.488  17.083  1.00  0.00    -0.386 OA
ATOM     22  H1  UNL     1      44.632  30.811  17.858  1.00  0.00     0.210 HD
ENDBRANCH  14  21
ENDBRANCH   7   9
ENDBRANCH   6   7
ENDBRANCH   5   6
ENDBRANCH   3   5
ENDBRANCH   2   3
ENDBRANCH   1   2
BRANCH   1  23
HETATM   23  C8  UNL     1      37.140  28.192  22.826  1.00  0.00     0.123 C 
BRANCH  23  24
HETATM   24  N4  UNL     1      36.777  29.377  23.572  1.00  0.00    -0.370 N 
ATOM     25  H4  UNL     1      35.994  29.364  24.224  1.00  0.00     0.161 HD
BRANCH  24  26
HETATM   26  C9  UNL     1      37.482  30.470  23.387  1.00  0.00     0.147 A 
HETATM   27  N5  UNL     1      36.989  31.692  23.224  1.00  0.00    -0.331 N 
HETATM   28  C10 UNL     1      37.835  32.693  23.047  1.00  0.00     0.113 A 
ATOM     29  H5  UNL     1      35.982  31.855  23.234  1.00  0.00     0.168 HD
HETATM   30  C11 UNL     1      37.539  34.062  22.856  1.00  0.00     0.144 A 
HETATM   31  C13 UNL     1      39.166  32.399  23.046  1.00  0.00     0.124 A 
HETATM   32  N7  UNL     1      38.503  34.953  22.693  1.00  0.00    -0.175 N 
HETATM   33  C12 UNL     1      39.799  34.640  22.696  1.00  0.00     0.678 A 
ATOM     34  H7  UNL     1      38.241  35.930  22.559  1.00  0.00     0.186 HD
HETATM   35  N9  UNL     1      40.139  33.354  22.873  1.00  0.00    -0.183 N 
ATOM     36  H9  UNL     1      41.123  33.084  22.880  1.00  0.00     0.185 HD
HETATM   37  S1  UNL     1      39.163  30.707  23.296  1.00  0.00    -0.034 SA
BRANCH  30  38
HETATM   38  N6  UNL     1      36.319  34.488  22.840  1.00  0.00    -0.383 N 
ATOM     39  H62 UNL     1      36.165  35.491  22.943  1.00  0.00     0.157 HD
ATOM     40  H61 UNL     1      35.534  33.845  22.732  1.00  0.00     0.157 HD
ENDBRANCH  30  38
BRANCH  33  41
HETATM   41  N8  UNL     1      40.675  35.546  22.539  1.00  0.00    -0.234 N 
ATOM     42  H82 UNL     1      41.571  35.352  22.093  1.00  0.00     0.174 HD
ATOM     43  H81 UNL     1      40.495  36.495  22.865  1.00  0.00     0.174 HD
ENDBRANCH  33  41
ENDBRANCH  24  26
ENDBRANCH  23  24
ENDBRANCH   1  23
TORSDOF 12
ENDMDL
MODEL 5
REMARK VINA RESULT: -7.983664455      3.742      9.403
REMARK  12 active torsions:
REMARK  status: ('A' for Active; 'I' for Inactive)
REMARK    1  A    between atoms: C3_5  and  N2_6 
REMARK    2  A    between atoms: N2_6  and  C4_8 
REMARK    3  A    between atoms: C4_8  and  C5_9 
REMARK    4  A    between atoms: C5_9  and  N3_10 
REMARK    5  A    between atoms: N3_10  and  C6_12 
REMARK    6  A    between atoms: C6_12  and  C7_13 
REMARK    7  A    between atoms: C7_13  and  C8_14 
REMARK    8  A    between atoms: C8_14  and  N4_15 
REMARK    9  A    between atoms: N4_15  and  C9_17 
REMARK   10  A    between atoms: C11_21  and  N6_22 
REMARK   11  A    between atoms: C12_27  and  N8_28 
REMARK   12  A    between atoms: C15_41  and  O1_42 
ROOT
HETATM    1  C7  UNL     1      42.299  30.146  19.318  1.00  0.00     0.039 C 
ENDROOT
BRANCH   1   2
HETATM    2  C6  UNL     1      43.485  29.363  18.853  1.00  0.00     0.115 C 
BRANCH   2   3
HETATM    3  N3  UNL     1      44.094  29.867  17.650  1.00  0.00    -0.420 N 
ATOM      4  H3  UNL     1      44.381  30.841  17.548  1.00  0.00     0.153 HD
BRANCH   3   5
HETATM    5  C5  UNL     1      44.266  28.907  16.614  1.00  0.00     0.134 C 
BRANCH   5   6
HETATM    6  C4  UNL     1      42.912  28.368  16.134  1.00  0.00     0.157 C 
BRANCH   6   7
HETATM    7  N2  UNL     1      42.738  28.815  14.785  1.00  0.00    -0.225 N 
ATOM      8  H2  UNL     1      42.447  29.785  14.660  1.00  0.00     0.177 HD
BRANCH   7   9
HETATM    9  C3  UNL     1      42.909  28.129  13.720  1.00  0.00     0.675 C 
HETATM   10  N1  UNL     1      42.076  26.978  13.495  1.00  0.00    -0.219 N 
HETATM   11  C2  UNL     1      41.734  26.726  12.118  1.00  0.00     0.131 C 
ATOM     12  H1  UNL     1      41.750  26.383  14.256  1.00  0.00     0.178 HD
HETATM   13  C1  UNL     1      40.880  25.472  12.110  1.00  0.00     0.036 C 
HETATM   14  C15 UNL     1      42.976  26.552  11.296  1.00  0.00     0.208 C 
HETATM   15  C14 UNL     1      43.966  27.597  11.585  1.00  0.00     0.122 C 
HETATM   16  N10 UNL     1      43.897  28.446  12.714  1.00  0.00    -0.179 N 
HETATM   17  N11 UNL     1      44.999  27.800  10.788  1.00  0.00    -0.386 N 
ATOM     18  H10 UNL     1      44.519  29.248  12.813  1.00  0.00     0.185 HD
ATOM     19 2H11 UNL     1      45.687  28.525  10.989  1.00  0.00     0.157 HD
ATOM     20 1H11 UNL     1      45.049  27.188   9.973  1.00  0.00     0.157 HD
BRANCH  14  21
HETATM   21  O1  UNL     1      42.686  26.590   9.920  1.00  0.00    -0.386 OA
ATOM     22  H1  UNL     1      42.031  25.942   9.688  1.00  0.00     0.210 HD
ENDBRANCH  14  21
ENDBRANCH   7   9
ENDBRANCH   6   7
ENDBRANCH   5   6
ENDBRANCH   3   5
ENDBRANCH   2   3
ENDBRANCH   1   2
BRANCH   1  23
HETATM   23  C8  UNL     1      41.112  29.966  18.379  1.00  0.00     0.123 C 
BRANCH  23  24
HETATM   24  N4  UNL     1      40.038  30.839  18.799  1.00  0.00    -0.370 N 
ATOM     25  H4  UNL     1      39.832  31.697  18.287  1.00  0.00     0.161 HD
BRANCH  24  26
HETATM   26  C9  UNL     1      39.336  30.498  19.855  1.00  0.00     0.147 A 
HETATM   27  N5  UNL     1      38.818  29.297  20.087  1.00  0.00    -0.331 N 
HETATM   28  C10 UNL     1      38.132  29.113  21.202  1.00  0.00     0.113 A 
ATOM     29  H5  UNL     1      38.946  28.535  19.421  1.00  0.00     0.168 HD
HETATM   30  C11 UNL     1      37.499  27.931  21.652  1.00  0.00     0.144 A 
HETATM   31  C13 UNL     1      38.003  30.177  22.044  1.00  0.00     0.124 A 
HETATM   32  N7  UNL     1      36.845  27.902  22.802  1.00  0.00    -0.175 N 
HETATM   33  C12 UNL     1      36.732  28.958  23.609  1.00  0.00     0.678 A 
ATOM     34  H7  UNL     1      36.404  27.027  23.086  1.00  0.00     0.186 HD
HETATM   35  N9  UNL     1      37.314  30.108  23.232  1.00  0.00    -0.183 N 
ATOM     36  H9  UNL     1      37.245  30.932  23.829  1.00  0.00     0.185 HD
HETATM   37  S1  UNL     1      38.863  31.401  21.216  1.00  0.00    -0.034 SA
BRANCH  30  38
HETATM   38  N6  UNL     1      37.543  26.842  20.959  1.00  0.00    -0.383 N 
ATOM     39  H62 UNL     1      38.444  26.563  20.572  1.00  0.00     0.157 HD
ATOM     40  H61 UNL     1      36.706  26.281  20.800  1.00  0.00     0.157 HD
ENDBRANCH  30  38
BRANCH  33  41
HETATM   41  N8  UNL     1      36.094  28.861  24.702  1.00  0.00    -0.234 N 
ATOM     42  H82 UNL     1      35.738  27.965  25.036  1.00  0.00     0.174 HD
ATOM     43  H81 UNL     1      35.922  29.689  25.271  1.00  0.00     0.174 HD
ENDBRANCH  33  41
ENDBRANCH  24  26
ENDBRANCH  23  24
ENDBRANCH   1  23
TORSDOF 12
ENDMDL
