MODEL 1
REMARK VINA RESULT: -8.459944552      0.000      0.000
REMARK  2 active torsions:
REMARK  status: ('A' for Active; 'I' for Inactive)
REMARK    1  A    between atoms: C6_6  and  N1_7 
REMARK       I    between atoms: N2_9  and  C7_11 
REMARK    2  A    between atoms: C8_16  and  C9_17 
ROOT
HETATM    1  C1  UNL     1      21.540  39.946  22.181  1.00  0.00     0.016 C 
HETATM    2  C2  UNL     1      21.379  41.210  22.973  1.00  0.00     0.058 C 
HETATM    3  C3  UNL     1      21.897  41.072  24.365  1.00  0.00     0.049 C 
HETATM    4  C4  UNL     1      21.418  42.136  25.243  1.00  0.00    -0.049 A 
HETATM    5  C5  UNL     1      21.645  41.905  26.581  1.00  0.00     0.039 A 
HETATM    6  C6  UNL     1      21.260  42.802  27.577  1.00  0.00     0.063 A 
HETATM    7  C8  UNL     1      20.625  43.975  27.227  1.00  0.00     0.076 A 
HETATM    8  C10 UNL     1      20.404  44.196  25.895  1.00  0.00     0.026 A 
HETATM    9  C11 UNL     1      20.783  43.306  24.883  1.00  0.00    -0.051 A 
HETATM   10  C12 UNL     1      20.392  43.860  23.607  1.00  0.00     0.045 C 
HETATM   11  C13 UNL     1      21.207  43.600  22.415  1.00  0.00     0.084 C 
HETATM   12  C14 UNL     1      22.061  42.394  22.378  1.00  0.00     0.247 C 
HETATM   13  F4  UNL     1      23.278  42.671  22.979  1.00  0.00    -0.206 F 
HETATM   14  F5  UNL     1      22.317  42.085  21.034  1.00  0.00    -0.206 F 
ENDROOT
BRANCH   6  15
HETATM   15  N1  UNL     1      21.503  42.544  28.953  1.00  0.00    -0.298 N 
HETATM   16  N2  UNL     1      22.504  41.792  29.221  1.00  0.00    -0.273 N 
HETATM   17  C7  UNL     1      22.864  41.454  30.543  1.00  0.00     0.200 C 
ATOM     18  H2  UNL     1      23.063  41.424  28.451  1.00  0.00     0.189 HD
HETATM   19  N3  UNL     1      22.286  41.918  31.598  1.00  0.00    -0.372 N 
HETATM   20  N4  UNL     1      23.935  40.537  30.730  1.00  0.00    -0.062 NA
ATOM     21  H32 UNL     1      21.518  42.576  31.464  1.00  0.00     0.158 HD
ATOM     22  H31 UNL     1      22.545  41.674  32.554  1.00  0.00     0.158 HD
ATOM     23  H1  UNL     1      20.913  42.937  29.686  1.00  0.00     0.187 HD
ENDBRANCH   6  15
BRANCH   7  24
HETATM   24  C9  UNL     1      20.222  44.917  28.297  1.00  0.00     0.419 C 
HETATM   25  F1  UNL     1      19.574  44.251  29.343  1.00  0.00    -0.166 F 
HETATM   26  F2  UNL     1      21.301  45.611  28.816  1.00  0.00    -0.166 F 
HETATM   27  F3  UNL     1      19.320  45.860  27.840  1.00  0.00    -0.166 F 
ENDBRANCH   7  24
TORSDOF 2
ENDMDL
MODEL 2
REMARK VINA RESULT: -8.402916701      2.507      3.741
REMARK  2 active torsions:
REMARK  status: ('A' for Active; 'I' for Inactive)
REMARK    1  A    between atoms: C6_6  and  N1_7 
REMARK       I    between atoms: N2_9  and  C7_11 
REMARK    2  A    between atoms: C8_16  and  C9_17 
ROOT
HETATM    1  C1  UNL     1      21.797  45.514  21.600  1.00  0.00     0.016 C 
HETATM    2  C2  UNL     1      21.908  44.338  22.524  1.00  0.00     0.058 C 
HETATM    3  C3  UNL     1      21.338  44.625  23.871  1.00  0.00     0.049 C 
HETATM    4  C4  UNL     1      21.766  43.652  24.874  1.00  0.00    -0.049 A 
HETATM    5  C5  UNL     1      21.491  44.023  26.170  1.00  0.00     0.039 A 
HETATM    6  C6  UNL     1      21.823  43.231  27.268  1.00  0.00     0.063 A 
HETATM    7  C8  UNL     1      22.454  42.021  27.068  1.00  0.00     0.076 A 
HETATM    8  C10 UNL     1      22.724  41.661  25.776  1.00  0.00     0.026 A 
HETATM    9  C11 UNL     1      22.398  42.445  24.663  1.00  0.00    -0.051 A 
HETATM   10  C12 UNL     1      22.831  41.757  23.468  1.00  0.00     0.045 C 
HETATM   11  C13 UNL     1      22.067  41.901  22.223  1.00  0.00     0.084 C 
HETATM   12  C14 UNL     1      21.233  43.105  22.027  1.00  0.00     0.247 C 
HETATM   13  F4  UNL     1      19.990  42.905  22.603  1.00  0.00    -0.206 F 
HETATM   14  F5  UNL     1      21.034  43.276  20.649  1.00  0.00    -0.206 F 
ENDROOT
BRANCH   6  15
HETATM   15  N1  UNL     1      21.529  43.633  28.599  1.00  0.00    -0.298 N 
HETATM   16  N2  UNL     1      20.380  44.162  28.792  1.00  0.00    -0.273 N 
HETATM   17  C7  UNL     1      19.954  44.605  30.062  1.00  0.00     0.200 C 
ATOM     18  H2  UNL     1      19.747  44.267  27.998  1.00  0.00     0.189 HD
HETATM   19  N3  UNL     1      20.628  44.456  31.151  1.00  0.00    -0.372 N 
HETATM   20  N4  UNL     1      18.696  45.264  30.152  1.00  0.00    -0.062 NA
ATOM     21  H32 UNL     1      21.530  43.984  31.086  1.00  0.00     0.158 HD
ATOM     22  H31 UNL     1      20.321  44.777  32.069  1.00  0.00     0.158 HD
ATOM     23  H1  UNL     1      22.198  43.507  29.359  1.00  0.00     0.187 HD
ENDBRANCH   6  15
BRANCH   7  24
HETATM   24  C9  UNL     1      22.801  41.192  28.245  1.00  0.00     0.419 C 
HETATM   25  F1  UNL     1      23.297  41.976  29.292  1.00  0.00    -0.166 F 
HETATM   26  F2  UNL     1      21.718  40.466  28.710  1.00  0.00    -0.166 F 
HETATM   27  F3  UNL     1      23.800  40.281  27.956  1.00  0.00    -0.166 F 
ENDBRANCH   7  24
TORSDOF 2
ENDMDL
MODEL 3
REMARK VINA RESULT: -8.034375761      0.978      1.119
REMARK  2 active torsions:
REMARK  status: ('A' for Active; 'I' for Inactive)
REMARK    1  A    between atoms: C6_6  and  N1_7 
REMARK       I    between atoms: N2_9  and  C7_11 
REMARK    2  A    between atoms: C8_16  and  C9_17 
ROOT
HETATM    1  C1  UNL     1      21.896  40.821  22.145  1.00  0.00     0.016 C 
HETATM    2  C2  UNL     1      21.717  41.880  23.193  1.00  0.00     0.058 C 
HETATM    3  C3  UNL     1      22.326  41.490  24.497  1.00  0.00     0.049 C 
HETATM    4  C4  UNL     1      21.846  42.316  25.602  1.00  0.00    -0.049 A 
HETATM    5  C5  UNL     1      22.166  41.828  26.849  1.00  0.00     0.039 A 
HETATM    6  C6  UNL     1      21.796  42.471  28.028  1.00  0.00     0.063 A 
HETATM    7  C8  UNL     1      21.079  43.648  27.966  1.00  0.00     0.076 A 
HETATM    8  C10 UNL     1      20.765  44.125  26.722  1.00  0.00     0.026 A 
HETATM    9  C11 UNL     1      21.128  43.492  25.529  1.00  0.00    -0.051 A 
HETATM   10  C12 UNL     1      20.631  44.271  24.418  1.00  0.00     0.045 C 
HETATM   11  C13 UNL     1      21.384  44.317  23.160  1.00  0.00     0.084 C 
HETATM   12  C14 UNL     1      22.297  43.204  22.828  1.00  0.00     0.247 C 
HETATM   13  F4  UNL     1      23.532  43.428  23.414  1.00  0.00    -0.206 F 
HETATM   14  F5  UNL     1      22.487  43.197  21.438  1.00  0.00    -0.206 F 
ENDROOT
BRANCH   6  15
HETATM   15  N1  UNL     1      22.136  41.950  29.306  1.00  0.00    -0.298 N 
HETATM   16  N2  UNL     1      23.320  41.478  29.429  1.00  0.00    -0.273 N 
HETATM   17  C7  UNL     1      23.794  40.931  30.640  1.00  0.00     0.200 C 
ATOM     18  H2  UNL     1      23.944  41.499  28.623  1.00  0.00     0.189 HD
HETATM   19  N3  UNL     1      23.130  40.920  31.746  1.00  0.00    -0.372 N 
HETATM   20  N4  UNL     1      25.092  40.349  30.647  1.00  0.00    -0.062 NA
ATOM     21  H32 UNL     1      22.200  41.337  31.740  1.00  0.00     0.158 HD
ATOM     22  H31 UNL     1      23.472  40.523  32.621  1.00  0.00     0.158 HD
ATOM     23  H1  UNL     1      21.474  41.952  30.081  1.00  0.00     0.187 HD
ENDBRANCH   6  15
BRANCH   7  24
HETATM   24  C9  UNL     1      20.693  44.319  29.228  1.00  0.00     0.419 C 
HETATM   25  F1  UNL     1      19.306  44.293  29.414  1.00  0.00    -0.166 F 
HETATM   26  F2  UNL     1      21.298  43.744  30.332  1.00  0.00    -0.166 F 
HETATM   27  F3  UNL     1      21.044  45.656  29.229  1.00  0.00    -0.166 F 
ENDBRANCH   7  24
TORSDOF 2
ENDMDL
MODEL 4
REMARK VINA RESULT: -7.969236542      0.984      1.031
REMARK  2 active torsions:
REMARK  status: ('A' for Active; 'I' for Inactive)
REMARK    1  A    between atoms: C6_6  and  N1_7 
REMARK       I    between atoms: N2_9  and  C7_11 
REMARK    2  A    between atoms: C8_16  and  C9_17 
ROOT
HETATM    1  C1  UNL     1      21.412  40.805  20.996  1.00  0.00     0.016 C 
HETATM    2  C2  UNL     1      21.305  41.840  22.077  1.00  0.00     0.058 C 
HETATM    3  C3  UNL     1      21.920  41.384  23.356  1.00  0.00     0.049 C 
HETATM    4  C4  UNL     1      21.502  42.200  24.494  1.00  0.00    -0.049 A 
HETATM    5  C5  UNL     1      21.822  41.660  25.719  1.00  0.00     0.039 A 
HETATM    6  C6  UNL     1      21.507  42.286  26.924  1.00  0.00     0.063 A 
HETATM    7  C8  UNL     1      20.846  43.497  26.910  1.00  0.00     0.076 A 
HETATM    8  C10 UNL     1      20.531  44.024  25.687  1.00  0.00     0.026 A 
HETATM    9  C11 UNL     1      20.840  43.409  24.469  1.00  0.00    -0.051 A 
HETATM   10  C12 UNL     1      20.359  44.244  23.392  1.00  0.00     0.045 C 
HETATM   11  C13 UNL     1      21.089  44.291  22.120  1.00  0.00     0.084 C 
HETATM   12  C14 UNL     1      21.940  43.145  21.737  1.00  0.00     0.247 C 
HETATM   13  F4  UNL     1      23.196  43.294  22.303  1.00  0.00    -0.206 F 
HETATM   14  F5  UNL     1      22.102  43.171  20.344  1.00  0.00    -0.206 F 
ENDROOT
BRANCH   6  15
HETATM   15  N1  UNL     1      21.847  41.712  28.179  1.00  0.00    -0.298 N 
HETATM   16  N2  UNL     1      23.097  41.599  28.432  1.00  0.00    -0.273 N 
HETATM   17  C7  UNL     1      23.579  41.050  29.638  1.00  0.00     0.200 C 
ATOM     18  H2  UNL     1      23.770  41.919  27.735  1.00  0.00     0.189 HD
HETATM   19  N3  UNL     1      22.832  40.685  30.624  1.00  0.00    -0.372 N 
HETATM   20  N4  UNL     1      24.984  40.883  29.782  1.00  0.00    -0.062 NA
ATOM     21  H32 UNL     1      21.824  40.805  30.521  1.00  0.00     0.158 HD
ATOM     22  H31 UNL     1      23.180  40.287  31.496  1.00  0.00     0.158 HD
ATOM     23  H1  UNL     1      21.134  41.407  28.842  1.00  0.00     0.187 HD
ENDBRANCH   6  15
BRANCH   7  24
HETATM   24  C9  UNL     1      20.518  44.148  28.199  1.00  0.00     0.419 C 
HETATM   25  F1  UNL     1      19.563  43.414  28.911  1.00  0.00    -0.166 F 
HETATM   26  F2  UNL     1      21.634  44.316  28.999  1.00  0.00    -0.166 F 
HETATM   27  F3  UNL     1      19.964  45.401  28.016  1.00  0.00    -0.166 F 
ENDBRANCH   7  24
TORSDOF 2
ENDMDL
MODEL 5
REMARK VINA RESULT: -7.813525082      2.630      3.810
REMARK  2 active torsions:
REMARK  status: ('A' for Active; 'I' for Inactive)
REMARK    1  A    between atoms: C6_6  and  N1_7 
REMARK       I    between atoms: N2_9  and  C7_11 
REMARK    2  A    between atoms: C8_16  and  C9_17 
ROOT
HETATM    1  C1  UNL     1      21.695  45.566  22.854  1.00  0.00     0.016 C 
HETATM    2  C2  UNL     1      21.780  44.336  23.709  1.00  0.00     0.058 C 
HETATM    3  C3  UNL     1      21.268  44.574  25.089  1.00  0.00     0.049 C 
HETATM    4  C4  UNL     1      21.681  43.529  26.022  1.00  0.00    -0.049 A 
HETATM    5  C5  UNL     1      21.466  43.840  27.345  1.00  0.00     0.039 A 
HETATM    6  C6  UNL     1      21.795  42.974  28.387  1.00  0.00     0.063 A 
HETATM    7  C8  UNL     1      22.361  41.749  28.100  1.00  0.00     0.076 A 
HETATM    8  C10 UNL     1      22.572  41.449  26.782  1.00  0.00     0.026 A 
HETATM    9  C11 UNL     1      22.247  42.307  25.725  1.00  0.00    -0.051 A 
HETATM   10  C12 UNL     1      22.608  41.668  24.480  1.00  0.00     0.045 C 
HETATM   11  C13 UNL     1      21.812  41.915  23.272  1.00  0.00     0.084 C 
HETATM   12  C14 UNL     1      21.031  43.165  23.170  1.00  0.00     0.247 C 
HETATM   13  F4  UNL     1      19.799  42.991  23.778  1.00  0.00    -0.206 F 
HETATM   14  F5  UNL     1      20.796  43.421  21.811  1.00  0.00    -0.206 F 
ENDROOT
BRANCH   6  15
HETATM   15  N1  UNL     1      21.564  43.315  29.747  1.00  0.00    -0.298 N 
HETATM   16  N2  UNL     1      20.589  44.112  29.975  1.00  0.00    -0.273 N 
HETATM   17  C7  UNL     1      20.245  44.534  31.276  1.00  0.00     0.200 C 
ATOM     18  H2  UNL     1      20.040  44.455  29.187  1.00  0.00     0.189 HD
HETATM   19  N3  UNL     1      20.810  44.110  32.355  1.00  0.00    -0.372 N 
HETATM   20  N4  UNL     1      19.204  45.494  31.414  1.00  0.00    -0.062 NA
ATOM     21  H32 UNL     1      21.557  43.421  32.256  1.00  0.00     0.158 HD
ATOM     22  H31 UNL     1      20.562  44.414  33.296  1.00  0.00     0.158 HD
ATOM     23  H1  UNL     1      22.144  42.944  30.500  1.00  0.00     0.187 HD
ENDBRANCH   6  15
BRANCH   7  24
HETATM   24  C9  UNL     1      22.706  40.841  29.218  1.00  0.00     0.419 C 
HETATM   25  F1  UNL     1      24.080  40.583  29.258  1.00  0.00    -0.166 F 
HETATM   26  F2  UNL     1      22.315  41.349  30.444  1.00  0.00    -0.166 F 
HETATM   27  F3  UNL     1      22.099  39.606  29.084  1.00  0.00    -0.166 F 
ENDBRANCH   7  24
TORSDOF 2
ENDMDL
