MODEL 1
REMARK VINA RESULT: -6.691632780      0.000      0.000
REMARK  3 active torsions:
REMARK  status: ('A' for Active; 'I' for Inactive)
REMARK    1  A    between atoms: C2_2  and  C5_5 
REMARK    2  A    between atoms: C7_12  and  C8_13 
REMARK    3  A    between atoms: C9_15  and  C10_16 
ROOT
HETATM    1  C5  UNL     1      21.156  43.535  29.786  1.00  0.00     0.047 A 
HETATM    2  N1  UNL     1      21.557  42.958  30.942  1.00  0.00    -0.334 N 
ATOM      3  H1  UNL     1      21.272  43.275  31.868  1.00  0.00     0.168 HD
HETATM    4  C6  UNL     1      22.368  41.925  30.722  1.00  0.00     0.176 A 
HETATM    5  S1  UNL     1      23.108  40.918  31.787  1.00  0.00    -0.041 SA
HETATM    6  N2  UNL     1      22.477  41.857  29.389  1.00  0.00    -0.330 N 
ATOM      7  H2  UNL     1      23.038  41.164  28.894  1.00  0.00     0.168 HD
HETATM    8  C7  UNL     1      21.759  42.813  28.789  1.00  0.00     0.078 A 
ENDROOT
BRANCH   8   9
HETATM    9  C8  UNL     1      21.677  43.014  27.330  1.00  0.00     0.073 A 
HETATM   10  S2  UNL     1      20.854  42.181  26.112  1.00  0.00    -0.080 SA
HETATM   11  C9  UNL     1      21.436  42.994  24.732  1.00  0.00     0.092 A 
HETATM   12  C11 UNL     1      22.281  43.911  25.248  1.00  0.00     0.067 A 
HETATM   13  C12 UNL     1      22.409  43.923  26.610  1.00  0.00     0.137 A 
HETATM   14  F4  UNL     1      23.274  44.871  27.177  1.00  0.00    -0.205 F 
BRANCH  11  15
HETATM   15  C10 UNL     1      21.116  42.757  23.290  1.00  0.00     0.423 C 
HETATM   16  F1  UNL     1      19.805  43.138  23.069  1.00  0.00    -0.166 F 
HETATM   17  F2  UNL     1      21.959  43.551  22.534  1.00  0.00    -0.166 F 
HETATM   18  F3  UNL     1      21.253  41.432  22.914  1.00  0.00    -0.166 F 
ENDBRANCH  11  15
ENDBRANCH   8   9
BRANCH   1  19
HETATM   19  C2  UNL     1      20.266  44.695  29.695  1.00  0.00    -0.006 C 
HETATM   20  C1  UNL     1      19.846  45.016  31.164  1.00  0.00     0.021 C 
HETATM   21  C3  UNL     1      21.040  45.959  29.289  1.00  0.00     0.021 C 
HETATM   22  C4  UNL     1      18.965  44.496  28.991  1.00  0.00     0.021 C 
ENDBRANCH   1  19
TORSDOF 3
ENDMDL
MODEL 2
REMARK VINA RESULT: -6.688352140      2.059      3.342
REMARK  3 active torsions:
REMARK  status: ('A' for Active; 'I' for Inactive)
REMARK    1  A    between atoms: C2_2  and  C5_5 
REMARK    2  A    between atoms: C7_12  and  C8_13 
REMARK    3  A    between atoms: C9_15  and  C10_16 
ROOT
HETATM    1  C5  UNL     1      22.087  42.305  29.726  1.00  0.00     0.047 A 
HETATM    2  N1  UNL     1      21.692  42.886  30.881  1.00  0.00    -0.334 N 
ATOM      3  H1  UNL     1      21.981  42.572  31.807  1.00  0.00     0.168 HD
HETATM    4  C6  UNL     1      20.879  43.918  30.663  1.00  0.00     0.176 A 
HETATM    5  S1  UNL     1      20.144  44.927  31.728  1.00  0.00    -0.041 SA
HETATM    6  N2  UNL     1      20.762  43.981  29.330  1.00  0.00    -0.330 N 
ATOM      7  H2  UNL     1      20.199  44.672  28.835  1.00  0.00     0.168 HD
HETATM    8  C7  UNL     1      21.478  43.024  28.729  1.00  0.00     0.078 A 
ENDROOT
BRANCH   8   9
HETATM    9  C8  UNL     1      21.552  42.818  27.271  1.00  0.00     0.073 A 
HETATM   10  S2  UNL     1      22.375  43.642  26.046  1.00  0.00    -0.080 SA
HETATM   11  C9  UNL     1      21.782  42.829  24.671  1.00  0.00     0.092 A 
HETATM   12  C11 UNL     1      20.933  41.919  25.194  1.00  0.00     0.067 A 
HETATM   13  C12 UNL     1      20.812  41.911  26.556  1.00  0.00     0.137 A 
HETATM   14  F4  UNL     1      19.943  40.970  27.130  1.00  0.00    -0.205 F 
BRANCH  11  15
HETATM   15  C10 UNL     1      22.097  43.060  23.228  1.00  0.00     0.423 C 
HETATM   16  F1  UNL     1      22.071  44.423  22.991  1.00  0.00    -0.166 F 
HETATM   17  F2  UNL     1      23.371  42.577  22.990  1.00  0.00    -0.166 F 
HETATM   18  F3  UNL     1      21.196  42.453  22.372  1.00  0.00    -0.166 F 
ENDBRANCH  11  15
ENDBRANCH   8   9
BRANCH   1  19
HETATM   19  C2  UNL     1      22.977  41.145  29.633  1.00  0.00    -0.006 C 
HETATM   20  C1  UNL     1      23.408  40.832  31.101  1.00  0.00     0.021 C 
HETATM   21  C3  UNL     1      22.201  39.879  29.239  1.00  0.00     0.021 C 
HETATM   22  C4  UNL     1      24.272  41.342  28.919  1.00  0.00     0.021 C 
ENDBRANCH   1  19
TORSDOF 3
ENDMDL
MODEL 3
REMARK VINA RESULT: -6.571046820      0.799      1.038
REMARK  3 active torsions:
REMARK  status: ('A' for Active; 'I' for Inactive)
REMARK    1  A    between atoms: C2_2  and  C5_5 
REMARK    2  A    between atoms: C7_12  and  C8_13 
REMARK    3  A    between atoms: C9_15  and  C10_16 
ROOT
HETATM    1  C5  UNL     1      21.015  43.657  30.160  1.00  0.00     0.047 A 
HETATM    2  N1  UNL     1      21.462  43.278  31.379  1.00  0.00    -0.334 N 
ATOM      3  H1  UNL     1      21.230  43.759  32.248  1.00  0.00     0.168 HD
HETATM    4  C6  UNL     1      22.240  42.200  31.307  1.00  0.00     0.176 A 
HETATM    5  S1  UNL     1      23.012  41.374  32.496  1.00  0.00    -0.041 SA
HETATM    6  N2  UNL     1      22.282  41.899  30.002  1.00  0.00    -0.330 N 
ATOM      7  H2  UNL     1      22.804  41.115  29.611  1.00  0.00     0.168 HD
HETATM    8  C7  UNL     1      21.554  42.756  29.277  1.00  0.00     0.078 A 
ENDROOT
BRANCH   8   9
HETATM    9  C8  UNL     1      21.404  42.703  27.812  1.00  0.00     0.073 A 
HETATM   10  S2  UNL     1      20.510  41.690  26.796  1.00  0.00    -0.080 SA
HETATM   11  C9  UNL     1      21.035  42.238  25.270  1.00  0.00     0.092 A 
HETATM   12  C11 UNL     1      21.918  43.211  25.580  1.00  0.00     0.067 A 
HETATM   13  C12 UNL     1      22.112  43.457  26.911  1.00  0.00     0.137 A 
HETATM   14  F4  UNL     1      23.018  44.469  27.265  1.00  0.00    -0.205 F 
BRANCH  11  15
HETATM   15  C10 UNL     1      20.642  41.762  23.908  1.00  0.00     0.423 C 
HETATM   16  F1  UNL     1      19.938  40.579  24.049  1.00  0.00    -0.166 F 
HETATM   17  F2  UNL     1      19.821  42.722  23.346  1.00  0.00    -0.166 F 
HETATM   18  F3  UNL     1      21.727  41.526  23.082  1.00  0.00    -0.166 F 
ENDBRANCH  11  15
ENDBRANCH   8   9
BRANCH   1  19
HETATM   19  C2  UNL     1      20.145  44.808  29.907  1.00  0.00    -0.006 C 
HETATM   20  C1  UNL     1      19.720  45.326  31.317  1.00  0.00     0.021 C 
HETATM   21  C3  UNL     1      20.942  45.995  29.345  1.00  0.00     0.021 C 
HETATM   22  C4  UNL     1      18.846  44.537  29.224  1.00  0.00     0.021 C 
ENDBRANCH   1  19
TORSDOF 3
ENDMDL
MODEL 4
REMARK VINA RESULT: -6.566842882      1.649      3.057
REMARK  3 active torsions:
REMARK  status: ('A' for Active; 'I' for Inactive)
REMARK    1  A    between atoms: C2_2  and  C5_5 
REMARK    2  A    between atoms: C7_12  and  C8_13 
REMARK    3  A    between atoms: C9_15  and  C10_16 
ROOT
HETATM    1  C5  UNL     1      22.108  42.360  29.794  1.00  0.00     0.047 A 
HETATM    2  N1  UNL     1      21.689  42.826  30.992  1.00  0.00    -0.334 N 
ATOM      3  H1  UNL     1      21.949  42.415  31.888  1.00  0.00     0.168 HD
HETATM    4  C6  UNL     1      20.897  43.888  30.859  1.00  0.00     0.176 A 
HETATM    5  S1  UNL     1      20.146  44.796  32.002  1.00  0.00    -0.041 SA
HETATM    6  N2  UNL     1      20.818  44.089  29.537  1.00  0.00    -0.330 N 
ATOM      7  H2  UNL     1      20.278  44.836  29.101  1.00  0.00     0.168 HD
HETATM    8  C7  UNL     1      21.537  43.186  28.860  1.00  0.00     0.078 A 
ENDROOT
BRANCH   8   9
HETATM    9  C8  UNL     1      21.649  43.128  27.391  1.00  0.00     0.073 A 
HETATM   10  S2  UNL     1      20.996  42.075  26.242  1.00  0.00    -0.080 SA
HETATM   11  C9  UNL     1      21.754  42.649  24.828  1.00  0.00     0.092 A 
HETATM   12  C11 UNL     1      22.522  43.662  25.280  1.00  0.00     0.067 A 
HETATM   13  C12 UNL     1      22.468  43.916  26.623  1.00  0.00     0.137 A 
HETATM   14  F4  UNL     1      23.249  44.969  27.122  1.00  0.00    -0.205 F 
BRANCH  11  15
HETATM   15  C10 UNL     1      21.629  42.156  23.422  1.00  0.00     0.423 C 
HETATM   16  F1  UNL     1      22.805  42.446  22.754  1.00  0.00    -0.166 F 
HETATM   17  F2  UNL     1      21.453  40.785  23.468  1.00  0.00    -0.166 F 
HETATM   18  F3  UNL     1      20.582  42.742  22.732  1.00  0.00    -0.166 F 
ENDBRANCH  11  15
ENDBRANCH   8   9
BRANCH   1  19
HETATM   19  C2  UNL     1      22.985  41.201  29.607  1.00  0.00    -0.006 C 
HETATM   20  C1  UNL     1      23.427  40.776  31.042  1.00  0.00     0.021 C 
HETATM   21  C3  UNL     1      22.192  39.975  29.128  1.00  0.00     0.021 C 
HETATM   22  C4  UNL     1      24.275  41.437  28.895  1.00  0.00     0.021 C 
ENDBRANCH   1  19
TORSDOF 3
ENDMDL
MODEL 5
REMARK VINA RESULT: -6.561237027      0.457      1.044
REMARK  3 active torsions:
REMARK  status: ('A' for Active; 'I' for Inactive)
REMARK    1  A    between atoms: C2_2  and  C5_5 
REMARK    2  A    between atoms: C7_12  and  C8_13 
REMARK    3  A    between atoms: C9_15  and  C10_16 
ROOT
HETATM    1  C5  UNL     1      21.241  43.481  29.634  1.00  0.00     0.047 A 
HETATM    2  N1  UNL     1      21.618  42.802  30.741  1.00  0.00    -0.334 N 
ATOM      3  H1  UNL     1      21.317  43.039  31.686  1.00  0.00     0.168 HD
HETATM    4  C6  UNL     1      22.428  41.788  30.447  1.00  0.00     0.176 A 
HETATM    5  S1  UNL     1      23.144  40.688  31.432  1.00  0.00    -0.041 SA
HETATM    6  N2  UNL     1      22.563  41.837  29.115  1.00  0.00    -0.330 N 
ATOM      7  H2  UNL     1      23.130  41.187  28.571  1.00  0.00     0.168 HD
HETATM    8  C7  UNL     1      21.860  42.846  28.588  1.00  0.00     0.078 A 
ENDROOT
BRANCH   8   9
HETATM    9  C8  UNL     1      21.806  43.175  27.152  1.00  0.00     0.073 A 
HETATM   10  S2  UNL     1      20.956  42.493  25.859  1.00  0.00    -0.080 SA
HETATM   11  C9  UNL     1      21.596  43.389  24.559  1.00  0.00     0.092 A 
HETATM   12  C11 UNL     1      22.481  44.212  25.158  1.00  0.00     0.067 A 
HETATM   13  C12 UNL     1      22.593  44.102  26.517  1.00  0.00     0.137 A 
HETATM   14  F4  UNL     1      23.499  44.951  27.170  1.00  0.00    -0.205 F 
BRANCH  11  15
HETATM   15  C10 UNL     1      21.282  43.293  23.100  1.00  0.00     0.423 C 
HETATM   16  F1  UNL     1      22.047  42.275  22.559  1.00  0.00    -0.166 F 
HETATM   17  F2  UNL     1      19.941  42.976  22.976  1.00  0.00    -0.166 F 
HETATM   18  F3  UNL     1      21.557  44.459  22.408  1.00  0.00    -0.166 F 
ENDBRANCH  11  15
ENDBRANCH   8   9
BRANCH   1  19
HETATM   19  C2  UNL     1      20.358  44.650  29.628  1.00  0.00    -0.006 C 
HETATM   20  C1  UNL     1      19.975  44.891  31.122  1.00  0.00     0.021 C 
HETATM   21  C3  UNL     1      21.131  45.930  29.274  1.00  0.00     0.021 C 
HETATM   22  C4  UNL     1      19.039  44.498  28.946  1.00  0.00     0.021 C 
ENDBRANCH   1  19
TORSDOF 3
ENDMDL
