MODEL 1
REMARK VINA RESULT: -6.021825092      0.000      0.000
REMARK  5 active torsions:
REMARK  status: ('A' for Active; 'I' for Inactive)
REMARK       I    between atoms: N3_6  and  C3_8 
REMARK    1  A    between atoms: C5_12  and  C6_13 
REMARK    2  A    between atoms: C6_13  and  C7_14 
REMARK    3  A    between atoms: C6_13  and  C10_20 
REMARK    4  A    between atoms: C10_20  and  N6_21 
REMARK    5  A    between atoms: C10_20  and  C11_25 
ROOT
HETATM    1  C6  UNL     1      16.708  49.361 -53.342  1.00  0.00     0.134 C 
ENDROOT
BRANCH   1   2
HETATM    2  C5  UNL     1      16.610  49.836 -54.733  1.00  0.00     0.044 A 
HETATM    3  N1  UNL     1      17.186  50.980 -55.136  1.00  0.00    -0.298 N 
HETATM    4  C1  UNL     1      17.972  51.923 -54.337  1.00  0.00     0.177 C 
HETATM    5  N2  UNL     1      16.944  51.172 -56.434  1.00  0.00    -0.283 N 
HETATM    6  C2  UNL     1      16.204  50.143 -56.876  1.00  0.00     0.125 A 
ATOM      7  H2  UNL     1      17.266  51.962 -56.993  1.00  0.00     0.188 HD
HETATM    8  N3  UNL     1      15.749  49.928 -58.066  1.00  0.00    -0.296 N 
HETATM    9  C4  UNL     1      15.990  49.301 -55.822  1.00  0.00     0.077 A 
HETATM   10  C3  UNL     1      15.965  50.786 -59.151  1.00  0.00     0.334 C 
ATOM     11  H3  UNL     1      15.200  49.083 -58.224  1.00  0.00     0.171 HD
HETATM   12  N4  UNL     1      15.125  51.882 -59.418  1.00  0.00    -0.040 NA
HETATM   13  O1  UNL     1      16.947  50.589 -59.936  1.00  0.00    -0.251 OA
ENDBRANCH   1   2
BRANCH   1  14
HETATM   14  C7  UNL     1      15.307  49.004 -52.902  1.00  0.00     0.063 A 
HETATM   15  N5  UNL     1      14.756  47.810 -52.739  1.00  0.00    -0.362 N 
HETATM   16  C8  UNL     1      13.526  47.722 -52.350  1.00  0.00     0.096 A 
ATOM     17  H5  UNL     1      15.298  46.965 -52.921  1.00  0.00     0.165 HD
HETATM   18  C9  UNL     1      12.838  48.885 -52.121  1.00  0.00     0.068 A 
HETATM   19  S1  UNL     1      14.033  50.061 -52.487  1.00  0.00    -0.086 SA
ENDBRANCH   1  14
BRANCH   1  20
HETATM   20  C10 UNL     1      17.545  48.159 -53.112  1.00  0.00     0.288 C 
BRANCH  20  21
HETATM   21  N6  UNL     1      18.645  47.968 -54.004  1.00  0.00    -0.066 N 
ATOM     22  H63 UNL     1      18.347  48.152 -54.961  1.00  0.00     0.275 HD
ATOM     23  H62 UNL     1      19.326  48.717 -53.874  1.00  0.00     0.275 HD
ATOM     24  H61 UNL     1      19.117  47.065 -53.958  1.00  0.00     0.275 HD
ENDBRANCH  20  21
BRANCH  20  25
HETATM   25  C11 UNL     1      17.960  48.019 -51.675  1.00  0.00     0.262 C 
HETATM   26  N7  UNL     1      17.436  46.949 -50.897  1.00  0.00    -0.060 NA
HETATM   27  O2  UNL     1      18.752  48.808 -51.131  1.00  0.00    -0.275 OA
ENDBRANCH  20  25
ENDBRANCH   1  20
TORSDOF 5
ENDMDL
MODEL 2
REMARK VINA RESULT: -5.897015932      3.290      6.810
REMARK  5 active torsions:
REMARK  status: ('A' for Active; 'I' for Inactive)
REMARK       I    between atoms: N3_6  and  C3_8 
REMARK    1  A    between atoms: C5_12  and  C6_13 
REMARK    2  A    between atoms: C6_13  and  C7_14 
REMARK    3  A    between atoms: C6_13  and  C10_20 
REMARK    4  A    between atoms: C10_20  and  N6_21 
REMARK    5  A    between atoms: C10_20  and  C11_25 
ROOT
HETATM    1  C6  UNL     1      15.163  49.331 -53.632  1.00  0.00     0.134 C 
ENDROOT
BRANCH   1   2
HETATM    2  C5  UNL     1      14.707  49.406 -52.234  1.00  0.00     0.044 A 
HETATM    3  N1  UNL     1      14.152  50.517 -51.724  1.00  0.00    -0.298 N 
HETATM    4  C1  UNL     1      13.903  51.791 -52.402  1.00  0.00     0.177 C 
HETATM    5  N2  UNL     1      13.831  50.313 -50.445  1.00  0.00    -0.283 N 
HETATM    6  C2  UNL     1      14.183  49.058 -50.122  1.00  0.00     0.125 A 
ATOM      7  H2  UNL     1      13.395  50.992 -49.821  1.00  0.00     0.188 HD
HETATM    8  N3  UNL     1      14.053  48.449 -48.990  1.00  0.00    -0.296 N 
HETATM    9  C4  UNL     1      14.731  48.481 -51.232  1.00  0.00     0.077 A 
HETATM   10  C3  UNL     1      13.492  49.035 -47.848  1.00  0.00     0.334 C 
ATOM     11  H3  UNL     1      14.377  47.485 -48.924  1.00  0.00     0.171 HD
HETATM   12  N4  UNL     1      14.257  49.791 -46.943  1.00  0.00    -0.040 NA
HETATM   13  O1  UNL     1      12.252  48.892 -47.600  1.00  0.00    -0.251 OA
ENDBRANCH   1   2
BRANCH   1  14
HETATM   14  C7  UNL     1      16.673  49.283 -53.598  1.00  0.00     0.063 A 
HETATM   15  N5  UNL     1      17.475  48.274 -53.292  1.00  0.00    -0.362 N 
HETATM   16  C8  UNL     1      18.757  48.443 -53.326  1.00  0.00     0.096 A 
ATOM     17  H5  UNL     1      17.084  47.368 -53.031  1.00  0.00     0.165 HD
HETATM   18  C9  UNL     1      19.234  49.678 -53.681  1.00  0.00     0.068 A 
HETATM   19  S1  UNL     1      17.774  50.538 -53.952  1.00  0.00    -0.086 SA
ENDBRANCH   1  14
BRANCH   1  20
HETATM   20  C10 UNL     1      14.718  48.150 -54.410  1.00  0.00     0.288 C 
BRANCH  20  21
HETATM   21  N6  UNL     1      13.317  47.868 -54.395  1.00  0.00    -0.066 N 
ATOM     22  H63 UNL     1      13.150  46.987 -53.911  1.00  0.00     0.275 HD
ATOM     23  H62 UNL     1      12.842  48.518 -53.768  1.00  0.00     0.275 HD
ATOM     24  H61 UNL     1      12.845  47.859 -55.299  1.00  0.00     0.275 HD
ENDBRANCH  20  21
BRANCH  20  25
HETATM   25  C11 UNL     1      15.273  48.144 -55.806  1.00  0.00     0.262 C 
HETATM   26  N7  UNL     1      16.385  47.311 -56.112  1.00  0.00    -0.060 NA
HETATM   27  O2  UNL     1      14.795  48.843 -56.716  1.00  0.00    -0.275 OA
ENDBRANCH  20  25
ENDBRANCH   1  20
TORSDOF 5
ENDMDL
MODEL 3
REMARK VINA RESULT: -5.854902784      4.697      6.751
REMARK  5 active torsions:
REMARK  status: ('A' for Active; 'I' for Inactive)
REMARK       I    between atoms: N3_6  and  C3_8 
REMARK    1  A    between atoms: C5_12  and  C6_13 
REMARK    2  A    between atoms: C6_13  and  C7_14 
REMARK    3  A    between atoms: C6_13  and  C10_20 
REMARK    4  A    between atoms: C10_20  and  N6_21 
REMARK    5  A    between atoms: C10_20  and  C11_25 
ROOT
HETATM    1  C6  UNL     1      14.240  50.859 -48.595  1.00  0.00     0.134 C 
ENDROOT
BRANCH   1   2
HETATM    2  C5  UNL     1      14.195  49.922 -49.730  1.00  0.00     0.044 A 
HETATM    3  N1  UNL     1      15.240  49.143 -50.053  1.00  0.00    -0.298 N 
HETATM    4  C1  UNL     1      16.545  49.069 -49.393  1.00  0.00     0.177 C 
HETATM    5  N2  UNL     1      14.932  48.395 -51.115  1.00  0.00    -0.283 N 
HETATM    6  C2  UNL     1      13.676  48.692 -51.483  1.00  0.00     0.125 A 
ATOM      7  H2  UNL     1      15.544  47.716 -51.567  1.00  0.00     0.188 HD
HETATM    8  N3  UNL     1      12.983  48.203 -52.458  1.00  0.00    -0.296 N 
HETATM    9  C4  UNL     1      13.204  49.645 -50.625  1.00  0.00     0.077 A 
HETATM   10  C3  UNL     1      13.460  47.226 -53.341  1.00  0.00     0.334 C 
ATOM     11  H3  UNL     1      12.033  48.548 -52.592  1.00  0.00     0.171 HD
HETATM   12  N4  UNL     1      14.186  47.555 -54.499  1.00  0.00    -0.040 NA
HETATM   13  O1  UNL     1      13.241  45.994 -53.110  1.00  0.00    -0.251 OA
ENDBRANCH   1   2
BRANCH   1  14
HETATM   14  C7  UNL     1      14.775  52.168 -49.128  1.00  0.00     0.063 A 
HETATM   15  N5  UNL     1      15.352  53.168 -48.478  1.00  0.00    -0.362 N 
HETATM   16  C8  UNL     1      15.743  54.213 -49.131  1.00  0.00     0.096 A 
ATOM     17  H5  UNL     1      15.486  53.114 -47.469  1.00  0.00     0.165 HD
HETATM   18  C9  UNL     1      15.540  54.239 -50.487  1.00  0.00     0.068 A 
HETATM   19  S1  UNL     1      14.781  52.722 -50.743  1.00  0.00    -0.086 SA
ENDBRANCH   1  14
BRANCH   1  20
HETATM   20  C10 UNL     1      12.946  51.165 -47.939  1.00  0.00     0.288 C 
BRANCH  20  21
HETATM   21  N6  UNL     1      11.940  51.762 -48.760  1.00  0.00    -0.066 N 
ATOM     22  H63 UNL     1      11.869  52.757 -48.545  1.00  0.00     0.275 HD
ATOM     23  H62 UNL     1      12.265  51.803 -49.726  1.00  0.00     0.275 HD
ATOM     24  H61 UNL     1      11.015  51.336 -48.727  1.00  0.00     0.275 HD
ENDBRANCH  20  21
BRANCH  20  25
HETATM   25  C11 UNL     1      12.410  49.997 -47.161  1.00  0.00     0.262 C 
HETATM   26  N7  UNL     1      13.043  49.617 -45.945  1.00  0.00    -0.060 NA
HETATM   27  O2  UNL     1      11.425  49.340 -47.541  1.00  0.00    -0.275 OA
ENDBRANCH  20  25
ENDBRANCH   1  20
TORSDOF 5
ENDMDL
MODEL 4
REMARK VINA RESULT: -5.765135215      2.835      4.376
REMARK  5 active torsions:
REMARK  status: ('A' for Active; 'I' for Inactive)
REMARK       I    between atoms: N3_6  and  C3_8 
REMARK    1  A    between atoms: C5_12  and  C6_13 
REMARK    2  A    between atoms: C6_13  and  C7_14 
REMARK    3  A    between atoms: C6_13  and  C10_20 
REMARK    4  A    between atoms: C10_20  and  N6_21 
REMARK    5  A    between atoms: C10_20  and  C11_25 
ROOT
HETATM    1  C6  UNL     1      15.842  48.323 -52.867  1.00  0.00     0.134 C 
ENDROOT
BRANCH   1   2
HETATM    2  C5  UNL     1      16.826  49.107 -53.633  1.00  0.00     0.044 A 
HETATM    3  N1  UNL     1      16.911  49.031 -54.971  1.00  0.00    -0.298 N 
HETATM    4  C1  UNL     1      16.103  48.214 -55.879  1.00  0.00     0.177 C 
HETATM    5  N2  UNL     1      17.879  49.839 -55.407  1.00  0.00    -0.283 N 
HETATM    6  C2  UNL     1      18.428  50.443 -54.341  1.00  0.00     0.125 A 
ATOM      7  H2  UNL     1      18.155  49.974 -56.379  1.00  0.00     0.188 HD
HETATM    8  N3  UNL     1      19.393  51.302 -54.308  1.00  0.00    -0.296 N 
HETATM    9  C4  UNL     1      17.778  49.994 -53.227  1.00  0.00     0.077 A 
HETATM   10  C3  UNL     1      20.064  51.767 -55.446  1.00  0.00     0.334 C 
ATOM     11  H3  UNL     1      19.683  51.662 -53.399  1.00  0.00     0.171 HD
HETATM   12  N4  UNL     1      21.168  51.088 -55.993  1.00  0.00    -0.040 NA
HETATM   13  O1  UNL     1      19.681  52.836 -56.021  1.00  0.00    -0.251 OA
ENDBRANCH   1   2
BRANCH   1  14
HETATM   14  C7  UNL     1      16.489  47.978 -51.546  1.00  0.00     0.063 A 
HETATM   15  N5  UNL     1      17.504  47.165 -51.294  1.00  0.00    -0.362 N 
HETATM   16  C8  UNL     1      17.910  47.009 -50.076  1.00  0.00     0.096 A 
ATOM     17  H5  UNL     1      17.963  46.665 -52.055  1.00  0.00     0.165 HD
HETATM   18  C9  UNL     1      17.261  47.701 -49.086  1.00  0.00     0.068 A 
HETATM   19  S1  UNL     1      16.080  48.555 -49.992  1.00  0.00    -0.086 SA
ENDBRANCH   1  14
BRANCH   1  20
HETATM   20  C10 UNL     1      14.562  49.000 -52.549  1.00  0.00     0.288 C 
BRANCH  20  21
HETATM   21  N6  UNL     1      14.462  50.378 -52.913  1.00  0.00    -0.066 N 
ATOM     22  H63 UNL     1      15.364  50.709 -53.254  1.00  0.00     0.275 HD
ATOM     23  H62 UNL     1      13.898  50.470 -53.759  1.00  0.00     0.275 HD
ATOM     24  H61 UNL     1      14.111  51.013 -52.197  1.00  0.00     0.275 HD
ENDBRANCH  20  21
BRANCH  20  25
HETATM   25  C11 UNL     1      13.369  48.213 -53.013  1.00  0.00     0.262 C 
HETATM   26  N7  UNL     1      12.061  48.706 -52.749  1.00  0.00    -0.060 NA
HETATM   27  O2  UNL     1      13.478  47.135 -53.624  1.00  0.00    -0.275 OA
ENDBRANCH  20  25
ENDBRANCH   1  20
TORSDOF 5
ENDMDL
MODEL 5
REMARK VINA RESULT: -5.673543492      3.101      4.473
REMARK  5 active torsions:
REMARK  status: ('A' for Active; 'I' for Inactive)
REMARK       I    between atoms: N3_6  and  C3_8 
REMARK    1  A    between atoms: C5_12  and  C6_13 
REMARK    2  A    between atoms: C6_13  and  C7_14 
REMARK    3  A    between atoms: C6_13  and  C10_20 
REMARK    4  A    between atoms: C10_20  and  N6_21 
REMARK    5  A    between atoms: C10_20  and  C11_25 
ROOT
HETATM    1  C6  UNL     1      15.233  49.592 -50.968  1.00  0.00     0.134 C 
ENDROOT
BRANCH   1   2
HETATM    2  C5  UNL     1      15.978  49.320 -52.209  1.00  0.00     0.044 A 
HETATM    3  N1  UNL     1      16.919  48.364 -52.279  1.00  0.00    -0.298 N 
HETATM    4  C1  UNL     1      17.366  47.461 -51.217  1.00  0.00     0.177 C 
HETATM    5  N2  UNL     1      17.432  48.329 -53.511  1.00  0.00    -0.283 N 
HETATM    6  C2  UNL     1      16.819  49.271 -54.244  1.00  0.00     0.125 A 
ATOM      7  H2  UNL     1      18.163  47.697 -53.838  1.00  0.00     0.188 HD
HETATM    8  N3  UNL     1      17.009  49.579 -55.485  1.00  0.00    -0.296 N 
HETATM    9  C4  UNL     1      15.908  49.897 -53.442  1.00  0.00     0.077 A 
HETATM   10  C3  UNL     1      17.941  48.942 -56.314  1.00  0.00     0.334 C 
ATOM     11  H3  UNL     1      16.446  50.330 -55.884  1.00  0.00     0.171 HD
HETATM   12  N4  UNL     1      19.285  49.352 -56.381  1.00  0.00    -0.040 NA
HETATM   13  O1  UNL     1      17.585  47.959 -57.039  1.00  0.00    -0.251 OA
ENDBRANCH   1   2
BRANCH   1  14
HETATM   14  C7  UNL     1      15.175  51.093 -50.812  1.00  0.00     0.063 A 
HETATM   15  N5  UNL     1      14.155  51.919 -50.997  1.00  0.00    -0.362 N 
HETATM   16  C8  UNL     1      14.317  53.188 -50.807  1.00  0.00     0.096 A 
ATOM     17  H5  UNL     1      13.247  51.556 -51.288  1.00  0.00     0.165 HD
HETATM   18  C9  UNL     1      15.556  53.628 -50.419  1.00  0.00     0.068 A 
HETATM   19  S1  UNL     1      16.430  52.153 -50.348  1.00  0.00    -0.086 SA
ENDBRANCH   1  14
BRANCH   1  20
HETATM   20  C10 UNL     1      13.834  49.105 -50.917  1.00  0.00     0.288 C 
BRANCH  20  21
HETATM   21  N6  UNL     1      13.529  47.956 -51.711  1.00  0.00    -0.066 N 
ATOM     22  H63 UNL     1      13.937  48.063 -52.639  1.00  0.00     0.275 HD
ATOM     23  H62 UNL     1      14.056  47.152 -51.368  1.00  0.00     0.275 HD
ATOM     24  H61 UNL     1      12.544  47.709 -51.794  1.00  0.00     0.275 HD
ENDBRANCH  20  21
BRANCH  20  25
HETATM   25  C11 UNL     1      13.330  48.960 -49.510  1.00  0.00     0.262 C 
HETATM   26  N7  UNL     1      12.427  49.927 -48.987  1.00  0.00    -0.060 NA
HETATM   27  O2  UNL     1      13.674  48.019 -48.773  1.00  0.00    -0.275 OA
ENDBRANCH  20  25
ENDBRANCH   1  20
TORSDOF 5
ENDMDL
