MODEL 1
REMARK VINA RESULT: -6.450960775      0.000      0.000
REMARK  4 active torsions:
REMARK  status: ('A' for Active; 'I' for Inactive)
REMARK    1  A    between atoms: O1_3  and  C2_4 
REMARK    2  A    between atoms: C2_4  and  C3_5 
REMARK    3  A    between atoms: C3_5  and  C4_6 
REMARK    4  A    between atoms: C4_6  and  N2_7 
ROOT
HETATM    1  N1  UNL     1       9.918  49.093 -46.863  1.00  0.00    -0.164 NA
HETATM    2  C1  UNL     1       9.694  50.056 -47.491  1.00  0.00     0.228 C 
HETATM    3  O1  UNL     1       9.413  51.160 -48.216  1.00  0.00    -0.283 OA
ENDROOT
BRANCH   3   4
HETATM    4  C2  UNL     1      10.225  52.328 -48.199  1.00  0.00     0.191 C 
BRANCH   4   5
HETATM    5  C3  UNL     1      10.998  52.335 -49.499  1.00  0.00     0.043 C 
BRANCH   5   6
HETATM    6  C4  UNL     1      12.463  52.037 -49.250  1.00  0.00     0.113 C 
BRANCH   6   7
HETATM    7  N2  UNL     1      12.694  50.627 -49.054  1.00  0.00    -0.168 NA
HETATM    8  C5  UNL     1      13.575  50.458 -47.918  1.00  0.00     0.340 C 
HETATM    9  N3  UNL     1      12.991  50.541 -46.632  1.00  0.00    -0.061 N 
HETATM   10  C6  UNL     1      13.796  49.960 -45.573  1.00  0.00     0.261 C 
ATOM     11  H32 UNL     1      12.753  51.507 -46.410  1.00  0.00     0.278 HD
ATOM     12  H31 UNL     1      12.058  50.128 -46.637  1.00  0.00     0.278 HD
HETATM   13  C7  UNL     1      14.927  49.229 -46.146  1.00  0.00     0.259 C 
HETATM   14  N4  UNL     1      16.047  48.863 -45.319  1.00  0.00    -0.074 N 
HETATM   15  C8  UNL     1      16.812  47.928 -46.171  1.00  0.00     0.232 C 
ATOM     16  H42 UNL     1      16.588  49.653 -44.967  1.00  0.00     0.277 HD
ATOM     17  H41 UNL     1      15.795  48.491 -44.404  1.00  0.00     0.277 HD
HETATM   18  C9  UNL     1      17.191  48.464 -47.511  1.00  0.00     0.029 C 
HETATM   19  C10 UNL     1      16.503  47.808 -48.677  1.00  0.00     0.022 C 
HETATM   20  C11 UNL     1      15.946  48.781 -49.715  1.00  0.00     0.133 C 
HETATM   21  N5  UNL     1      14.539  48.618 -49.929  1.00  0.00    -0.307 N 
HETATM   22  S1  UNL     1      13.682  50.033 -50.396  1.00  0.00     0.300 S 
ATOM     23  H5  UNL     1      14.075  47.717 -49.812  1.00  0.00     0.173 HD
HETATM   24  O2  UNL     1      14.549  51.104 -50.930  1.00  0.00    -0.188 OA
HETATM   25  O3  UNL     1      12.702  49.632 -51.462  1.00  0.00    -0.188 OA
ENDBRANCH   6   7
ENDBRANCH   5   6
ENDBRANCH   4   5
ENDBRANCH   3   4
TORSDOF 4
ENDMDL
MODEL 2
REMARK VINA RESULT: -6.408903119      2.938      4.439
REMARK  4 active torsions:
REMARK  status: ('A' for Active; 'I' for Inactive)
REMARK    1  A    between atoms: O1_3  and  C2_4 
REMARK    2  A    between atoms: C2_4  and  C3_5 
REMARK    3  A    between atoms: C3_5  and  C4_6 
REMARK    4  A    between atoms: C4_6  and  N2_7 
ROOT
HETATM    1  N1  UNL     1      11.844  56.707 -52.992  1.00  0.00    -0.164 NA
HETATM    2  C1  UNL     1      11.865  55.539 -52.906  1.00  0.00     0.228 C 
HETATM    3  O1  UNL     1      11.891  54.191 -52.830  1.00  0.00    -0.283 OA
ENDROOT
BRANCH   3   4
HETATM    4  C2  UNL     1      12.293  53.488 -51.661  1.00  0.00     0.191 C 
BRANCH   4   5
HETATM    5  C3  UNL     1      13.060  52.272 -52.131  1.00  0.00     0.043 C 
BRANCH   5   6
HETATM    6  C4  UNL     1      13.003  51.171 -51.091  1.00  0.00     0.113 C 
BRANCH   6   7
HETATM    7  N2  UNL     1      13.487  51.623 -49.809  1.00  0.00    -0.168 NA
HETATM    8  C5  UNL     1      14.699  50.897 -49.493  1.00  0.00     0.340 C 
HETATM    9  N3  UNL     1      15.895  51.343 -50.103  1.00  0.00    -0.061 N 
HETATM   10  C6  UNL     1      17.106  50.878 -49.451  1.00  0.00     0.261 C 
ATOM     11  H32 UNL     1      15.905  51.094 -51.092  1.00  0.00     0.278 HD
ATOM     12  H31 UNL     1      15.899  52.360 -50.178  1.00  0.00     0.278 HD
HETATM   13  C7  UNL     1      16.775  50.236 -48.177  1.00  0.00     0.259 C 
HETATM   14  N4  UNL     1      17.741  49.399 -47.515  1.00  0.00    -0.074 N 
HETATM   15  C8  UNL     1      17.149  49.183 -46.178  1.00  0.00     0.232 C 
ATOM     16  H42 UNL     1      17.973  48.542 -48.018  1.00  0.00     0.277 HD
ATOM     17  H41 UNL     1      18.689  49.774 -47.502  1.00  0.00     0.277 HD
HETATM   18  C9  UNL     1      15.763  48.630 -46.186  1.00  0.00     0.029 C 
HETATM   19  C10 UNL     1      14.698  49.573 -45.696  1.00  0.00     0.022 C 
HETATM   20  C11 UNL     1      13.451  49.634 -46.576  1.00  0.00     0.133 C 
HETATM   21  N5  UNL     1      13.165  50.957 -47.042  1.00  0.00    -0.307 N 
HETATM   22  S1  UNL     1      12.367  51.062 -48.561  1.00  0.00     0.300 S 
ATOM     23  H5  UNL     1      13.420  51.787 -46.506  1.00  0.00     0.173 HD
HETATM   24  O2  UNL     1      11.703  49.807 -48.971  1.00  0.00    -0.188 OA
HETATM   25  O3  UNL     1      11.327  52.142 -48.447  1.00  0.00    -0.188 OA
ENDBRANCH   6   7
ENDBRANCH   5   6
ENDBRANCH   4   5
ENDBRANCH   3   4
TORSDOF 4
ENDMDL
MODEL 3
REMARK VINA RESULT: -6.249999773      3.235      5.474
REMARK  4 active torsions:
REMARK  status: ('A' for Active; 'I' for Inactive)
REMARK    1  A    between atoms: O1_3  and  C2_4 
REMARK    2  A    between atoms: C2_4  and  C3_5 
REMARK    3  A    between atoms: C3_5  and  C4_6 
REMARK    4  A    between atoms: C4_6  and  N2_7 
ROOT
HETATM    1  N1  UNL     1      15.455  48.494 -56.821  1.00  0.00    -0.164 NA
HETATM    2  C1  UNL     1      14.836  48.184 -55.875  1.00  0.00     0.228 C 
HETATM    3  O1  UNL     1      14.112  47.810 -54.799  1.00  0.00    -0.283 OA
ENDROOT
BRANCH   3   4
HETATM    4  C2  UNL     1      14.526  48.059 -53.461  1.00  0.00     0.191 C 
BRANCH   4   5
HETATM    5  C3  UNL     1      15.097  49.459 -53.440  1.00  0.00     0.043 C 
BRANCH   5   6
HETATM    6  C4  UNL     1      15.657  49.785 -52.069  1.00  0.00     0.113 C 
BRANCH   6   7
HETATM    7  N2  UNL     1      15.211  48.841 -51.074  1.00  0.00    -0.168 NA
HETATM    8  C5  UNL     1      14.484  49.561 -50.050  1.00  0.00     0.340 C 
HETATM    9  N3  UNL     1      13.140  49.899 -50.331  1.00  0.00    -0.061 N 
HETATM   10  C6  UNL     1      12.349  50.226 -49.159  1.00  0.00     0.261 C 
ATOM     11  H32 UNL     1      13.098  50.658 -51.012  1.00  0.00     0.278 HD
ATOM     12  H31 UNL     1      12.691  49.158 -50.869  1.00  0.00     0.278 HD
HETATM   13  C7  UNL     1      13.097  49.904 -47.942  1.00  0.00     0.259 C 
HETATM   14  N4  UNL     1      12.686  50.444 -46.674  1.00  0.00    -0.074 N 
HETATM   15  C8  UNL     1      13.495  49.683 -45.698  1.00  0.00     0.232 C 
ATOM     16  H42 UNL     1      12.775  51.457 -46.597  1.00  0.00     0.277 HD
ATOM     17  H41 UNL     1      11.681  50.413 -46.506  1.00  0.00     0.277 HD
HETATM   18  C9  UNL     1      14.968  49.727 -45.932  1.00  0.00     0.029 C 
HETATM   19  C10 UNL     1      15.584  48.420 -46.354  1.00  0.00     0.022 C 
HETATM   20  C11 UNL     1      16.548  48.526 -47.534  1.00  0.00     0.133 C 
HETATM   21  N5  UNL     1      16.172  47.688 -48.633  1.00  0.00    -0.307 N 
HETATM   22  S1  UNL     1      16.627  48.249 -50.193  1.00  0.00     0.300 S 
ATOM     23  H5  UNL     1      15.665  46.813 -48.498  1.00  0.00     0.173 HD
HETATM   24  O2  UNL     1      17.699  49.266 -50.170  1.00  0.00    -0.188 OA
HETATM   25  O3  UNL     1      17.110  47.059 -50.974  1.00  0.00    -0.188 OA
ENDBRANCH   6   7
ENDBRANCH   5   6
ENDBRANCH   4   5
ENDBRANCH   3   4
TORSDOF 4
ENDMDL
MODEL 4
REMARK VINA RESULT: -6.200883405      3.023      4.975
REMARK  4 active torsions:
REMARK  status: ('A' for Active; 'I' for Inactive)
REMARK    1  A    between atoms: O1_3  and  C2_4 
REMARK    2  A    between atoms: C2_4  and  C3_5 
REMARK    3  A    between atoms: C3_5  and  C4_6 
REMARK    4  A    between atoms: C4_6  and  N2_7 
ROOT
HETATM    1  N1  UNL     1      12.300  48.543 -53.029  1.00  0.00    -0.164 NA
HETATM    2  C1  UNL     1      13.286  48.241 -53.585  1.00  0.00     0.228 C 
HETATM    3  O1  UNL     1      14.409  47.890 -54.246  1.00  0.00    -0.283 OA
ENDROOT
BRANCH   3   4
HETATM    4  C2  UNL     1      15.712  48.260 -53.812  1.00  0.00     0.191 C 
BRANCH   4   5
HETATM    5  C3  UNL     1      15.646  49.727 -53.449  1.00  0.00     0.043 C 
BRANCH   5   6
HETATM    6  C4  UNL     1      16.143  49.948 -52.034  1.00  0.00     0.113 C 
BRANCH   6   7
HETATM    7  N2  UNL     1      15.581  48.987 -51.116  1.00  0.00    -0.168 NA
HETATM    8  C5  UNL     1      14.783  49.698 -50.139  1.00  0.00     0.340 C 
HETATM    9  N3  UNL     1      13.480  50.085 -50.530  1.00  0.00    -0.061 N 
HETATM   10  C6  UNL     1      12.594  50.399 -49.425  1.00  0.00     0.261 C 
ATOM     11  H32 UNL     1      13.522  50.865 -51.186  1.00  0.00     0.278 HD
ATOM     12  H31 UNL     1      13.062  49.375 -51.131  1.00  0.00     0.278 HD
HETATM   13  C7  UNL     1      13.218  50.016 -48.156  1.00  0.00     0.259 C 
HETATM   14  N4  UNL     1      12.707  50.529 -46.913  1.00  0.00    -0.074 N 
HETATM   15  C8  UNL     1      13.400  49.713 -45.894  1.00  0.00     0.232 C 
ATOM     16  H42 UNL     1      12.815  51.536 -46.794  1.00  0.00     0.277 HD
ATOM     17  H41 UNL     1      11.690  50.523 -46.839  1.00  0.00     0.277 HD
HETATM   18  C9  UNL     1      14.889  49.719 -45.991  1.00  0.00     0.029 C 
HETATM   19  C10 UNL     1      15.506  48.408 -46.399  1.00  0.00     0.022 C 
HETATM   20  C11 UNL     1      16.577  48.521 -47.482  1.00  0.00     0.133 C 
HETATM   21  N5  UNL     1      16.280  47.730 -48.639  1.00  0.00    -0.307 N 
HETATM   22  S1  UNL     1      16.892  48.325 -50.131  1.00  0.00     0.300 S 
ATOM     23  H5  UNL     1      15.739  46.867 -48.581  1.00  0.00     0.173 HD
HETATM   24  O2  UNL     1      17.986  49.308 -49.976  1.00  0.00    -0.188 OA
HETATM   25  O3  UNL     1      17.412  47.146 -50.905  1.00  0.00    -0.188 OA
ENDBRANCH   6   7
ENDBRANCH   5   6
ENDBRANCH   4   5
ENDBRANCH   3   4
TORSDOF 4
ENDMDL
MODEL 5
REMARK VINA RESULT: -6.195733666      3.166      5.410
REMARK  4 active torsions:
REMARK  status: ('A' for Active; 'I' for Inactive)
REMARK    1  A    between atoms: O1_3  and  C2_4 
REMARK    2  A    between atoms: C2_4  and  C3_5 
REMARK    3  A    between atoms: C3_5  and  C4_6 
REMARK    4  A    between atoms: C4_6  and  N2_7 
ROOT
HETATM    1  N1  UNL     1      15.116  48.556 -56.809  1.00  0.00    -0.164 NA
HETATM    2  C1  UNL     1      14.848  48.139 -55.747  1.00  0.00     0.228 C 
HETATM    3  O1  UNL     1      14.561  47.653 -54.520  1.00  0.00    -0.283 OA
ENDROOT
BRANCH   3   4
HETATM    4  C2  UNL     1      13.377  47.992 -53.809  1.00  0.00     0.191 C 
BRANCH   4   5
HETATM    5  C3  UNL     1      13.683  49.258 -53.039  1.00  0.00     0.043 C 
BRANCH   5   6
HETATM    6  C4  UNL     1      13.424  49.057 -51.559  1.00  0.00     0.113 C 
BRANCH   6   7
HETATM    7  N2  UNL     1      14.451  49.669 -50.751  1.00  0.00    -0.168 NA
HETATM    8  C5  UNL     1      15.299  48.625 -50.216  1.00  0.00     0.340 C 
HETATM    9  N3  UNL     1      16.290  48.096 -51.075  1.00  0.00    -0.061 N 
HETATM   10  C6  UNL     1      17.355  47.386 -50.391  1.00  0.00     0.261 C 
ATOM     11  H32 UNL     1      15.865  47.501 -51.787  1.00  0.00     0.278 HD
ATOM     12  H31 UNL     1      16.675  48.830 -51.669  1.00  0.00     0.278 HD
HETATM   13  C7  UNL     1      17.247  47.590 -48.945  1.00  0.00     0.259 C 
HETATM   14  N4  UNL     1      17.957  46.729 -48.036  1.00  0.00    -0.074 N 
HETATM   15  C8  UNL     1      17.818  47.415 -46.734  1.00  0.00     0.232 C 
ATOM     16  H42 UNL     1      17.641  45.759 -48.039  1.00  0.00     0.277 HD
ATOM     17  H41 UNL     1      18.919  46.528 -48.308  1.00  0.00     0.277 HD
HETATM   18  C9  UNL     1      16.414  47.710 -46.326  1.00  0.00     0.029 C 
HETATM   19  C10 UNL     1      16.050  49.170 -46.303  1.00  0.00     0.022 C 
HETATM   20  C11 UNL     1      14.715  49.501 -46.967  1.00  0.00     0.133 C 
HETATM   21  N5  UNL     1      14.845  50.458 -48.026  1.00  0.00    -0.307 N 
HETATM   22  S1  UNL     1      13.694  50.331 -49.296  1.00  0.00     0.300 S 
ATOM     23  H5  UNL     1      15.576  51.169 -48.025  1.00  0.00     0.173 HD
HETATM   24  O2  UNL     1      12.487  49.561 -48.930  1.00  0.00    -0.188 OA
HETATM   25  O3  UNL     1      13.279  51.728 -49.666  1.00  0.00    -0.188 OA
ENDBRANCH   6   7
ENDBRANCH   5   6
ENDBRANCH   4   5
ENDBRANCH   3   4
TORSDOF 4
ENDMDL
