MODEL 1
REMARK VINA RESULT: -5.347356188      0.000      0.000
REMARK  3 active torsions:
REMARK  status: ('A' for Active; 'I' for Inactive)
REMARK    1  A    between atoms: N1_1  and  N2_4 
REMARK    2  A    between atoms: N2_4  and  C1_6 
REMARK    3  A    between atoms: C1_6  and  N3_8 
ROOT
HETATM    1  N3  UNL     1      38.029  30.580  50.357  1.00  0.00    -0.173 N 
HETATM    2  N4  UNL     1      39.159  30.023  50.822  1.00  0.00    -0.238 N 
ATOM      3  H4  UNL     1      40.077  30.113  50.389  1.00  0.00     0.192 HD
HETATM    4  C2  UNL     1      38.899  29.329  51.944  1.00  0.00     0.343 A 
HETATM    5  O1  UNL     1      39.697  28.676  52.661  1.00  0.00    -0.245 OA
HETATM    6  N5  UNL     1      37.588  29.433  52.217  1.00  0.00    -0.258 N 
ATOM      7  H5  UNL     1      37.083  29.019  53.000  1.00  0.00     0.175 HD
HETATM    8  C3  UNL     1      37.085  30.199  51.234  1.00  0.00     0.352 A 
HETATM    9  O2  UNL     1      35.873  30.524  51.144  1.00  0.00    -0.244 OA
ENDROOT
BRANCH   1  10
HETATM   10  C1  UNL     1      37.874  31.389  49.197  1.00  0.00     0.216 C 
HETATM   11  S1  UNL     1      39.158  31.884  48.310  1.00  0.00    -0.037 SA
BRANCH  10  12
HETATM   12  N2  UNL     1      36.570  31.775  48.801  1.00  0.00    -0.281 N 
ATOM     13  H2  UNL     1      36.288  32.754  48.851  1.00  0.00     0.189 HD
BRANCH  12  14
HETATM   14  N1  UNL     1      35.677  30.810  48.342  1.00  0.00    -0.343 N 
ATOM     15  H12 UNL     1      36.033  30.013  47.816  1.00  0.00     0.176 HD
ATOM     16  H11 UNL     1      34.682  30.912  48.538  1.00  0.00     0.176 HD
ENDBRANCH  12  14
ENDBRANCH  10  12
ENDBRANCH   1  10
TORSDOF 3
ENDMDL
MODEL 2
REMARK VINA RESULT: -5.339883905      2.746      3.655
REMARK  3 active torsions:
REMARK  status: ('A' for Active; 'I' for Inactive)
REMARK    1  A    between atoms: N1_1  and  N2_4 
REMARK    2  A    between atoms: N2_4  and  C1_6 
REMARK    3  A    between atoms: C1_6  and  N3_8 
ROOT
HETATM    1  N3  UNL     1      37.812  30.712  49.333  1.00  0.00    -0.173 N 
HETATM    2  N4  UNL     1      38.194  31.285  48.181  1.00  0.00    -0.238 N 
ATOM      3  H4  UNL     1      37.642  31.299  47.323  1.00  0.00     0.192 HD
HETATM    4  C2  UNL     1      39.410  31.840  48.325  1.00  0.00     0.343 A 
HETATM    5  O1  UNL     1      40.091  32.461  47.473  1.00  0.00    -0.245 OA
HETATM    6  N5  UNL     1      39.829  31.629  49.583  1.00  0.00    -0.258 N 
ATOM      7  H5  UNL     1      40.710  31.926  50.001  1.00  0.00     0.175 HD
HETATM    8  C3  UNL     1      38.837  30.940  50.173  1.00  0.00     0.352 A 
HETATM    9  O2  UNL     1      38.860  30.555  51.370  1.00  0.00    -0.244 OA
ENDROOT
BRANCH   1  10
HETATM   10  C1  UNL     1      36.597  30.022  49.598  1.00  0.00     0.216 C 
HETATM   11  S1  UNL     1      35.400  29.919  48.487  1.00  0.00    -0.037 SA
BRANCH  10  12
HETATM   12  N2  UNL     1      36.421  29.406  50.862  1.00  0.00    -0.281 N 
ATOM     13  H2  UNL     1      36.694  28.433  51.001  1.00  0.00     0.189 HD
BRANCH  12  14
HETATM   14  N1  UNL     1      35.873  30.137  51.913  1.00  0.00    -0.343 N 
ATOM     15  H12 UNL     1      35.252  30.919  51.705  1.00  0.00     0.176 HD
ATOM     16  H11 UNL     1      36.098  29.883  52.874  1.00  0.00     0.176 HD
ENDBRANCH  12  14
ENDBRANCH  10  12
ENDBRANCH   1  10
TORSDOF 3
ENDMDL
MODEL 3
REMARK VINA RESULT: -5.338725560      2.779      3.668
REMARK  3 active torsions:
REMARK  status: ('A' for Active; 'I' for Inactive)
REMARK    1  A    between atoms: N1_1  and  N2_4 
REMARK    2  A    between atoms: N2_4  and  C1_6 
REMARK    3  A    between atoms: C1_6  and  N3_8 
ROOT
HETATM    1  N3  UNL     1      38.443  30.603  49.885  1.00  0.00    -0.173 N 
HETATM    2  N4  UNL     1      39.520  31.400  49.808  1.00  0.00    -0.238 N 
ATOM      3  H4  UNL     1      40.209  31.526  50.549  1.00  0.00     0.192 HD
HETATM    4  C2  UNL     1      39.556  32.009  48.610  1.00  0.00     0.343 A 
HETATM    5  O1  UNL     1      40.405  32.823  48.171  1.00  0.00    -0.245 OA
HETATM    6  N5  UNL     1      38.493  31.606  47.894  1.00  0.00    -0.258 N 
ATOM      7  H5  UNL     1      38.240  31.888  46.947  1.00  0.00     0.175 HD
HETATM    8  C3  UNL     1      37.834  30.751  48.695  1.00  0.00     0.352 A 
HETATM    9  O2  UNL     1      36.774  30.157  48.373  1.00  0.00    -0.244 OA
ENDROOT
BRANCH   1  10
HETATM   10  C1  UNL     1      38.044  29.787  50.979  1.00  0.00     0.216 C 
HETATM   11  S1  UNL     1      39.077  29.390  52.186  1.00  0.00    -0.037 SA
BRANCH  10  12
HETATM   12  N2  UNL     1      36.712  29.307  51.025  1.00  0.00    -0.281 N 
ATOM     13  H2  UNL     1      36.508  28.336  50.786  1.00  0.00     0.189 HD
BRANCH  12  14
HETATM   14  N1  UNL     1      35.683  30.167  51.398  1.00  0.00    -0.343 N 
ATOM     15  H12 UNL     1      35.785  31.168  51.228  1.00  0.00     0.176 HD
ATOM     16  H11 UNL     1      34.843  29.789  51.834  1.00  0.00     0.176 HD
ENDBRANCH  12  14
ENDBRANCH  10  12
ENDBRANCH   1  10
TORSDOF 3
ENDMDL
MODEL 4
REMARK VINA RESULT: -5.257043625      3.002      4.144
REMARK  3 active torsions:
REMARK  status: ('A' for Active; 'I' for Inactive)
REMARK    1  A    between atoms: N1_1  and  N2_4 
REMARK    2  A    between atoms: N2_4  and  C1_6 
REMARK    3  A    between atoms: C1_6  and  N3_8 
ROOT
HETATM    1  N3  UNL     1      38.340  30.609  49.425  1.00  0.00    -0.173 N 
HETATM    2  N4  UNL     1      38.793  31.872  49.411  1.00  0.00    -0.238 N 
ATOM      3  H4  UNL     1      38.511  32.603  50.064  1.00  0.00     0.192 HD
HETATM    4  C2  UNL     1      39.674  32.032  48.409  1.00  0.00     0.343 A 
HETATM    5  O1  UNL     1      40.305  33.068  48.081  1.00  0.00    -0.245 OA
HETATM    6  N5  UNL     1      39.801  30.863  47.760  1.00  0.00    -0.258 N 
ATOM      7  H5  UNL     1      40.394  30.662  46.955  1.00  0.00     0.175 HD
HETATM    8  C3  UNL     1      38.978  30.016  48.400  1.00  0.00     0.352 A 
HETATM    9  O2  UNL     1      38.820  28.809  48.082  1.00  0.00    -0.244 OA
ENDROOT
BRANCH   1  10
HETATM   10  C1  UNL     1      37.400  30.034  50.324  1.00  0.00     0.216 C 
HETATM   11  S1  UNL     1      35.804  29.945  49.967  1.00  0.00    -0.037 SA
BRANCH  10  12
HETATM   12  N2  UNL     1      37.860  29.523  51.562  1.00  0.00    -0.281 N 
ATOM     13  H2  UNL     1      37.192  29.221  52.273  1.00  0.00     0.189 HD
BRANCH  12  14
HETATM   14  N1  UNL     1      39.228  29.435  51.805  1.00  0.00    -0.343 N 
ATOM     15  H12 UNL     1      39.627  28.540  52.087  1.00  0.00     0.176 HD
ATOM     16  H11 UNL     1      39.813  30.264  51.697  1.00  0.00     0.176 HD
ENDBRANCH  12  14
ENDBRANCH  10  12
ENDBRANCH   1  10
TORSDOF 3
ENDMDL
MODEL 5
REMARK VINA RESULT: -5.095051976      1.708      3.544
REMARK  3 active torsions:
REMARK  status: ('A' for Active; 'I' for Inactive)
REMARK    1  A    between atoms: N1_1  and  N2_4 
REMARK    2  A    between atoms: N2_4  and  C1_6 
REMARK    3  A    between atoms: C1_6  and  N3_8 
ROOT
HETATM    1  N3  UNL     1      37.468  30.621  49.734  1.00  0.00    -0.173 N 
HETATM    2  N4  UNL     1      36.855  30.432  48.554  1.00  0.00    -0.238 N 
ATOM      3  H4  UNL     1      37.293  30.554  47.641  1.00  0.00     0.192 HD
HETATM    4  C2  UNL     1      35.580  30.058  48.755  1.00  0.00     0.343 A 
HETATM    5  O1  UNL     1      34.699  29.793  47.899  1.00  0.00    -0.245 OA
HETATM    6  N5  UNL     1      35.354  30.001  50.077  1.00  0.00    -0.258 N 
ATOM      7  H5  UNL     1      34.485  29.749  50.548  1.00  0.00     0.175 HD
HETATM    8  C3  UNL     1      36.520  30.349  50.648  1.00  0.00     0.352 A 
HETATM    9  O2  UNL     1      36.708  30.412  51.890  1.00  0.00    -0.244 OA
ENDROOT
BRANCH   1  10
HETATM   10  C1  UNL     1      38.815  31.019  49.958  1.00  0.00     0.216 C 
HETATM   11  S1  UNL     1      39.698  31.775  48.805  1.00  0.00    -0.037 SA
BRANCH  10  12
HETATM   12  N2  UNL     1      39.407  30.753  51.217  1.00  0.00    -0.281 N 
ATOM     13  H2  UNL     1      39.811  31.514  51.765  1.00  0.00     0.189 HD
BRANCH  12  14
HETATM   14  N1  UNL     1      39.433  29.449  51.703  1.00  0.00    -0.343 N 
ATOM     15  H12 UNL     1      40.216  29.151  52.285  1.00  0.00     0.176 HD
ATOM     16  H11 UNL     1      38.674  28.809  51.472  1.00  0.00     0.176 HD
ENDBRANCH  12  14
ENDBRANCH  10  12
ENDBRANCH   1  10
TORSDOF 3
ENDMDL
