MODEL 1
REMARK VINA RESULT: -5.587539004      0.000      0.000
REMARK  5 active torsions:
REMARK  status: ('A' for Active; 'I' for Inactive)
REMARK    1  A    between atoms: N1_1  and  N2_4 
REMARK    2  A    between atoms: N2_4  and  C1_6 
REMARK    3  A    between atoms: C3_15  and  C4_16 
REMARK    4  A    between atoms: C4_16  and  N6_17 
REMARK    5  A    between atoms: C4_16  and  N7_21 
ROOT
HETATM    1  C1  UNL     1      38.537  30.996  49.790  1.00  0.00     0.151 A 
HETATM    2  N3  UNL     1      39.325  30.479  50.750  1.00  0.00    -0.291 N 
ATOM      3  H3  UNL     1      40.311  30.740  50.770  1.00  0.00     0.172 HD
HETATM    4  C2  UNL     1      38.861  29.630  51.686  1.00  0.00     0.340 A 
HETATM    5  O1  UNL     1      39.584  29.138  52.591  1.00  0.00    -0.245 OA
HETATM    6  N4  UNL     1      37.569  29.305  51.641  1.00  0.00    -0.251 N 
ATOM      7  H4  UNL     1      37.198  28.664  52.342  1.00  0.00     0.191 HD
HETATM    8  N5  UNL     1      36.747  29.787  50.712  1.00  0.00    -0.293 N 
ATOM      9  H5  UNL     1      35.764  29.514  50.710  1.00  0.00     0.187 HD
HETATM   10  C3  UNL     1      37.206  30.627  49.786  1.00  0.00     0.128 A 
ENDROOT
BRANCH  10  11
HETATM   11  C4  UNL     1      36.240  31.141  48.766  1.00  0.00     0.432 C 
BRANCH  11  12
HETATM   12  N6  UNL     1      35.337  30.080  48.383  1.00  0.00    -0.045 N 
ATOM     13  H63 UNL     1      35.400  29.860  47.389  1.00  0.00     0.277 HD
ATOM     14  H62 UNL     1      35.628  29.174  48.751  1.00  0.00     0.277 HD
ATOM     15  H61 UNL     1      34.388  30.324  48.665  1.00  0.00     0.277 HD
ENDBRANCH  11  12
BRANCH  11  16
HETATM   16  N7  UNL     1      35.492  32.215  49.335  1.00  0.00    -0.045 N 
ATOM     17  H73 UNL     1      35.919  32.577  50.187  1.00  0.00     0.277 HD
ATOM     18  H72 UNL     1      35.547  33.065  48.775  1.00  0.00     0.277 HD
ATOM     19  H71 UNL     1      34.530  31.908  49.483  1.00  0.00     0.277 HD
ENDBRANCH  11  16
ENDBRANCH  10  11
BRANCH   1  20
HETATM   20  N2  UNL     1      38.984  31.812  48.890  1.00  0.00    -0.290 N 
ATOM     21  H2  UNL     1      38.876  32.819  49.011  1.00  0.00     0.188 HD
BRANCH  20  22
HETATM   22  N1  UNL     1      39.615  31.305  47.752  1.00  0.00    -0.344 N 
ATOM     23  H12 UNL     1      39.982  30.354  47.768  1.00  0.00     0.176 HD
ATOM     24  H11 UNL     1      39.701  31.890  46.920  1.00  0.00     0.176 HD
ENDBRANCH  20  22
ENDBRANCH   1  20
TORSDOF 5
ENDMDL
MODEL 2
REMARK VINA RESULT: -5.422940983      1.964      3.556
REMARK  5 active torsions:
REMARK  status: ('A' for Active; 'I' for Inactive)
REMARK    1  A    between atoms: N1_1  and  N2_4 
REMARK    2  A    between atoms: N2_4  and  C1_6 
REMARK    3  A    between atoms: C3_15  and  C4_16 
REMARK    4  A    between atoms: C4_16  and  N6_17 
REMARK    5  A    between atoms: C4_16  and  N7_21 
ROOT
HETATM    1  C1  UNL     1      38.225  30.317  50.649  1.00  0.00     0.151 A 
HETATM    2  N3  UNL     1      36.983  29.976  51.037  1.00  0.00    -0.291 N 
ATOM      3  H3  UNL     1      36.844  29.625  51.985  1.00  0.00     0.172 HD
HETATM    4  C2  UNL     1      35.917  30.078  50.221  1.00  0.00     0.340 A 
HETATM    5  O1  UNL     1      34.750  29.762  50.568  1.00  0.00    -0.245 OA
HETATM    6  N4  UNL     1      36.124  30.538  48.988  1.00  0.00    -0.251 N 
ATOM      7  H4  UNL     1      35.329  30.624  48.354  1.00  0.00     0.191 HD
HETATM    8  N5  UNL     1      37.332  30.890  48.553  1.00  0.00    -0.293 N 
ATOM      9  H5  UNL     1      37.450  31.237  47.601  1.00  0.00     0.187 HD
HETATM   10  C3  UNL     1      38.387  30.788  49.360  1.00  0.00     0.128 A 
ENDROOT
BRANCH  10  11
HETATM   11  C4  UNL     1      39.721  31.197  48.823  1.00  0.00     0.432 C 
BRANCH  11  12
HETATM   12  N6  UNL     1      40.166  30.225  47.851  1.00  0.00    -0.045 N 
ATOM     13  H63 UNL     1      40.224  29.285  48.244  1.00  0.00     0.277 HD
ATOM     14  H62 UNL     1      39.460  30.041  47.138  1.00  0.00     0.277 HD
ATOM     15  H61 UNL     1      41.052  30.530  47.447  1.00  0.00     0.277 HD
ENDBRANCH  11  12
BRANCH  11  16
HETATM   16  N7  UNL     1      39.597  32.472  48.193  1.00  0.00    -0.045 N 
ATOM     17  H73 UNL     1      38.921  33.073  48.662  1.00  0.00     0.277 HD
ATOM     18  H72 UNL     1      40.423  33.054  48.328  1.00  0.00     0.277 HD
ATOM     19  H71 UNL     1      39.375  32.335  47.206  1.00  0.00     0.277 HD
ENDBRANCH  11  16
ENDBRANCH  10  11
BRANCH   1  20
HETATM   20  N2  UNL     1      39.250  30.218  51.433  1.00  0.00    -0.290 N 
ATOM     21  H2  UNL     1      39.883  31.008  51.553  1.00  0.00     0.188 HD
BRANCH  20  22
HETATM   22  N1  UNL     1      39.483  29.021  52.115  1.00  0.00    -0.344 N 
ATOM     23  H12 UNL     1      39.982  28.268  51.643  1.00  0.00     0.176 HD
ATOM     24  H11 UNL     1      39.153  28.915  53.075  1.00  0.00     0.176 HD
ENDBRANCH  20  22
ENDBRANCH   1  20
TORSDOF 5
ENDMDL
MODEL 3
REMARK VINA RESULT: -5.168405281      2.141      3.315
REMARK  5 active torsions:
REMARK  status: ('A' for Active; 'I' for Inactive)
REMARK    1  A    between atoms: N1_1  and  N2_4 
REMARK    2  A    between atoms: N2_4  and  C1_6 
REMARK    3  A    between atoms: C3_15  and  C4_16 
REMARK    4  A    between atoms: C4_16  and  N6_17 
REMARK    5  A    between atoms: C4_16  and  N7_21 
ROOT
HETATM    1  C1  UNL     1      38.704  30.389  50.297  1.00  0.00     0.151 A 
HETATM    2  N3  UNL     1      39.602  31.198  49.707  1.00  0.00    -0.291 N 
ATOM      3  H3  UNL     1      40.555  31.223  50.072  1.00  0.00     0.172 HD
HETATM    4  C2  UNL     1      39.291  31.975  48.653  1.00  0.00     0.340 A 
HETATM    5  O1  UNL     1      40.120  32.737  48.090  1.00  0.00    -0.245 OA
HETATM    6  N4  UNL     1      38.042  31.924  48.193  1.00  0.00    -0.251 N 
ATOM      7  H4  UNL     1      37.787  32.505  47.394  1.00  0.00     0.191 HD
HETATM    8  N5  UNL     1      37.114  31.142  48.740  1.00  0.00    -0.293 N 
ATOM      9  H5  UNL     1      36.168  31.132  48.360  1.00  0.00     0.187 HD
HETATM   10  C3  UNL     1      37.422  30.373  49.784  1.00  0.00     0.128 A 
ENDROOT
BRANCH  10  11
HETATM   11  C4  UNL     1      36.344  29.512  50.360  1.00  0.00     0.432 C 
BRANCH  11  12
HETATM   12  N6  UNL     1      35.843  30.118  51.573  1.00  0.00    -0.045 N 
ATOM     13  H63 UNL     1      34.957  30.601  51.425  1.00  0.00     0.277 HD
ATOM     14  H62 UNL     1      35.519  29.423  52.246  1.00  0.00     0.277 HD
ATOM     15  H61 UNL     1      36.557  30.732  51.965  1.00  0.00     0.277 HD
ENDBRANCH  11  12
BRANCH  11  16
HETATM   16  N7  UNL     1      35.281  29.403  49.413  1.00  0.00    -0.045 N 
ATOM     17  H73 UNL     1      34.923  28.451  49.340  1.00  0.00     0.277 HD
ATOM     18  H72 UNL     1      34.425  29.853  49.737  1.00  0.00     0.277 HD
ATOM     19  H71 UNL     1      35.597  29.769  48.515  1.00  0.00     0.277 HD
ENDBRANCH  11  16
ENDBRANCH  10  11
BRANCH   1  20
HETATM   20  N2  UNL     1      39.003  29.642  51.311  1.00  0.00    -0.290 N 
ATOM     21  H2  UNL     1      38.598  28.710  51.400  1.00  0.00     0.188 HD
BRANCH  20  22
HETATM   22  N1  UNL     1      39.885  30.120  52.284  1.00  0.00    -0.344 N 
ATOM     23  H12 UNL     1      40.106  31.115  52.310  1.00  0.00     0.176 HD
ATOM     24  H11 UNL     1      40.296  29.471  52.954  1.00  0.00     0.176 HD
ENDBRANCH  20  22
ENDBRANCH   1  20
TORSDOF 5
ENDMDL
MODEL 4
REMARK VINA RESULT: -5.054666216      2.123      3.755
REMARK  5 active torsions:
REMARK  status: ('A' for Active; 'I' for Inactive)
REMARK    1  A    between atoms: N1_1  and  N2_4 
REMARK    2  A    between atoms: N2_4  and  C1_6 
REMARK    3  A    between atoms: C3_15  and  C4_16 
REMARK    4  A    between atoms: C4_16  and  N6_17 
REMARK    5  A    between atoms: C4_16  and  N7_21 
ROOT
HETATM    1  C1  UNL     1      37.601  30.518  48.891  1.00  0.00     0.151 A 
HETATM    2  N3  UNL     1      38.250  31.281  47.994  1.00  0.00    -0.291 N 
ATOM      3  H3  UNL     1      37.831  31.423  47.075  1.00  0.00     0.172 HD
HETATM    4  C2  UNL     1      39.434  31.863  48.263  1.00  0.00     0.340 A 
HETATM    5  O1  UNL     1      40.054  32.580  47.435  1.00  0.00    -0.245 OA
HETATM    6  N4  UNL     1      39.962  31.664  49.470  1.00  0.00    -0.251 N 
ATOM      7  H4  UNL     1      40.858  32.098  49.694  1.00  0.00     0.191 HD
HETATM    8  N5  UNL     1      39.362  30.918  50.394  1.00  0.00    -0.293 N 
ATOM      9  H5  UNL     1      39.798  30.787  51.307  1.00  0.00     0.187 HD
HETATM   10  C3  UNL     1      38.191  30.341  50.128  1.00  0.00     0.128 A 
ENDROOT
BRANCH  10  11
HETATM   11  C4  UNL     1      37.558  29.514  51.201  1.00  0.00     0.432 C 
BRANCH  11  12
HETATM   12  N6  UNL     1      38.561  29.138  52.172  1.00  0.00    -0.045 N 
ATOM     13  H63 UNL     1      38.679  29.845  52.898  1.00  0.00     0.277 HD
ATOM     14  H62 UNL     1      38.253  28.368  52.766  1.00  0.00     0.277 HD
ATOM     15  H61 UNL     1      39.436  28.928  51.691  1.00  0.00     0.277 HD
ENDBRANCH  11  12
BRANCH  11  16
HETATM   16  N7  UNL     1      36.544  30.284  51.845  1.00  0.00    -0.045 N 
ATOM     17  H73 UNL     1      35.616  29.879  51.729  1.00  0.00     0.277 HD
ATOM     18  H72 UNL     1      36.599  30.227  52.861  1.00  0.00     0.277 HD
ATOM     19  H71 UNL     1      36.592  31.246  51.506  1.00  0.00     0.277 HD
ENDBRANCH  11  16
ENDBRANCH  10  11
BRANCH   1  20
HETATM   20  N2  UNL     1      36.463  29.957  48.632  1.00  0.00    -0.290 N 
ATOM     21  H2  UNL     1      36.421  28.965  48.400  1.00  0.00     0.188 HD
BRANCH  20  22
HETATM   22  N1  UNL     1      35.293  30.719  48.673  1.00  0.00    -0.344 N 
ATOM     23  H12 UNL     1      35.167  31.475  47.999  1.00  0.00     0.176 HD
ATOM     24  H11 UNL     1      34.581  30.512  49.373  1.00  0.00     0.176 HD
ENDBRANCH  20  22
ENDBRANCH   1  20
TORSDOF 5
ENDMDL
MODEL 5
REMARK VINA RESULT: -4.740351322      2.043      3.250
REMARK  5 active torsions:
REMARK  status: ('A' for Active; 'I' for Inactive)
REMARK    1  A    between atoms: N1_1  and  N2_4 
REMARK    2  A    between atoms: N2_4  and  C1_6 
REMARK    3  A    between atoms: C3_15  and  C4_16 
REMARK    4  A    between atoms: C4_16  and  N6_17 
REMARK    5  A    between atoms: C4_16  and  N7_21 
ROOT
HETATM    1  C1  UNL     1      38.471  30.938  50.296  1.00  0.00     0.151 A 
HETATM    2  N3  UNL     1      39.601  31.426  49.754  1.00  0.00    -0.291 N 
ATOM      3  H3  UNL     1      40.452  31.432  50.317  1.00  0.00     0.172 HD
HETATM    4  C2  UNL     1      39.651  31.906  48.498  1.00  0.00     0.340 A 
HETATM    5  O1  UNL     1      40.700  32.366  47.976  1.00  0.00    -0.245 OA
HETATM    6  N4  UNL     1      38.527  31.887  47.782  1.00  0.00    -0.251 N 
ATOM      7  H4  UNL     1      38.545  32.245  46.827  1.00  0.00     0.191 HD
HETATM    8  N5  UNL     1      37.382  31.416  48.270  1.00  0.00    -0.293 N 
ATOM      9  H5  UNL     1      36.542  31.419  47.691  1.00  0.00     0.187 HD
HETATM   10  C3  UNL     1      37.332  30.941  49.514  1.00  0.00     0.128 A 
ENDROOT
BRANCH  10  11
HETATM   11  C4  UNL     1      36.021  30.423  50.013  1.00  0.00     0.432 C 
BRANCH  11  12
HETATM   12  N6  UNL     1      35.018  30.585  48.985  1.00  0.00    -0.045 N 
ATOM     13  H63 UNL     1      34.107  30.831  49.371  1.00  0.00     0.277 HD
ATOM     14  H62 UNL     1      35.171  31.425  48.426  1.00  0.00     0.277 HD
ATOM     15  H61 UNL     1      34.981  29.742  48.412  1.00  0.00     0.277 HD
ENDBRANCH  11  12
BRANCH  11  16
HETATM   16  N7  UNL     1      36.158  29.037  50.324  1.00  0.00    -0.045 N 
ATOM     17  H73 UNL     1      35.665  28.439  49.661  1.00  0.00     0.277 HD
ATOM     18  H72 UNL     1      37.102  28.691  50.153  1.00  0.00     0.277 HD
ATOM     19  H71 UNL     1      35.856  28.881  51.286  1.00  0.00     0.277 HD
ENDBRANCH  11  16
ENDBRANCH  10  11
BRANCH   1  20
HETATM   20  N2  UNL     1      38.422  30.477  51.505  1.00  0.00    -0.290 N 
ATOM     21  H2  UNL     1      37.742  30.846  52.168  1.00  0.00     0.188 HD
BRANCH  20  22
HETATM   22  N1  UNL     1      39.308  29.469  51.894  1.00  0.00    -0.344 N 
ATOM     23  H12 UNL     1      39.033  28.493  51.783  1.00  0.00     0.176 HD
ATOM     24  H11 UNL     1      40.217  29.720  52.284  1.00  0.00     0.176 HD
ENDBRANCH  20  22
ENDBRANCH   1  20
TORSDOF 5
ENDMDL
