MODEL 1
REMARK VINA RESULT: -4.852817510      0.000      0.000
REMARK  2 active torsions:
REMARK  status: ('A' for Active; 'I' for Inactive)
REMARK    1  A    between atoms: N1_1  and  N2_4 
REMARK    2  A    between atoms: N5_15  and  N6_16 
ROOT
HETATM    1  N2  UNL     1      39.747  30.011  51.663  1.00  0.00    -0.135 N 
ATOM      2  H2  UNL     1      40.576  30.539  51.387  1.00  0.00     0.205 HD
HETATM    3  C1  UNL     1      38.664  30.061  50.958  1.00  0.00     0.735 A 
HETATM    4  N3  UNL     1      37.541  29.362  51.309  1.00  0.00    -0.128 N 
ATOM      5  H3  UNL     1      37.557  28.786  52.150  1.00  0.00     0.205 HD
HETATM    6  N4  UNL     1      36.442  29.415  50.590  1.00  0.00    -0.271 N 
ATOM      7  H4  UNL     1      35.621  28.882  50.878  1.00  0.00     0.188 HD
HETATM    8  C2  UNL     1      36.397  30.165  49.482  1.00  0.00     0.186 A 
HETATM    9  S1  UNL     1      35.035  30.227  48.597  1.00  0.00    -0.053 SA
HETATM   10  C3  UNL     1      37.510  30.903  49.069  1.00  0.00     0.321 A 
HETATM   11  O1  UNL     1      37.428  31.596  48.023  1.00  0.00    -0.262 OA
HETATM   12  N5  UNL     1      38.611  30.818  49.836  1.00  0.00    -0.049 N 
ENDROOT
BRANCH   1  13
HETATM   13  N1  UNL     1      39.753  29.217  52.810  1.00  0.00    -0.331 N 
ATOM     14  H12 UNL     1      39.408  28.258  52.767  1.00  0.00     0.177 HD
ATOM     15  H11 UNL     1      40.108  29.623  53.676  1.00  0.00     0.177 HD
ENDBRANCH   1  13
BRANCH  12  16
HETATM   16  N6  UNL     1      39.751  31.539  49.462  1.00  0.00    -0.321 N 
ATOM     17  H62 UNL     1      40.232  31.283  48.599  1.00  0.00     0.178 HD
ATOM     18  H61 UNL     1      40.066  32.300  50.064  1.00  0.00     0.178 HD
ENDBRANCH  12  16
TORSDOF 2
ENDMDL
MODEL 2
REMARK VINA RESULT: -4.266724020      1.931      2.813
REMARK  2 active torsions:
REMARK  status: ('A' for Active; 'I' for Inactive)
REMARK    1  A    between atoms: N1_1  and  N2_4 
REMARK    2  A    between atoms: N5_15  and  N6_16 
ROOT
HETATM    1  N2  UNL     1      37.393  29.374  51.583  1.00  0.00    -0.135 N 
ATOM      2  H2  UNL     1      36.408  29.114  51.535  1.00  0.00     0.205 HD
HETATM    3  C1  UNL     1      37.936  30.091  50.653  1.00  0.00     0.735 A 
HETATM    4  N3  UNL     1      39.255  30.452  50.696  1.00  0.00    -0.128 N 
ATOM      5  H3  UNL     1      39.828  30.148  51.483  1.00  0.00     0.205 HD
HETATM    6  N4  UNL     1      39.803  31.180  49.749  1.00  0.00    -0.271 N 
ATOM      7  H4  UNL     1      40.790  31.433  49.809  1.00  0.00     0.188 HD
HETATM    8  C2  UNL     1      39.072  31.590  48.706  1.00  0.00     0.186 A 
HETATM    9  S1  UNL     1      39.755  32.491  47.537  1.00  0.00    -0.053 SA
HETATM   10  C3  UNL     1      37.718  31.255  48.602  1.00  0.00     0.321 A 
HETATM   11  O1  UNL     1      37.065  31.660  47.607  1.00  0.00    -0.262 OA
HETATM   12  N5  UNL     1      37.202  30.509  49.594  1.00  0.00    -0.049 N 
ENDROOT
BRANCH   1  13
HETATM   13  N1  UNL     1      38.191  28.967  52.653  1.00  0.00    -0.331 N 
ATOM     14  H12 UNL     1      39.104  28.549  52.477  1.00  0.00     0.177 HD
ATOM     15  H11 UNL     1      37.833  29.101  53.599  1.00  0.00     0.177 HD
ENDBRANCH   1  13
BRANCH  12  16
HETATM   16  N6  UNL     1      35.850  30.150  49.534  1.00  0.00    -0.321 N 
ATOM     17  H62 UNL     1      35.215  30.510  50.247  1.00  0.00     0.178 HD
ATOM     18  H61 UNL     1      35.542  29.537  48.779  1.00  0.00     0.178 HD
ENDBRANCH  12  16
TORSDOF 2
ENDMDL
MODEL 3
REMARK VINA RESULT: -3.875374004      2.206      3.184
REMARK  2 active torsions:
REMARK  status: ('A' for Active; 'I' for Inactive)
REMARK    1  A    between atoms: N1_1  and  N2_4 
REMARK    2  A    between atoms: N5_15  and  N6_16 
ROOT
HETATM    1  N2  UNL     1      35.699  30.105  51.179  1.00  0.00    -0.135 N 
ATOM      2  H2  UNL     1      34.785  29.988  50.742  1.00  0.00     0.205 HD
HETATM    3  C1  UNL     1      36.705  30.557  50.504  1.00  0.00     0.735 A 
HETATM    4  N3  UNL     1      37.940  30.721  51.068  1.00  0.00    -0.128 N 
ATOM      5  H3  UNL     1      38.073  30.480  52.050  1.00  0.00     0.205 HD
HETATM    6  N4  UNL     1      38.960  31.182  50.379  1.00  0.00    -0.271 N 
ATOM      7  H4  UNL     1      39.868  31.293  50.829  1.00  0.00     0.188 HD
HETATM    8  C2  UNL     1      38.809  31.505  49.089  1.00  0.00     0.186 A 
HETATM    9  S1  UNL     1      40.074  32.075  48.240  1.00  0.00    -0.053 SA
HETATM   10  C3  UNL     1      37.573  31.361  48.451  1.00  0.00     0.321 A 
HETATM   11  O1  UNL     1      37.473  31.675  47.238  1.00  0.00    -0.262 OA
HETATM   12  N5  UNL     1      36.560  30.886  49.197  1.00  0.00    -0.049 N 
ENDROOT
BRANCH   1  13
HETATM   13  N1  UNL     1      35.897  29.780  52.521  1.00  0.00    -0.331 N 
ATOM     14  H12 UNL     1      36.671  30.198  53.037  1.00  0.00     0.177 HD
ATOM     15  H11 UNL     1      35.252  29.122  52.958  1.00  0.00     0.177 HD
ENDBRANCH   1  13
BRANCH  12  16
HETATM   16  N6  UNL     1      35.303  30.726  48.602  1.00  0.00    -0.321 N 
ATOM     17  H62 UNL     1      34.978  31.433  47.943  1.00  0.00     0.178 HD
ATOM     18  H61 UNL     1      34.749  29.905  48.848  1.00  0.00     0.178 HD
ENDBRANCH  12  16
TORSDOF 2
ENDMDL
MODEL 4
REMARK VINA RESULT: -3.846517527      1.788      2.978
REMARK  2 active torsions:
REMARK  status: ('A' for Active; 'I' for Inactive)
REMARK    1  A    between atoms: N1_1  and  N2_4 
REMARK    2  A    between atoms: N5_15  and  N6_16 
ROOT
HETATM    1  N2  UNL     1      40.189  31.972  49.223  1.00  0.00    -0.135 N 
ATOM      2  H2  UNL     1      40.821  31.838  50.012  1.00  0.00     0.205 HD
HETATM    3  C1  UNL     1      38.997  31.469  49.234  1.00  0.00     0.735 A 
HETATM    4  N3  UNL     1      38.132  31.635  48.188  1.00  0.00    -0.128 N 
ATOM      5  H3  UNL     1      38.434  32.171  47.375  1.00  0.00     0.205 HD
HETATM    6  N4  UNL     1      36.922  31.122  48.203  1.00  0.00    -0.271 N 
ATOM      7  H4  UNL     1      36.300  31.264  47.407  1.00  0.00     0.188 HD
HETATM    8  C2  UNL     1      36.504  30.415  49.259  1.00  0.00     0.186 A 
HETATM    9  S1  UNL     1      35.006  29.782  49.273  1.00  0.00    -0.053 SA
HETATM   10  C3  UNL     1      37.339  30.207  50.361  1.00  0.00     0.321 A 
HETATM   11  O1  UNL     1      36.909  29.537  51.334  1.00  0.00    -0.262 OA
HETATM   12  N5  UNL     1      38.567  30.751  50.300  1.00  0.00    -0.049 N 
ENDROOT
BRANCH   1  13
HETATM   13  N1  UNL     1      40.586  32.704  48.103  1.00  0.00    -0.331 N 
ATOM     14  H12 UNL     1      40.562  33.723  48.127  1.00  0.00     0.177 HD
ATOM     15  H11 UNL     1      40.894  32.191  47.277  1.00  0.00     0.177 HD
ENDBRANCH   1  13
BRANCH  12  16
HETATM   16  N6  UNL     1      39.439  30.571  51.380  1.00  0.00    -0.321 N 
ATOM     17  H62 UNL     1      40.438  30.479  51.195  1.00  0.00     0.178 HD
ATOM     18  H61 UNL     1      39.047  30.535  52.322  1.00  0.00     0.178 HD
ENDBRANCH  12  16
TORSDOF 2
ENDMDL
MODEL 5
REMARK VINA RESULT: -3.615493156      2.466      3.690
REMARK  2 active torsions:
REMARK  status: ('A' for Active; 'I' for Inactive)
REMARK    1  A    between atoms: N1_1  and  N2_4 
REMARK    2  A    between atoms: N5_15  and  N6_16 
ROOT
HETATM    1  N2  UNL     1      38.426  31.961  47.763  1.00  0.00    -0.135 N 
ATOM      2  H2  UNL     1      37.611  32.432  47.369  1.00  0.00     0.205 HD
HETATM    3  C1  UNL     1      38.333  31.277  48.857  1.00  0.00     0.735 A 
HETATM    4  N3  UNL     1      39.412  30.638  49.404  1.00  0.00    -0.128 N 
ATOM      5  H3  UNL     1      40.316  30.701  48.936  1.00  0.00     0.205 HD
HETATM    6  N4  UNL     1      39.314  29.944  50.516  1.00  0.00    -0.271 N 
ATOM      7  H4  UNL     1      40.137  29.478  50.898  1.00  0.00     0.188 HD
HETATM    8  C2  UNL     1      38.138  29.847  51.147  1.00  0.00     0.186 A 
HETATM    9  S1  UNL     1      38.022  28.987  52.523  1.00  0.00    -0.053 SA
HETATM   10  C3  UNL     1      36.997  30.477  50.641  1.00  0.00     0.321 A 
HETATM   11  O1  UNL     1      35.911  30.362  51.264  1.00  0.00    -0.262 OA
HETATM   12  N5  UNL     1      37.146  31.175  49.502  1.00  0.00    -0.049 N 
ENDROOT
BRANCH   1  13
HETATM   13  N1  UNL     1      39.670  32.037  47.135  1.00  0.00    -0.331 N 
ATOM     14  H12 UNL     1      39.979  32.917  46.723  1.00  0.00     0.177 HD
ATOM     15  H11 UNL     1      40.246  31.196  47.105  1.00  0.00     0.177 HD
ENDBRANCH   1  13
BRANCH  12  16
HETATM   16  N6  UNL     1      36.031  31.822  48.957  1.00  0.00    -0.321 N 
ATOM     17  H62 UNL     1      35.923  32.825  49.109  1.00  0.00     0.178 HD
ATOM     18  H61 UNL     1      35.359  31.269  48.425  1.00  0.00     0.178 HD
ENDBRANCH  12  16
TORSDOF 2
ENDMDL
