MODEL 1
REMARK VINA RESULT: -6.431386835      0.000      0.000
REMARK  3 active torsions:
REMARK  status: ('A' for Active; 'I' for Inactive)
REMARK    1  A    between atoms: N1_1  and  N2_4 
REMARK    2  A    between atoms: N2_4  and  C1_6 
REMARK    3  A    between atoms: C4_15  and  C5_16 
ROOT
HETATM    1  C1  UNL     1      38.704  30.934  50.075  1.00  0.00     0.142 A 
HETATM    2  N3  UNL     1      39.335  30.191  51.004  1.00  0.00    -0.292 N 
ATOM      3  H3  UNL     1      40.350  30.255  51.065  1.00  0.00     0.172 HD
HETATM    4  C2  UNL     1      38.697  29.370  51.854  1.00  0.00     0.327 A 
HETATM    5  O1  UNL     1      39.316  28.678  52.723  1.00  0.00    -0.247 OA
HETATM    6  N4  UNL     1      37.359  29.275  51.784  1.00  0.00    -0.296 N 
ATOM      7  H4  UNL     1      36.853  28.657  52.420  1.00  0.00     0.171 HD
HETATM    8  C3  UNL     1      36.687  30.005  50.863  1.00  0.00     0.139 A 
HETATM    9  N5  UNL     1      35.270  29.922  50.770  1.00  0.00    -0.081 NA
HETATM   10  C4  UNL     1      37.333  30.849  49.989  1.00  0.00     0.115 A 
ENDROOT
BRANCH   1  11
HETATM   11  N2  UNL     1      39.304  31.717  49.262  1.00  0.00    -0.291 N 
ATOM     12  H2  UNL     1      39.309  32.714  49.473  1.00  0.00     0.188 HD
BRANCH  11  13
HETATM   13  N1  UNL     1      39.952  31.288  48.102  1.00  0.00    -0.344 N 
ATOM     14  H12 UNL     1      40.893  30.909  48.210  1.00  0.00     0.176 HD
ATOM     15  H11 UNL     1      39.539  31.333  47.169  1.00  0.00     0.176 HD
ENDBRANCH  11  13
ENDBRANCH   1  11
BRANCH  10  16
HETATM   16  C5  UNL     1      36.585  31.634  48.995  1.00  0.00     0.272 C 
HETATM   17  N6  UNL     1      36.937  31.579  47.623  1.00  0.00    -0.057 NA
HETATM   18  O2  UNL     1      35.626  32.370  49.315  1.00  0.00    -0.271 OA
ENDBRANCH  10  16
TORSDOF 3
ENDMDL
MODEL 2
REMARK VINA RESULT: -6.265150462      2.003      3.292
REMARK  3 active torsions:
REMARK  status: ('A' for Active; 'I' for Inactive)
REMARK    1  A    between atoms: N1_1  and  N2_4 
REMARK    2  A    between atoms: N2_4  and  C1_6 
REMARK    3  A    between atoms: C4_15  and  C5_16 
ROOT
HETATM    1  C1  UNL     1      38.070  30.386  50.517  1.00  0.00     0.142 A 
HETATM    2  N3  UNL     1      36.904  29.979  51.052  1.00  0.00    -0.292 N 
ATOM      3  H3  UNL     1      36.922  29.538  51.971  1.00  0.00     0.172 HD
HETATM    4  C2  UNL     1      35.717  30.124  50.439  1.00  0.00     0.327 A 
HETATM    5  O1  UNL     1      34.628  29.731  50.966  1.00  0.00    -0.247 OA
HETATM    6  N4  UNL     1      35.678  30.702  49.228  1.00  0.00    -0.296 N 
ATOM      7  H4  UNL     1      34.788  30.822  48.743  1.00  0.00     0.171 HD
HETATM    8  C3  UNL     1      36.830  31.125  48.655  1.00  0.00     0.139 A 
HETATM    9  N5  UNL     1      36.815  31.741  47.373  1.00  0.00    -0.081 NA
HETATM   10  C4  UNL     1      38.049  30.981  49.276  1.00  0.00     0.115 A 
ENDROOT
BRANCH   1  11
HETATM   11  N2  UNL     1      39.203  30.252  51.094  1.00  0.00    -0.291 N 
ATOM     12  H2  UNL     1      39.938  30.923  50.870  1.00  0.00     0.188 HD
BRANCH  11  13
HETATM   13  N1  UNL     1      39.495  29.241  52.012  1.00  0.00    -0.344 N 
ATOM     14  H12 UNL     1      39.580  28.293  51.646  1.00  0.00     0.176 HD
ATOM     15  H11 UNL     1      39.626  29.400  53.012  1.00  0.00     0.176 HD
ENDBRANCH  11  13
ENDBRANCH   1  11
BRANCH  10  16
HETATM   16  C5  UNL     1      39.290  31.446  48.637  1.00  0.00     0.272 C 
HETATM   17  N6  UNL     1      40.096  30.549  47.895  1.00  0.00    -0.057 NA
HETATM   18  O2  UNL     1      39.676  32.633  48.723  1.00  0.00    -0.271 OA
ENDBRANCH  10  16
TORSDOF 3
ENDMDL
MODEL 3
REMARK VINA RESULT: -6.087618810      1.973      3.556
REMARK  3 active torsions:
REMARK  status: ('A' for Active; 'I' for Inactive)
REMARK    1  A    between atoms: N1_1  and  N2_4 
REMARK    2  A    between atoms: N2_4  and  C1_6 
REMARK    3  A    between atoms: C4_15  and  C5_16 
ROOT
HETATM    1  C1  UNL     1      38.674  30.840  50.410  1.00  0.00     0.142 A 
HETATM    2  N3  UNL     1      39.646  31.475  49.727  1.00  0.00    -0.292 N 
ATOM      3  H3  UNL     1      40.555  31.588  50.175  1.00  0.00     0.172 HD
HETATM    4  C2  UNL     1      39.482  31.966  48.488  1.00  0.00     0.327 A 
HETATM    5  O1  UNL     1      40.416  32.562  47.865  1.00  0.00    -0.247 OA
HETATM    6  N4  UNL     1      38.290  31.825  47.886  1.00  0.00    -0.296 N 
ATOM      7  H4  UNL     1      38.142  32.190  46.945  1.00  0.00     0.171 HD
HETATM    8  C3  UNL     1      37.285  31.193  48.538  1.00  0.00     0.139 A 
HETATM    9  N5  UNL     1      36.014  31.030  47.922  1.00  0.00    -0.081 NA
HETATM   10  C4  UNL     1      37.445  30.686  49.808  1.00  0.00     0.115 A 
ENDROOT
BRANCH   1  11
HETATM   11  N2  UNL     1      38.822  30.370  51.588  1.00  0.00    -0.291 N 
ATOM     12  H2  UNL     1      38.411  30.886  52.366  1.00  0.00     0.188 HD
BRANCH  11  13
HETATM   13  N1  UNL     1      39.513  29.191  51.875  1.00  0.00    -0.344 N 
ATOM     14  H12 UNL     1      38.964  28.333  51.931  1.00  0.00     0.176 HD
ATOM     15  H11 UNL     1      40.521  29.145  52.028  1.00  0.00     0.176 HD
ENDBRANCH  11  13
ENDBRANCH   1  11
BRANCH  10  16
HETATM   16  C5  UNL     1      36.342  30.003  50.500  1.00  0.00     0.272 C 
HETATM   17  N6  UNL     1      35.784  30.554  51.681  1.00  0.00    -0.057 NA
HETATM   18  O2  UNL     1      35.861  28.927  50.082  1.00  0.00    -0.271 OA
ENDBRANCH  10  16
TORSDOF 3
ENDMDL
MODEL 4
REMARK VINA RESULT: -6.020974958      2.008      3.685
REMARK  3 active torsions:
REMARK  status: ('A' for Active; 'I' for Inactive)
REMARK    1  A    between atoms: N1_1  and  N2_4 
REMARK    2  A    between atoms: N2_4  and  C1_6 
REMARK    3  A    between atoms: C4_15  and  C5_16 
ROOT
HETATM    1  C1  UNL     1      37.141  31.365  48.833  1.00  0.00     0.142 A 
HETATM    2  N3  UNL     1      38.174  31.998  48.245  1.00  0.00    -0.292 N 
ATOM      3  H3  UNL     1      38.003  32.488  47.367  1.00  0.00     0.172 HD
HETATM    4  C2  UNL     1      39.417  32.018  48.753  1.00  0.00     0.327 A 
HETATM    5  O1  UNL     1      40.376  32.623  48.177  1.00  0.00    -0.247 OA
HETATM    6  N4  UNL     1      39.657  31.376  49.908  1.00  0.00    -0.296 N 
ATOM      7  H4  UNL     1      40.594  31.378  50.313  1.00  0.00     0.171 HD
HETATM    8  C3  UNL     1      38.646  30.727  50.532  1.00  0.00     0.139 A 
HETATM    9  N5  UNL     1      38.874  30.041  51.756  1.00  0.00    -0.081 NA
HETATM   10  C4  UNL     1      37.369  30.702  50.018  1.00  0.00     0.115 A 
ENDROOT
BRANCH   1  11
HETATM   11  N2  UNL     1      35.956  31.341  48.357  1.00  0.00    -0.291 N 
ATOM     12  H2  UNL     1      35.402  32.196  48.404  1.00  0.00     0.188 HD
BRANCH  11  13
HETATM   13  N1  UNL     1      35.373  30.213  47.776  1.00  0.00    -0.344 N 
ATOM     14  H12 UNL     1      35.755  29.305  48.041  1.00  0.00     0.176 HD
ATOM     15  H11 UNL     1      34.598  30.251  47.113  1.00  0.00     0.176 HD
ENDBRANCH  11  13
ENDBRANCH   1  11
BRANCH  10  16
HETATM   16  C5  UNL     1      36.283  29.991  50.710  1.00  0.00     0.272 C 
HETATM   17  N6  UNL     1      35.735  30.510  51.910  1.00  0.00    -0.057 NA
HETATM   18  O2  UNL     1      35.808  28.919  50.275  1.00  0.00    -0.271 OA
ENDBRANCH  10  16
TORSDOF 3
ENDMDL
MODEL 5
REMARK VINA RESULT: -5.642324290      0.509      2.745
REMARK  3 active torsions:
REMARK  status: ('A' for Active; 'I' for Inactive)
REMARK    1  A    between atoms: N1_1  and  N2_4 
REMARK    2  A    between atoms: N2_4  and  C1_6 
REMARK    3  A    between atoms: C4_15  and  C5_16 
ROOT
HETATM    1  C1  UNL     1      36.908  29.984  50.952  1.00  0.00     0.142 A 
HETATM    2  N3  UNL     1      37.705  29.380  51.854  1.00  0.00    -0.292 N 
ATOM      3  H3  UNL     1      37.281  28.722  52.507  1.00  0.00     0.172 HD
HETATM    4  C2  UNL     1      39.028  29.598  51.938  1.00  0.00     0.327 A 
HETATM    5  O1  UNL     1      39.758  29.015  52.800  1.00  0.00    -0.247 OA
HETATM    6  N4  UNL     1      39.599  30.463  51.084  1.00  0.00    -0.296 N 
ATOM      7  H4  UNL     1      40.602  30.645  51.130  1.00  0.00     0.171 HD
HETATM    8  C3  UNL     1      38.833  31.092  50.162  1.00  0.00     0.139 A 
HETATM    9  N5  UNL     1      39.414  32.012  49.246  1.00  0.00    -0.081 NA
HETATM   10  C4  UNL     1      37.477  30.874  50.068  1.00  0.00     0.115 A 
ENDROOT
BRANCH   1  11
HETATM   11  N2  UNL     1      35.650  29.782  50.865  1.00  0.00    -0.291 N 
ATOM     12  H2  UNL     1      35.055  30.125  51.618  1.00  0.00     0.188 HD
BRANCH  11  13
HETATM   13  N1  UNL     1      35.040  29.118  49.798  1.00  0.00    -0.344 N 
ATOM     14  H12 UNL     1      34.431  28.332  50.028  1.00  0.00     0.176 HD
ATOM     15  H11 UNL     1      35.170  29.374  48.819  1.00  0.00     0.176 HD
ENDBRANCH  11  13
ENDBRANCH   1  11
BRANCH  10  16
HETATM   16  C5  UNL     1      36.661  31.566  49.059  1.00  0.00     0.272 C 
HETATM   17  N6  UNL     1      37.046  31.558  47.695  1.00  0.00    -0.057 NA
HETATM   18  O2  UNL     1      35.614  32.180  49.360  1.00  0.00    -0.271 OA
ENDBRANCH  10  16
TORSDOF 3
ENDMDL
