MODEL 1
REMARK VINA RESULT: -8.723606845      0.000      0.000
REMARK  11 active torsions:
REMARK  status: ('A' for Active; 'I' for Inactive)
REMARK    1  A    between atoms: N1_1  and  N2_4 
REMARK       I    between atoms: N2_4  and  C1_6 
REMARK    2  A    between atoms: C1_6  and  C2_8 
REMARK    3  A    between atoms: C2_8  and  N3_9 
REMARK    4  A    between atoms: C2_8  and  C5_26 
REMARK    5  A    between atoms: N3_9  and  N4_11 
REMARK       I    between atoms: N4_11  and  C3_13 
REMARK       I    between atoms: C3_13  and  N6_15 
REMARK       I    between atoms: N6_15  and  C4_17 
REMARK       I    between atoms: C4_17  and  N7_18 
REMARK       I    between atoms: C4_17  and  N8_22 
REMARK       I    between atoms: C5_26  and  N9_28 
REMARK    6  A    between atoms: N9_28  and  C6_30 
REMARK    7  A    between atoms: C7_32  and  C8_33 
REMARK    8  A    between atoms: C8_33  and  O4_34 
REMARK    9  A    between atoms: C9_36  and  O5_37 
REMARK   10  A    between atoms: C10_39  and  O6_40 
REMARK   11  A    between atoms: C11_42  and  N10_43 
ROOT
HETATM    1  C5  UNL     1      22.943  19.665  17.507  1.00  0.00     0.253 C 
HETATM    2  O2  UNL     1      24.060  19.926  16.952  1.00  0.00    -0.271 OA
HETATM    3  N9  UNL     1      22.377  20.687  18.308  1.00  0.00    -0.330 N 
ATOM      4  H9  UNL     1      21.479  20.512  18.758  1.00  0.00     0.165 HD
ENDROOT
BRANCH   1   5
HETATM    5  C2  UNL     1      22.289  18.358  17.308  1.00  0.00     0.284 C 
BRANCH   5   6
HETATM    6  C1  UNL     1      21.102  18.539  16.437  1.00  0.00     0.269 C 
HETATM    7  N2  UNL     1      21.234  18.493  15.034  1.00  0.00    -0.274 N 
ATOM      8  H2  UNL     1      22.158  18.337  14.632  1.00  0.00     0.189 HD
HETATM    9  O1  UNL     1      19.981  18.731  16.974  1.00  0.00    -0.269 OA
BRANCH   7  10
HETATM   10  N1  UNL     1      20.136  18.657  14.169  1.00  0.00    -0.343 N 
ATOM     11  H12 UNL     1      19.201  18.640  14.577  1.00  0.00     0.176 HD
ATOM     12  H11 UNL     1      20.249  18.789  13.164  1.00  0.00     0.176 HD
ENDBRANCH   7  10
ENDBRANCH   5   6
BRANCH   5  13
HETATM   13  N3  UNL     1      21.857  17.773  18.567  1.00  0.00    -0.311 N 
ATOM     14  H3  UNL     1      21.895  18.294  19.443  1.00  0.00     0.181 HD
BRANCH  13  15
HETATM   15  N4  UNL     1      21.400  16.496  18.511  1.00  0.00    -0.277 N 
HETATM   16  C3  UNL     1      21.186  15.775  19.737  1.00  0.00     0.205 C 
HETATM   17  N5  UNL     1      19.974  15.854  20.449  1.00  0.00    -0.062 NA
HETATM   18  N6  UNL     1      22.126  15.018  20.217  1.00  0.00    -0.314 N 
HETATM   19  C4  UNL     1      21.963  14.286  21.426  1.00  0.00     0.482 C 
ATOM     20  H6  UNL     1      23.009  14.947  19.711  1.00  0.00     0.166 HD
HETATM   21  N7  UNL     1      22.783  14.791  22.494  1.00  0.00    -0.033 N 
HETATM   22  N8  UNL     1      22.226  12.848  21.277  1.00  0.00    -0.033 N 
ATOM     23  H73 UNL     1      23.763  14.828  22.217  1.00  0.00     0.278 HD
ATOM     24  H72 UNL     1      22.617  15.787  22.643  1.00  0.00     0.278 HD
ATOM     25  H71 UNL     1      22.666  14.267  23.360  1.00  0.00     0.278 HD
ATOM     26  H83 UNL     1      21.653  12.449  20.533  1.00  0.00     0.278 HD
ATOM     27  H82 UNL     1      23.153  12.689  20.881  1.00  0.00     0.278 HD
ATOM     28  H81 UNL     1      22.109  12.323  22.144  1.00  0.00     0.278 HD
ATOM     29  H4  UNL     1      21.212  16.053  17.612  1.00  0.00     0.189 HD
ENDBRANCH  13  15
ENDBRANCH   5  13
ENDBRANCH   1   5
BRANCH   3  30
HETATM   30  C6  UNL     1      23.023  21.981  18.519  1.00  0.00     0.249 C 
HETATM   31  O3  UNL     1      22.151  22.899  18.041  1.00  0.00    -0.354 OA
HETATM   32  C7  UNL     1      22.234  24.188  18.396  1.00  0.00     0.179 C 
HETATM   33  C9  UNL     1      23.062  24.594  19.548  1.00  0.00     0.180 C 
HETATM   34  C10 UNL     1      23.622  23.529  20.410  1.00  0.00     0.177 C 
HETATM   35  C11 UNL     1      23.490  22.126  19.905  1.00  0.00     0.172 C 
BRANCH  32  36
HETATM   36  C8  UNL     1      20.795  24.733  18.472  1.00  0.00     0.198 C 
BRANCH  36  37
HETATM   37  O4  UNL     1      19.942  23.792  19.020  1.00  0.00    -0.398 OA
ATOM     38  H4  UNL     1      19.912  23.010  18.481  1.00  0.00     0.209 HD
ENDBRANCH  36  37
ENDBRANCH  32  36
BRANCH  33  39
HETATM   39  O5  UNL     1      24.063  25.533  19.177  1.00  0.00    -0.390 OA
ATOM     40  H5  UNL     1      24.071  26.289  19.753  1.00  0.00     0.210 HD
ENDBRANCH  33  39
BRANCH  34  41
HETATM   41  O6  UNL     1      23.153  23.626  21.738  1.00  0.00    -0.391 OA
ATOM     42  H6  UNL     1      23.850  23.850  22.344  1.00  0.00     0.210 HD
ENDBRANCH  34  41
BRANCH  35  43
HETATM   43  N10 UNL     1      24.701  21.363  20.153  1.00  0.00    -0.316 N 
HETATM   44  C12 UNL     1      25.980  21.731  19.996  1.00  0.00     0.185 A 
HETATM   45  N11 UNL     1      26.801  20.724  20.343  1.00  0.00    -0.348 N 
HETATM   46  C13 UNL     1      26.065  19.674  20.733  1.00  0.00     0.093 A 
ATOM     47  H11 UNL     1      27.820  20.754  20.313  1.00  0.00     0.167 HD
HETATM   48  C14 UNL     1      26.361  18.408  21.183  1.00  0.00     0.122 A 
HETATM   49  C16 UNL     1      24.755  20.076  20.614  1.00  0.00     0.138 A 
HETATM   50  N12 UNL     1      25.367  17.555  21.509  1.00  0.00    -0.360 N 
HETATM   51  C15 UNL     1      24.070  17.962  21.388  1.00  0.00     0.182 A 
ATOM     52  H12 UNL     1      25.582  16.615  21.842  1.00  0.00     0.166 HD
HETATM   53  N13 UNL     1      23.801  19.198  20.948  1.00  0.00    -0.337 N 
ATOM     54  H13 UNL     1      22.825  19.484  20.865  1.00  0.00     0.168 HD
ENDBRANCH  35  43
ENDBRANCH   3  30
TORSDOF 11
ENDMDL
MODEL 2
REMARK VINA RESULT: -8.562901845      3.027      5.942
REMARK  11 active torsions:
REMARK  status: ('A' for Active; 'I' for Inactive)
REMARK    1  A    between atoms: N1_1  and  N2_4 
REMARK       I    between atoms: N2_4  and  C1_6 
REMARK    2  A    between atoms: C1_6  and  C2_8 
REMARK    3  A    between atoms: C2_8  and  N3_9 
REMARK    4  A    between atoms: C2_8  and  C5_26 
REMARK    5  A    between atoms: N3_9  and  N4_11 
REMARK       I    between atoms: N4_11  and  C3_13 
REMARK       I    between atoms: C3_13  and  N6_15 
REMARK       I    between atoms: N6_15  and  C4_17 
REMARK       I    between atoms: C4_17  and  N7_18 
REMARK       I    between atoms: C4_17  and  N8_22 
REMARK       I    between atoms: C5_26  and  N9_28 
REMARK    6  A    between atoms: N9_28  and  C6_30 
REMARK    7  A    between atoms: C7_32  and  C8_33 
REMARK    8  A    between atoms: C8_33  and  O4_34 
REMARK    9  A    between atoms: C9_36  and  O5_37 
REMARK   10  A    between atoms: C10_39  and  O6_40 
REMARK   11  A    between atoms: C11_42  and  N10_43 
ROOT
HETATM    1  C5  UNL     1      23.218  17.314  19.937  1.00  0.00     0.253 C 
HETATM    2  O2  UNL     1      24.138  16.707  19.297  1.00  0.00    -0.271 OA
HETATM    3  N9  UNL     1      23.636  18.259  20.905  1.00  0.00    -0.330 N 
ATOM      4  H9  UNL     1      22.924  18.769  21.427  1.00  0.00     0.165 HD
ENDROOT
BRANCH   1   5
HETATM    5  C2  UNL     1      21.797  17.032  19.663  1.00  0.00     0.284 C 
BRANCH   5   6
HETATM    6  C1  UNL     1      21.531  15.594  19.913  1.00  0.00     0.269 C 
HETATM    7  N2  UNL     1      22.409  14.838  20.716  1.00  0.00    -0.274 N 
ATOM      8  H2  UNL     1      23.226  15.296  21.118  1.00  0.00     0.189 HD
HETATM    9  O1  UNL     1      20.512  15.068  19.396  1.00  0.00    -0.269 OA
BRANCH   7  10
HETATM   10  N1  UNL     1      22.196  13.472  20.983  1.00  0.00    -0.343 N 
ATOM     11  H12 UNL     1      21.415  13.221  21.590  1.00  0.00     0.176 HD
ATOM     12  H11 UNL     1      22.790  12.741  20.591  1.00  0.00     0.176 HD
ENDBRANCH   7  10
ENDBRANCH   5   6
BRANCH   5  13
HETATM   13  N3  UNL     1      21.442  17.337  18.286  1.00  0.00    -0.311 N 
ATOM     14  H3  UNL     1      20.554  17.041  17.880  1.00  0.00     0.181 HD
BRANCH  13  15
HETATM   15  N4  UNL     1      22.359  18.037  17.570  1.00  0.00    -0.277 N 
HETATM   16  C3  UNL     1      21.907  18.946  16.551  1.00  0.00     0.205 C 
HETATM   17  N5  UNL     1      21.562  20.281  16.838  1.00  0.00    -0.062 NA
HETATM   18  N6  UNL     1      21.810  18.543  15.320  1.00  0.00    -0.314 N 
HETATM   19  C4  UNL     1      21.367  19.403  14.277  1.00  0.00     0.482 C 
ATOM     20  H6  UNL     1      22.060  17.580  15.095  1.00  0.00     0.166 HD
HETATM   21  N7  UNL     1      20.074  19.034  13.768  1.00  0.00    -0.033 N 
HETATM   22  N8  UNL     1      22.306  19.484  13.149  1.00  0.00    -0.033 N 
ATOM     23  H73 UNL     1      20.063  18.059  13.469  1.00  0.00     0.278 HD
ATOM     24  H72 UNL     1      19.385  18.983  14.518  1.00  0.00     0.278 HD
ATOM     25  H71 UNL     1      19.756  19.650  13.020  1.00  0.00     0.278 HD
ATOM     26  H83 UNL     1      23.235  19.755  13.471  1.00  0.00     0.278 HD
ATOM     27  H82 UNL     1      22.516  18.554  12.786  1.00  0.00     0.278 HD
ATOM     28  H81 UNL     1      21.988  20.101  12.402  1.00  0.00     0.278 HD
ATOM     29  H4  UNL     1      23.356  17.920  17.752  1.00  0.00     0.189 HD
ENDBRANCH  13  15
ENDBRANCH   5  13
ENDBRANCH   1   5
BRANCH   3  30
HETATM   30  C6  UNL     1      25.043  18.538  21.189  1.00  0.00     0.249 C 
HETATM   31  O3  UNL     1      25.368  19.585  20.396  1.00  0.00    -0.354 OA
HETATM   32  C7  UNL     1      26.445  20.341  20.649  1.00  0.00     0.179 C 
HETATM   33  C9  UNL     1      27.123  20.262  21.958  1.00  0.00     0.180 C 
HETATM   34  C10 UNL     1      26.464  19.488  23.035  1.00  0.00     0.177 C 
HETATM   35  C11 UNL     1      25.281  18.663  22.635  1.00  0.00     0.172 C 
BRANCH  32  36
HETATM   36  C8  UNL     1      26.093  21.785  20.245  1.00  0.00     0.198 C 
BRANCH  36  37
HETATM   37  O4  UNL     1      25.159  22.324  21.111  1.00  0.00    -0.398 OA
ATOM     38  H4  UNL     1      24.324  22.447  20.673  1.00  0.00     0.209 HD
ENDBRANCH  36  37
ENDBRANCH  32  36
BRANCH  33  39
HETATM   39  O5  UNL     1      28.490  19.895  21.826  1.00  0.00    -0.390 OA
ATOM     40  H5  UNL     1      29.024  20.621  21.525  1.00  0.00     0.210 HD
ENDBRANCH  33  39
BRANCH  34  41
HETATM   41  O6  UNL     1      26.152  20.299  24.148  1.00  0.00    -0.391 OA
ATOM     42  H6  UNL     1      25.404  19.964  24.630  1.00  0.00     0.210 HD
ENDBRANCH  34  41
BRANCH  35  43
HETATM   43  N10 UNL     1      25.294  17.371  23.297  1.00  0.00    -0.316 N 
HETATM   44  C12 UNL     1      25.417  16.148  22.764  1.00  0.00     0.185 A 
HETATM   45  N11 UNL     1      25.383  15.212  23.729  1.00  0.00    -0.348 N 
HETATM   46  C13 UNL     1      25.235  15.815  24.917  1.00  0.00     0.093 A 
ATOM     47  H11 UNL     1      25.457  14.206  23.581  1.00  0.00     0.167 HD
HETATM   48  C14 UNL     1      25.140  15.368  26.215  1.00  0.00     0.122 A 
HETATM   49  C16 UNL     1      25.179  17.162  24.644  1.00  0.00     0.138 A 
HETATM   50  N12 UNL     1      24.993  16.251  27.226  1.00  0.00    -0.360 N 
HETATM   51  C15 UNL     1      24.940  17.585  26.946  1.00  0.00     0.182 A 
ATOM     52  H12 UNL     1      24.923  15.924  28.189  1.00  0.00     0.166 HD
HETATM   53  N13 UNL     1      25.033  18.001  25.677  1.00  0.00    -0.337 N 
ATOM     54  H13 UNL     1      24.991  19.003  25.488  1.00  0.00     0.168 HD
ENDBRANCH  35  43
ENDBRANCH   3  30
TORSDOF 11
ENDMDL
MODEL 3
REMARK VINA RESULT: -8.480126369      3.273      6.738
REMARK  11 active torsions:
REMARK  status: ('A' for Active; 'I' for Inactive)
REMARK    1  A    between atoms: N1_1  and  N2_4 
REMARK       I    between atoms: N2_4  and  C1_6 
REMARK    2  A    between atoms: C1_6  and  C2_8 
REMARK    3  A    between atoms: C2_8  and  N3_9 
REMARK    4  A    between atoms: C2_8  and  C5_26 
REMARK    5  A    between atoms: N3_9  and  N4_11 
REMARK       I    between atoms: N4_11  and  C3_13 
REMARK       I    between atoms: C3_13  and  N6_15 
REMARK       I    between atoms: N6_15  and  C4_17 
REMARK       I    between atoms: C4_17  and  N7_18 
REMARK       I    between atoms: C4_17  and  N8_22 
REMARK       I    between atoms: C5_26  and  N9_28 
REMARK    6  A    between atoms: N9_28  and  C6_30 
REMARK    7  A    between atoms: C7_32  and  C8_33 
REMARK    8  A    between atoms: C8_33  and  O4_34 
REMARK    9  A    between atoms: C9_36  and  O5_37 
REMARK   10  A    between atoms: C10_39  and  O6_40 
REMARK   11  A    between atoms: C11_42  and  N10_43 
ROOT
HETATM    1  C5  UNL     1      21.997  19.319  17.487  1.00  0.00     0.253 C 
HETATM    2  O2  UNL     1      22.197  18.091  17.208  1.00  0.00    -0.271 OA
HETATM    3  N9  UNL     1      22.236  19.713  18.826  1.00  0.00    -0.330 N 
ATOM      4  H9  UNL     1      22.094  20.691  19.078  1.00  0.00     0.165 HD
ENDROOT
BRANCH   1   5
HETATM    5  C2  UNL     1      21.545  20.263  16.449  1.00  0.00     0.284 C 
BRANCH   5   6
HETATM    6  C1  UNL     1      22.387  20.094  15.239  1.00  0.00     0.269 C 
HETATM    7  N2  UNL     1      21.904  19.367  14.132  1.00  0.00    -0.274 N 
ATOM      8  H2  UNL     1      20.970  18.961  14.180  1.00  0.00     0.189 HD
HETATM    9  O1  UNL     1      23.534  20.610  15.223  1.00  0.00    -0.269 OA
BRANCH   7  10
HETATM   10  N1  UNL     1      22.666  19.182  12.963  1.00  0.00    -0.343 N 
ATOM     11  H12 UNL     1      23.572  19.647  12.906  1.00  0.00     0.176 HD
ATOM     12  H11 UNL     1      22.341  18.606  12.186  1.00  0.00     0.176 HD
ENDBRANCH   7  10
ENDBRANCH   5   6
BRANCH   5  13
HETATM   13  N3  UNL     1      21.645  21.644  16.894  1.00  0.00    -0.311 N 
ATOM     14  H3  UNL     1      21.791  21.883  17.875  1.00  0.00     0.181 HD
BRANCH  13  15
HETATM   15  N4  UNL     1      21.533  22.596  15.933  1.00  0.00    -0.277 N 
HETATM   16  C3  UNL     1      21.032  23.896  16.290  1.00  0.00     0.205 C 
HETATM   17  N5  UNL     1      21.875  24.916  16.773  1.00  0.00    -0.062 NA
HETATM   18  N6  UNL     1      19.767  24.159  16.167  1.00  0.00    -0.314 N 
HETATM   19  C4  UNL     1      19.223  25.429  16.508  1.00  0.00     0.482 C 
ATOM     20  H6  UNL     1      19.143  23.433  15.815  1.00  0.00     0.166 HD
HETATM   21  N7  UNL     1      18.387  25.377  17.677  1.00  0.00    -0.033 N 
HETATM   22  N8  UNL     1      18.459  26.048  15.416  1.00  0.00    -0.033 N 
ATOM     23  H73 UNL     1      17.650  24.680  17.570  1.00  0.00     0.278 HD
ATOM     24  H72 UNL     1      18.886  24.968  18.467  1.00  0.00     0.278 HD
ATOM     25  H71 UNL     1      17.997  26.287  17.921  1.00  0.00     0.278 HD
ATOM     26  H83 UNL     1      19.024  26.113  14.569  1.00  0.00     0.278 HD
ATOM     27  H82 UNL     1      17.727  25.419  15.084  1.00  0.00     0.278 HD
ATOM     28  H81 UNL     1      18.069  26.959  15.660  1.00  0.00     0.278 HD
ATOM     29  H4  UNL     1      21.800  22.392  14.970  1.00  0.00     0.189 HD
ENDBRANCH  13  15
ENDBRANCH   5  13
ENDBRANCH   1   5
BRANCH   3  30
HETATM   30  C6  UNL     1      22.676  18.782  19.863  1.00  0.00     0.249 C 
HETATM   31  O3  UNL     1      21.743  17.801  19.883  1.00  0.00    -0.354 OA
HETATM   32  C7  UNL     1      22.000  16.608  20.435  1.00  0.00     0.179 C 
HETATM   33  C9  UNL     1      23.388  16.213  20.748  1.00  0.00     0.180 C 
HETATM   34  C10 UNL     1      24.484  17.075  20.252  1.00  0.00     0.177 C 
HETATM   35  C11 UNL     1      24.082  18.396  19.673  1.00  0.00     0.172 C 
BRANCH  32  36
HETATM   36  C8  UNL     1      21.251  15.550  19.602  1.00  0.00     0.198 C 
BRANCH  36  37
HETATM   37  O4  UNL     1      20.497  16.150  18.610  1.00  0.00    -0.398 OA
ATOM     38  H4  UNL     1      20.904  16.032  17.759  1.00  0.00     0.209 HD
ENDBRANCH  36  37
ENDBRANCH  32  36
BRANCH  33  39
HETATM   39  O5  UNL     1      23.555  15.913  22.128  1.00  0.00    -0.390 OA
ATOM     40  H5  UNL     1      23.977  16.624  22.596  1.00  0.00     0.210 HD
ENDBRANCH  33  39
BRANCH  34  41
HETATM   41  O6  UNL     1      25.337  16.383  19.367  1.00  0.00    -0.391 OA
ATOM     42  H6  UNL     1      25.855  15.725  19.817  1.00  0.00     0.210 HD
ENDBRANCH  34  41
BRANCH  35  43
HETATM   43  N10 UNL     1      24.994  19.448  20.083  1.00  0.00    -0.316 N 
HETATM   44  C12 UNL     1      25.678  19.577  21.229  1.00  0.00     0.185 A 
HETATM   45  N11 UNL     1      26.417  20.700  21.209  1.00  0.00    -0.348 N 
HETATM   46  C13 UNL     1      26.224  21.329  20.041  1.00  0.00     0.093 A 
ATOM     47  H11 UNL     1      27.025  21.022  21.961  1.00  0.00     0.167 HD
HETATM   48  C14 UNL     1      26.708  22.490  19.484  1.00  0.00     0.122 A 
HETATM   49  C16 UNL     1      25.336  20.545  19.341  1.00  0.00     0.138 A 
HETATM   50  N12 UNL     1      26.313  22.866  18.249  1.00  0.00    -0.360 N 
HETATM   51  C15 UNL     1      25.433  22.082  17.562  1.00  0.00     0.182 A 
ATOM     52  H12 UNL     1      26.670  23.726  17.833  1.00  0.00     0.166 HD
HETATM   53  N13 UNL     1      24.972  20.955  18.119  1.00  0.00    -0.337 N 
ATOM     54  H13 UNL     1      24.314  20.383  17.590  1.00  0.00     0.168 HD
ENDBRANCH  35  43
ENDBRANCH   3  30
TORSDOF 11
ENDMDL
MODEL 4
REMARK VINA RESULT: -8.453598981      3.890      6.707
REMARK  11 active torsions:
REMARK  status: ('A' for Active; 'I' for Inactive)
REMARK    1  A    between atoms: N1_1  and  N2_4 
REMARK       I    between atoms: N2_4  and  C1_6 
REMARK    2  A    between atoms: C1_6  and  C2_8 
REMARK    3  A    between atoms: C2_8  and  N3_9 
REMARK    4  A    between atoms: C2_8  and  C5_26 
REMARK    5  A    between atoms: N3_9  and  N4_11 
REMARK       I    between atoms: N4_11  and  C3_13 
REMARK       I    between atoms: C3_13  and  N6_15 
REMARK       I    between atoms: N6_15  and  C4_17 
REMARK       I    between atoms: C4_17  and  N7_18 
REMARK       I    between atoms: C4_17  and  N8_22 
REMARK       I    between atoms: C5_26  and  N9_28 
REMARK    6  A    between atoms: N9_28  and  C6_30 
REMARK    7  A    between atoms: C7_32  and  C8_33 
REMARK    8  A    between atoms: C8_33  and  O4_34 
REMARK    9  A    between atoms: C9_36  and  O5_37 
REMARK   10  A    between atoms: C10_39  and  O6_40 
REMARK   11  A    between atoms: C11_42  and  N10_43 
ROOT
HETATM    1  C5  UNL     1      23.229  16.703  21.436  1.00  0.00     0.253 C 
HETATM    2  O2  UNL     1      23.363  17.911  21.050  1.00  0.00    -0.271 OA
HETATM    3  N9  UNL     1      24.274  16.171  22.230  1.00  0.00    -0.330 N 
ATOM      4  H9  UNL     1      24.192  15.211  22.563  1.00  0.00     0.165 HD
ENDROOT
BRANCH   1   5
HETATM    5  C2  UNL     1      22.035  15.921  21.066  1.00  0.00     0.284 C 
BRANCH   5   6
HETATM    6  C1  UNL     1      22.271  14.493  21.393  1.00  0.00     0.269 C 
HETATM    7  N2  UNL     1      21.342  13.780  22.179  1.00  0.00    -0.274 N 
ATOM      8  H2  UNL     1      20.511  14.264  22.518  1.00  0.00     0.189 HD
HETATM    9  O1  UNL     1      23.310  13.936  20.956  1.00  0.00    -0.269 OA
BRANCH   7  10
HETATM   10  N1  UNL     1      21.523  12.424  22.512  1.00  0.00    -0.343 N 
ATOM     11  H12 UNL     1      21.917  11.808  21.801  1.00  0.00     0.176 HD
ATOM     12  H11 UNL     1      21.275  12.051  23.428  1.00  0.00     0.176 HD
ENDBRANCH   7  10
ENDBRANCH   5   6
BRANCH   5  13
HETATM   13  N3  UNL     1      21.738  16.030  19.647  1.00  0.00    -0.311 N 
ATOM     14  H3  UNL     1      22.215  15.455  18.952  1.00  0.00     0.181 HD
BRANCH  13  15
HETATM   15  N4  UNL     1      20.791  16.938  19.298  1.00  0.00    -0.277 N 
HETATM   16  C3  UNL     1      21.163  18.055  18.473  1.00  0.00     0.205 C 
HETATM   17  N5  UNL     1      21.170  17.977  17.067  1.00  0.00    -0.062 NA
HETATM   18  N6  UNL     1      21.503  19.182  19.021  1.00  0.00    -0.314 N 
HETATM   19  C4  UNL     1      21.880  20.315  18.247  1.00  0.00     0.482 C 
ATOM     20  H6  UNL     1      21.500  19.257  20.038  1.00  0.00     0.166 HD
HETATM   21  N7  UNL     1      23.277  20.631  18.373  1.00  0.00    -0.033 N 
HETATM   22  N8  UNL     1      21.100  21.521  18.560  1.00  0.00    -0.033 N 
ATOM     23  H73 UNL     1      23.538  20.752  19.352  1.00  0.00     0.278 HD
ATOM     24  H72 UNL     1      23.858  19.824  18.147  1.00  0.00     0.278 HD
ATOM     25  H71 UNL     1      23.547  21.443  17.819  1.00  0.00     0.278 HD
ATOM     26  H83 UNL     1      20.100  21.338  18.471  1.00  0.00     0.278 HD
ATOM     27  H82 UNL     1      21.145  21.733  19.557  1.00  0.00     0.278 HD
ATOM     28  H81 UNL     1      21.370  22.333  18.005  1.00  0.00     0.278 HD
ATOM     29  H4  UNL     1      19.829  16.830  19.619  1.00  0.00     0.189 HD
ENDBRANCH  13  15
ENDBRANCH   5  13
ENDBRANCH   1   5
BRANCH   3  30
HETATM   30  C6  UNL     1      25.466  16.937  22.594  1.00  0.00     0.249 C 
HETATM   31  O3  UNL     1      25.845  17.570  21.460  1.00  0.00    -0.354 OA
HETATM   32  C7  UNL     1      26.660  18.633  21.495  1.00  0.00     0.179 C 
HETATM   33  C9  UNL     1      26.912  19.339  22.767  1.00  0.00     0.180 C 
HETATM   34  C10 UNL     1      26.090  18.969  23.941  1.00  0.00     0.177 C 
HETATM   35  C11 UNL     1      25.231  17.751  23.796  1.00  0.00     0.172 C 
BRANCH  32  36
HETATM   36  C8  UNL     1      26.222  19.581  20.362  1.00  0.00     0.198 C 
BRANCH  36  37
HETATM   37  O4  UNL     1      25.518  18.893  19.390  1.00  0.00    -0.398 OA
ATOM     38  H4  UNL     1      25.497  19.385  18.578  1.00  0.00     0.209 HD
ENDBRANCH  36  37
ENDBRANCH  32  36
BRANCH  33  39
HETATM   39  O5  UNL     1      28.296  19.361  23.095  1.00  0.00    -0.390 OA
ATOM     40  H5  UNL     1      28.644  18.486  23.221  1.00  0.00     0.210 HD
ENDBRANCH  33  39
BRANCH  34  41
HETATM   41  O6  UNL     1      25.330  20.060  24.414  1.00  0.00    -0.391 OA
ATOM     42  H6  UNL     1      24.396  19.902  24.331  1.00  0.00     0.210 HD
ENDBRANCH  34  41
BRANCH  35  43
HETATM   43  N10 UNL     1      25.248  16.950  25.006  1.00  0.00    -0.316 N 
HETATM   44  C12 UNL     1      25.639  15.678  25.175  1.00  0.00     0.185 A 
HETATM   45  N11 UNL     1      25.497  15.313  26.461  1.00  0.00    -0.348 N 
HETATM   46  C13 UNL     1      25.007  16.348  27.158  1.00  0.00     0.093 A 
ATOM     47  H11 UNL     1      25.725  14.397  26.844  1.00  0.00     0.167 HD
HETATM   48  C14 UNL     1      24.671  16.543  28.478  1.00  0.00     0.122 A 
HETATM   49  C16 UNL     1      24.852  17.367  26.247  1.00  0.00     0.138 A 
HETATM   50  N12 UNL     1      24.188  17.737  28.885  1.00  0.00    -0.360 N 
HETATM   51  C15 UNL     1      24.039  18.742  27.975  1.00  0.00     0.182 A 
ATOM     52  H12 UNL     1      23.938  17.885  29.862  1.00  0.00     0.166 HD
HETATM   53  N13 UNL     1      24.371  18.534  26.694  1.00  0.00    -0.337 N 
ATOM     54  H13 UNL     1      24.252  19.298  26.030  1.00  0.00     0.168 HD
ENDBRANCH  35  43
ENDBRANCH   3  30
TORSDOF 11
ENDMDL
MODEL 5
REMARK VINA RESULT: -8.424114233      2.860      6.166
REMARK  11 active torsions:
REMARK  status: ('A' for Active; 'I' for Inactive)
REMARK    1  A    between atoms: N1_1  and  N2_4 
REMARK       I    between atoms: N2_4  and  C1_6 
REMARK    2  A    between atoms: C1_6  and  C2_8 
REMARK    3  A    between atoms: C2_8  and  N3_9 
REMARK    4  A    between atoms: C2_8  and  C5_26 
REMARK    5  A    between atoms: N3_9  and  N4_11 
REMARK       I    between atoms: N4_11  and  C3_13 
REMARK       I    between atoms: C3_13  and  N6_15 
REMARK       I    between atoms: N6_15  and  C4_17 
REMARK       I    between atoms: C4_17  and  N7_18 
REMARK       I    between atoms: C4_17  and  N8_22 
REMARK       I    between atoms: C5_26  and  N9_28 
REMARK    6  A    between atoms: N9_28  and  C6_30 
REMARK    7  A    between atoms: C7_32  and  C8_33 
REMARK    8  A    between atoms: C8_33  and  O4_34 
REMARK    9  A    between atoms: C9_36  and  O5_37 
REMARK   10  A    between atoms: C10_39  and  O6_40 
REMARK   11  A    between atoms: C11_42  and  N10_43 
ROOT
HETATM    1  C5  UNL     1      22.824  19.477  18.446  1.00  0.00     0.253 C 
HETATM    2  O2  UNL     1      23.560  18.896  17.582  1.00  0.00    -0.271 OA
HETATM    3  N9  UNL     1      23.294  19.476  19.782  1.00  0.00    -0.330 N 
ATOM      4  H9  UNL     1      22.733  19.941  20.496  1.00  0.00     0.165 HD
ENDROOT
BRANCH   1   5
HETATM    5  C2  UNL     1      21.555  20.115  18.050  1.00  0.00     0.284 C 
BRANCH   5   6
HETATM    6  C1  UNL     1      20.818  19.203  17.141  1.00  0.00     0.269 C 
HETATM    7  N2  UNL     1      20.431  19.638  15.857  1.00  0.00    -0.274 N 
ATOM      8  H2  UNL     1      20.666  20.587  15.568  1.00  0.00     0.189 HD
HETATM    9  O1  UNL     1      20.547  18.041  17.538  1.00  0.00    -0.269 OA
BRANCH   7  10
HETATM   10  N1  UNL     1      19.733  18.808  14.960  1.00  0.00    -0.343 N 
ATOM     11  H12 UNL     1      18.901  18.329  15.303  1.00  0.00     0.176 HD
ATOM     12  H11 UNL     1      20.033  18.676  13.993  1.00  0.00     0.176 HD
ENDBRANCH   7  10
ENDBRANCH   5   6
BRANCH   5  13
HETATM   13  N3  UNL     1      21.777  21.376  17.362  1.00  0.00    -0.311 N 
ATOM     14  H3  UNL     1      21.035  22.067  17.251  1.00  0.00     0.181 HD
BRANCH  13  15
HETATM   15  N4  UNL     1      23.027  21.583  16.874  1.00  0.00    -0.277 N 
HETATM   16  C3  UNL     1      23.259  21.448  15.462  1.00  0.00     0.205 C 
HETATM   17  N5  UNL     1      23.063  22.517  14.566  1.00  0.00    -0.062 NA
HETATM   18  N6  UNL     1      23.667  20.315  14.977  1.00  0.00    -0.314 N 
HETATM   19  C4  UNL     1      23.910  20.131  13.588  1.00  0.00     0.482 C 
ATOM     20  H6  UNL     1      23.818  19.532  15.614  1.00  0.00     0.166 HD
HETATM   21  N7  UNL     1      22.951  19.256  12.970  1.00  0.00    -0.033 N 
HETATM   22  N8  UNL     1      25.258  19.627  13.292  1.00  0.00    -0.033 N 
ATOM     23  H73 UNL     1      22.906  18.360  13.455  1.00  0.00     0.278 HD
ATOM     24  H72 UNL     1      21.998  19.580  13.135  1.00  0.00     0.278 HD
ATOM     25  H71 UNL     1      23.125  19.124  11.973  1.00  0.00     0.278 HD
ATOM     26  H83 UNL     1      25.969  20.230  13.706  1.00  0.00     0.278 HD
ATOM     27  H82 UNL     1      25.444  18.767  13.808  1.00  0.00     0.278 HD
ATOM     28  H81 UNL     1      25.432  19.495  12.296  1.00  0.00     0.278 HD
ATOM     29  H4  UNL     1      23.792  21.831  17.502  1.00  0.00     0.189 HD
ENDBRANCH  13  15
ENDBRANCH   5  13
ENDBRANCH   1   5
BRANCH   3  30
HETATM   30  C6  UNL     1      24.546  18.839  20.185  1.00  0.00     0.249 C 
HETATM   31  O3  UNL     1      25.457  19.838  20.236  1.00  0.00    -0.354 OA
HETATM   32  C7  UNL     1      26.604  19.701  20.915  1.00  0.00     0.179 C 
HETATM   33  C9  UNL     1      26.772  18.598  21.881  1.00  0.00     0.180 C 
HETATM   34  C10 UNL     1      25.582  17.786  22.222  1.00  0.00     0.177 C 
HETATM   35  C11 UNL     1      24.362  18.008  21.384  1.00  0.00     0.172 C 
BRANCH  32  36
HETATM   36  C8  UNL     1      26.946  21.078  21.514  1.00  0.00     0.198 C 
BRANCH  36  37
HETATM   37  O4  UNL     1      28.050  20.992  22.344  1.00  0.00    -0.398 OA
ATOM     38  H4  UNL     1      27.848  20.486  23.122  1.00  0.00     0.209 HD
ENDBRANCH  36  37
ENDBRANCH  32  36
BRANCH  33  39
HETATM   39  O5  UNL     1      27.881  17.770  21.553  1.00  0.00    -0.390 OA
ATOM     40  H5  UNL     1      27.853  17.484  20.647  1.00  0.00     0.210 HD
ENDBRANCH  33  39
BRANCH  34  41
HETATM   41  O6  UNL     1      25.265  17.870  23.595  1.00  0.00    -0.391 OA
ATOM     42  H6  UNL     1      25.067  18.762  23.857  1.00  0.00     0.210 HD
ENDBRANCH  34  41
BRANCH  35  43
HETATM   43  N10 UNL     1      23.698  16.753  21.080  1.00  0.00    -0.316 N 
HETATM   44  C12 UNL     1      23.210  16.316  19.910  1.00  0.00     0.185 A 
HETATM   45  N11 UNL     1      22.674  15.092  20.057  1.00  0.00    -0.348 N 
HETATM   46  C13 UNL     1      22.803  14.708  21.334  1.00  0.00     0.093 A 
ATOM     47  H11 UNL     1      22.238  14.544  19.315  1.00  0.00     0.167 HD
HETATM   48  C14 UNL     1      22.448  13.581  22.039  1.00  0.00     0.122 A 
HETATM   49  C16 UNL     1      23.443  15.747  21.970  1.00  0.00     0.138 A 
HETATM   50  N12 UNL     1      22.726  13.490  23.357  1.00  0.00    -0.360 N 
HETATM   51  C15 UNL     1      23.361  14.524  23.979  1.00  0.00     0.182 A 
ATOM     52  H12 UNL     1      22.464  12.656  23.882  1.00  0.00     0.166 HD
HETATM   53  N13 UNL     1      23.699  15.614  23.277  1.00  0.00    -0.337 N 
ATOM     54  H13 UNL     1      24.173  16.377  23.760  1.00  0.00     0.168 HD
ENDBRANCH  35  43
ENDBRANCH   3  30
TORSDOF 11
ENDMDL
