MODEL 1
REMARK VINA RESULT: -9.966492843      0.000      0.000
REMARK  14 active torsions:
REMARK  status: ('A' for Active; 'I' for Inactive)
REMARK    1  A    between atoms: N1_1  and  C1_4 
REMARK    2  A    between atoms: C2_7  and  N3_8 
REMARK       I    between atoms: N6_16  and  C4_17 
REMARK    3  A    between atoms: C4_17  and  C5_19 
REMARK    4  A    between atoms: C5_19  and  C6_21 
REMARK    5  A    between atoms: C6_21  and  O3_22 
REMARK    6  A    between atoms: C6_21  and  N7_24 
REMARK    7  A    between atoms: N7_24  and  C7_26 
REMARK    8  A    between atoms: C7_26  and  C8_27 
REMARK    9  A    between atoms: C10_34  and  O5_35 
REMARK   10  A    between atoms: O5_35  and  C11_36 
REMARK   11  A    between atoms: C12_37  and  N10_38 
REMARK   12  A    between atoms: C14_43  and  N11_44 
REMARK   13  A    between atoms: C15_48  and  O6_49 
REMARK   14  A    between atoms: C16_51  and  O7_52 
ROOT
HETATM    1  N7  UNL     1      23.546  18.825  20.520  1.00  0.00    -0.388 N 
ATOM      2  H7  UNL     1      23.132  18.658  21.437  1.00  0.00     0.156 HD
ENDROOT
BRANCH   1   3
HETATM    3  C6  UNL     1      24.836  18.294  20.142  1.00  0.00     0.295 C 
BRANCH   3   4
HETATM    4  C5  UNL     1      24.997  16.867  20.384  1.00  0.00     0.266 C 
HETATM    5  O2  UNL     1      25.489  16.120  19.520  1.00  0.00    -0.282 OA
BRANCH   4   6
HETATM    6  C4  UNL     1      24.579  16.299  21.658  1.00  0.00     0.320 C 
HETATM    7  N6  UNL     1      23.629  15.242  21.700  1.00  0.00    -0.183 N 
HETATM    8  N5  UNL     1      23.034  14.673  20.636  1.00  0.00    -0.231 N 
HETATM    9  C17 UNL     1      23.176  14.636  22.807  1.00  0.00     0.179 A 
HETATM   10  N4  UNL     1      22.214  13.722  21.034  1.00  0.00    -0.279 N 
ATOM     11  H5  UNL     1      23.195  14.939  19.664  1.00  0.00     0.209 HD
HETATM   12  C3  UNL     1      22.270  13.664  22.392  1.00  0.00     0.140 A 
ATOM     13  H4  UNL     1      21.639  13.134  20.431  1.00  0.00     0.189 HD
HETATM   14  C2  UNL     1      21.624  12.860  23.298  1.00  0.00     0.147 A 
HETATM   15  N2  UNL     1      21.870  13.017  24.597  1.00  0.00    -0.175 N 
HETATM   16  C1  UNL     1      22.738  13.945  25.025  1.00  0.00     0.679 A 
ATOM     17  H2  UNL     1      21.393  12.422  25.275  1.00  0.00     0.186 HD
HETATM   18  N12 UNL     1      23.377  14.741  24.126  1.00  0.00    -0.172 N 
ATOM     19  H12 UNL     1      24.032  15.443  24.469  1.00  0.00     0.186 HD
HETATM   20  O1  UNL     1      25.069  16.752  22.746  1.00  0.00    -0.262 OA
BRANCH  14  21
HETATM   21  N3  UNL     1      20.782  11.962  22.852  1.00  0.00    -0.383 N 
ATOM     22  H32 UNL     1      19.782  12.146  22.934  1.00  0.00     0.157 HD
ATOM     23  H31 UNL     1      21.094  11.089  22.427  1.00  0.00     0.157 HD
ENDBRANCH  14  21
BRANCH  16  24
HETATM   24  N1  UNL     1      22.990  14.112  26.281  1.00  0.00    -0.234 N 
ATOM     25  H12 UNL     1      22.904  15.049  26.673  1.00  0.00     0.174 HD
ATOM     26  H11 UNL     1      23.270  13.334  26.880  1.00  0.00     0.174 HD
ENDBRANCH  16  24
ENDBRANCH   4   6
ENDBRANCH   3   4
BRANCH   3  27
HETATM   27  O3  UNL     1      25.007  18.582  18.765  1.00  0.00    -0.369 OA
ATOM     28  H3  UNL     1      24.220  18.977  18.410  1.00  0.00     0.212 HD
ENDBRANCH   3  27
ENDBRANCH   1   3
BRANCH   1  29
HETATM   29  C7  UNL     1      22.896  19.601  19.513  1.00  0.00     0.146 C 
BRANCH  29  30
HETATM   30  C8  UNL     1      21.606  18.864  19.157  1.00  0.00     0.152 C 
HETATM   31  N8  UNL     1      21.440  17.805  20.130  1.00  0.00    -0.333 N 
HETATM   32  C9  UNL     1      20.833  16.717  19.459  1.00  0.00     0.318 C 
ATOM     33  H8  UNL     1      21.710  17.837  21.113  1.00  0.00     0.164 HD
HETATM   34  O4  UNL     1      20.130  15.779  19.944  1.00  0.00    -0.247 OA
HETATM   35  N9  UNL     1      21.129  16.815  18.089  1.00  0.00    -0.315 N 
HETATM   36  C10 UNL     1      21.640  18.156  17.865  1.00  0.00     0.249 C 
ATOM     37  H9  UNL     1      21.009  16.085  17.387  1.00  0.00     0.166 HD
BRANCH  36  38
HETATM   38  O5  UNL     1      21.027  18.767  16.811  1.00  0.00    -0.354 OA
BRANCH  38  39
HETATM   39  C11 UNL     1      21.704  18.895  15.635  1.00  0.00     0.185 C 
HETATM   40  C12 UNL     1      22.926  19.773  15.783  1.00  0.00     0.217 C 
HETATM   41  C13 UNL     1      22.721  21.161  15.275  1.00  0.00     0.071 C 
HETATM   42  C14 UNL     1      22.349  21.165  13.808  1.00  0.00     0.216 C 
HETATM   43  C15 UNL     1      21.325  20.142  13.461  1.00  0.00     0.179 C 
HETATM   44  C16 UNL     1      20.717  19.427  14.620  1.00  0.00     0.180 C 
BRANCH  40  45
HETATM   45  N10 UNL     1      24.088  19.210  15.128  1.00  0.00    -0.072 N 
ATOM     46 3H10 UNL     1      23.954  18.219  14.929  1.00  0.00     0.274 HD
ATOM     47 2H10 UNL     1      24.177  19.557  14.174  1.00  0.00     0.274 HD
ATOM     48 1H10 UNL     1      24.944  19.367  15.659  1.00  0.00     0.274 HD
ENDBRANCH  40  45
BRANCH  42  49
HETATM   49  N11 UNL     1      21.907  22.511  13.495  1.00  0.00    -0.072 N 
ATOM     50 3H11 UNL     1      21.829  22.687  12.493  1.00  0.00     0.274 HD
ATOM     51 2H11 UNL     1      20.929  22.679  13.731  1.00  0.00     0.274 HD
ATOM     52 1H11 UNL     1      22.550  23.148  13.966  1.00  0.00     0.274 HD
ENDBRANCH  42  49
BRANCH  43  53
HETATM   53  O6  UNL     1      21.785  19.243  12.470  1.00  0.00    -0.391 OA
ATOM     54  H6  UNL     1      22.447  19.635  11.913  1.00  0.00     0.210 HD
ENDBRANCH  43  53
BRANCH  44  55
HETATM   55  O7  UNL     1      19.927  18.385  14.097  1.00  0.00    -0.390 OA
ATOM     56  H7  UNL     1      19.048  18.690  13.908  1.00  0.00     0.210 HD
ENDBRANCH  44  55
ENDBRANCH  38  39
ENDBRANCH  36  38
ENDBRANCH  29  30
ENDBRANCH   1  29
TORSDOF 14
ENDMDL
MODEL 2
REMARK VINA RESULT: -9.658656554      0.925      1.954
REMARK  14 active torsions:
REMARK  status: ('A' for Active; 'I' for Inactive)
REMARK    1  A    between atoms: N1_1  and  C1_4 
REMARK    2  A    between atoms: C2_7  and  N3_8 
REMARK       I    between atoms: N6_16  and  C4_17 
REMARK    3  A    between atoms: C4_17  and  C5_19 
REMARK    4  A    between atoms: C5_19  and  C6_21 
REMARK    5  A    between atoms: C6_21  and  O3_22 
REMARK    6  A    between atoms: C6_21  and  N7_24 
REMARK    7  A    between atoms: N7_24  and  C7_26 
REMARK    8  A    between atoms: C7_26  and  C8_27 
REMARK    9  A    between atoms: C10_34  and  O5_35 
REMARK   10  A    between atoms: O5_35  and  C11_36 
REMARK   11  A    between atoms: C12_37  and  N10_38 
REMARK   12  A    between atoms: C14_43  and  N11_44 
REMARK   13  A    between atoms: C15_48  and  O6_49 
REMARK   14  A    between atoms: C16_51  and  O7_52 
ROOT
HETATM    1  N7  UNL     1      23.923  18.538  20.675  1.00  0.00    -0.388 N 
ATOM      2  H7  UNL     1      23.384  18.637  21.535  1.00  0.00     0.156 HD
ENDROOT
BRANCH   1   3
HETATM    3  C6  UNL     1      25.213  17.886  20.636  1.00  0.00     0.295 C 
BRANCH   3   4
HETATM    4  C5  UNL     1      25.422  16.898  21.685  1.00  0.00     0.266 C 
HETATM    5  O2  UNL     1      26.452  16.911  22.383  1.00  0.00    -0.282 OA
BRANCH   4   6
HETATM    6  C4  UNL     1      24.413  15.877  21.929  1.00  0.00     0.320 C 
HETATM    7  N6  UNL     1      24.094  15.480  23.257  1.00  0.00    -0.183 N 
HETATM    8  N5  UNL     1      24.652  15.965  24.381  1.00  0.00    -0.231 N 
HETATM    9  C17 UNL     1      23.182  14.560  23.605  1.00  0.00     0.179 A 
HETATM   10  N4  UNL     1      24.121  15.380  25.436  1.00  0.00    -0.279 N 
ATOM     11  H5  UNL     1      25.378  16.680  24.413  1.00  0.00     0.209 HD
HETATM   12  C3  UNL     1      23.193  14.488  24.994  1.00  0.00     0.140 A 
ATOM     13  H4  UNL     1      24.362  15.563  26.409  1.00  0.00     0.189 HD
HETATM   14  C2  UNL     1      22.360  13.629  25.670  1.00  0.00     0.147 A 
HETATM   15  N2  UNL     1      21.531  12.852  24.977  1.00  0.00    -0.175 N 
HETATM   16  C1  UNL     1      21.500  12.899  23.637  1.00  0.00     0.679 A 
ATOM     17  H2  UNL     1      20.910  12.212  25.473  1.00  0.00     0.186 HD
HETATM   18  N12 UNL     1      22.325  13.750  22.971  1.00  0.00    -0.172 N 
ATOM     19  H12 UNL     1      22.289  13.773  21.952  1.00  0.00     0.186 HD
HETATM   20  O1  UNL     1      23.809  15.334  20.945  1.00  0.00    -0.262 OA
BRANCH  14  21
HETATM   21  N3  UNL     1      22.412  13.603  26.977  1.00  0.00    -0.383 N 
ATOM     22  H32 UNL     1      22.374  12.700  27.450  1.00  0.00     0.157 HD
ATOM     23  H31 UNL     1      22.489  14.454  27.534  1.00  0.00     0.157 HD
ENDBRANCH  14  21
BRANCH  16  24
HETATM   24  N1  UNL     1      20.701  12.153  22.949  1.00  0.00    -0.234 N 
ATOM     25  H12 UNL     1      19.774  11.960  23.325  1.00  0.00     0.174 HD
ATOM     26  H11 UNL     1      20.976  11.760  22.049  1.00  0.00     0.174 HD
ENDBRANCH  16  24
ENDBRANCH   4   6
ENDBRANCH   3   4
BRANCH   3  27
HETATM   27  O3  UNL     1      25.324  17.280  19.361  1.00  0.00    -0.369 OA
ATOM     28  H3  UNL     1      24.744  16.530  19.299  1.00  0.00     0.212 HD
ENDBRANCH   3  27
ENDBRANCH   1   3
BRANCH   1  29
HETATM   29  C7  UNL     1      23.461  19.034  19.418  1.00  0.00     0.146 C 
BRANCH  29  30
HETATM   30  C8  UNL     1      22.013  18.570  19.270  1.00  0.00     0.152 C 
HETATM   31  N8  UNL     1      21.785  17.563  20.285  1.00  0.00    -0.333 N 
HETATM   32  C9  UNL     1      20.882  16.619  19.736  1.00  0.00     0.318 C 
ATOM     33  H8  UNL     1      22.196  17.538  21.218  1.00  0.00     0.164 HD
HETATM   34  O4  UNL     1      20.086  15.840  20.342  1.00  0.00    -0.247 OA
HETATM   35  N9  UNL     1      20.989  16.660  18.337  1.00  0.00    -0.315 N 
HETATM   36  C10 UNL     1      21.717  17.873  18.006  1.00  0.00     0.249 C 
ATOM     37  H9  UNL     1      20.626  15.971  17.679  1.00  0.00     0.166 HD
BRANCH  36  38
HETATM   38  O5  UNL     1      21.091  18.597  17.035  1.00  0.00    -0.354 OA
BRANCH  38  39
HETATM   39  C11 UNL     1      21.725  18.798  15.845  1.00  0.00     0.185 C 
HETATM   40  C12 UNL     1      22.913  19.722  15.991  1.00  0.00     0.217 C 
HETATM   41  C13 UNL     1      22.635  21.118  15.544  1.00  0.00     0.071 C 
HETATM   42  C14 UNL     1      22.218  21.161  14.090  1.00  0.00     0.216 C 
HETATM   43  C15 UNL     1      21.227  20.107  13.734  1.00  0.00     0.179 C 
HETATM   44  C16 UNL     1      20.686  19.325  14.881  1.00  0.00     0.180 C 
BRANCH  40  45
HETATM   45  N10 UNL     1      24.077  19.235  15.283  1.00  0.00    -0.072 N 
ATOM     46 3H10 UNL     1      24.249  18.252  15.490  1.00  0.00     0.274 HD
ATOM     47 2H10 UNL     1      23.894  19.160  14.282  1.00  0.00     0.274 HD
ATOM     48 1H10 UNL     1      24.906  19.800  15.465  1.00  0.00     0.274 HD
ENDBRANCH  40  45
BRANCH  42  49
HETATM   49  N11 UNL     1      21.710  22.497  13.842  1.00  0.00    -0.072 N 
ATOM     50 3H11 UNL     1      21.353  22.955  14.681  1.00  0.00     0.274 HD
ATOM     51 2H11 UNL     1      22.443  23.173  13.629  1.00  0.00     0.274 HD
ATOM     52 1H11 UNL     1      21.013  22.413  13.102  1.00  0.00     0.274 HD
ENDBRANCH  42  49
BRANCH  43  53
HETATM   53  O6  UNL     1      21.694  19.267  12.695  1.00  0.00    -0.391 OA
ATOM     54  H6  UNL     1      21.118  19.281  11.940  1.00  0.00     0.210 HD
ENDBRANCH  43  53
BRANCH  44  55
HETATM   55  O7  UNL     1      19.925  18.269  14.341  1.00  0.00    -0.390 OA
ATOM     56  H7  UNL     1      20.230  18.045  13.470  1.00  0.00     0.210 HD
ENDBRANCH  44  55
ENDBRANCH  38  39
ENDBRANCH  36  38
ENDBRANCH  29  30
ENDBRANCH   1  29
TORSDOF 14
ENDMDL
MODEL 3
REMARK VINA RESULT: -9.574219504      2.120      3.743
REMARK  14 active torsions:
REMARK  status: ('A' for Active; 'I' for Inactive)
REMARK    1  A    between atoms: N1_1  and  C1_4 
REMARK    2  A    between atoms: C2_7  and  N3_8 
REMARK       I    between atoms: N6_16  and  C4_17 
REMARK    3  A    between atoms: C4_17  and  C5_19 
REMARK    4  A    between atoms: C5_19  and  C6_21 
REMARK    5  A    between atoms: C6_21  and  O3_22 
REMARK    6  A    between atoms: C6_21  and  N7_24 
REMARK    7  A    between atoms: N7_24  and  C7_26 
REMARK    8  A    between atoms: C7_26  and  C8_27 
REMARK    9  A    between atoms: C10_34  and  O5_35 
REMARK   10  A    between atoms: O5_35  and  C11_36 
REMARK   11  A    between atoms: C12_37  and  N10_38 
REMARK   12  A    between atoms: C14_43  and  N11_44 
REMARK   13  A    between atoms: C15_48  and  O6_49 
REMARK   14  A    between atoms: C16_51  and  O7_52 
ROOT
HETATM    1  N7  UNL     1      22.245  16.143  20.519  1.00  0.00    -0.388 N 
ATOM      2  H7  UNL     1      22.353  16.481  21.476  1.00  0.00     0.156 HD
ENDROOT
BRANCH   1   3
HETATM    3  C6  UNL     1      22.075  14.743  20.203  1.00  0.00     0.295 C 
BRANCH   3   4
HETATM    4  C5  UNL     1      22.526  13.830  21.243  1.00  0.00     0.266 C 
HETATM    5  O2  UNL     1      22.203  12.629  21.228  1.00  0.00    -0.282 OA
BRANCH   4   6
HETATM    6  C4  UNL     1      23.372  14.322  22.321  1.00  0.00     0.320 C 
HETATM    7  N6  UNL     1      22.924  14.274  23.670  1.00  0.00    -0.183 N 
HETATM    8  N5  UNL     1      21.738  13.800  24.090  1.00  0.00    -0.231 N 
HETATM    9  C17 UNL     1      23.614  14.689  24.743  1.00  0.00     0.179 A 
HETATM   10  N4  UNL     1      21.652  13.901  25.401  1.00  0.00    -0.279 N 
ATOM     11  H5  UNL     1      21.012  13.418  23.485  1.00  0.00     0.209 HD
HETATM   12  C3  UNL     1      22.809  14.456  25.853  1.00  0.00     0.140 A 
ATOM     13  H4  UNL     1      20.859  13.614  25.976  1.00  0.00     0.189 HD
HETATM   14  C2  UNL     1      23.233  14.775  27.120  1.00  0.00     0.147 A 
HETATM   15  N2  UNL     1      24.438  15.317  27.283  1.00  0.00    -0.175 N 
HETATM   16  C1  UNL     1      25.234  15.554  26.231  1.00  0.00     0.679 A 
ATOM     17  H2  UNL     1      24.759  15.556  28.221  1.00  0.00     0.186 HD
HETATM   18  N12 UNL     1      24.812  15.238  24.977  1.00  0.00    -0.172 N 
ATOM     19  H12 UNL     1      25.430  15.425  24.188  1.00  0.00     0.186 HD
HETATM   20  O1  UNL     1      24.524  14.802  22.055  1.00  0.00    -0.262 OA
BRANCH  14  21
HETATM   21  N3  UNL     1      22.436  14.533  28.129  1.00  0.00    -0.383 N 
ATOM     22  H32 UNL     1      22.118  15.317  28.699  1.00  0.00     0.157 HD
ATOM     23  H31 UNL     1      22.123  13.590  28.361  1.00  0.00     0.157 HD
ENDBRANCH  14  21
BRANCH  16  24
HETATM   24  N1  UNL     1      26.406  16.079  26.369  1.00  0.00    -0.234 N 
ATOM     25  H12 UNL     1      26.650  16.490  27.270  1.00  0.00     0.174 HD
ATOM     26  H11 UNL     1      27.083  16.091  25.606  1.00  0.00     0.174 HD
ENDBRANCH  16  24
ENDBRANCH   4   6
ENDBRANCH   3   4
BRANCH   3  27
HETATM   27  O3  UNL     1      20.696  14.550  19.942  1.00  0.00    -0.369 OA
ATOM     28  H3  UNL     1      20.289  15.370  19.689  1.00  0.00     0.212 HD
ENDBRANCH   3  27
ENDBRANCH   1   3
BRANCH   1  29
HETATM   29  C7  UNL     1      22.251  17.019  19.390  1.00  0.00     0.146 C 
BRANCH  29  30
HETATM   30  C8  UNL     1      23.716  17.291  19.055  1.00  0.00     0.152 C 
HETATM   31  N8  UNL     1      24.442  17.307  20.307  1.00  0.00    -0.333 N 
HETATM   32  C9  UNL     1      25.480  18.261  20.171  1.00  0.00     0.318 C 
ATOM     33  H8  UNL     1      24.244  16.738  21.130  1.00  0.00     0.164 HD
HETATM   34  O4  UNL     1      26.583  18.324  20.793  1.00  0.00    -0.247 OA
HETATM   35  N9  UNL     1      25.104  19.193  19.191  1.00  0.00    -0.315 N 
HETATM   36  C10 UNL     1      23.977  18.620  18.476  1.00  0.00     0.249 C 
ATOM     37  H9  UNL     1      25.539  20.099  19.014  1.00  0.00     0.166 HD
BRANCH  36  38
HETATM   38  O5  UNL     1      24.143  18.683  17.124  1.00  0.00    -0.354 OA
BRANCH  38  39
HETATM   39  C11 UNL     1      23.441  19.610  16.412  1.00  0.00     0.185 C 
HETATM   40  C12 UNL     1      22.058  19.825  16.981  1.00  0.00     0.217 C 
HETATM   41  C13 UNL     1      20.988  19.118  16.219  1.00  0.00     0.071 C 
HETATM   42  C14 UNL     1      20.947  19.568  14.774  1.00  0.00     0.216 C 
HETATM   43  C15 UNL     1      22.297  19.662  14.152  1.00  0.00     0.179 C 
HETATM   44  C16 UNL     1      23.420  19.133  14.977  1.00  0.00     0.180 C 
BRANCH  40  45
HETATM   45  N10 UNL     1      21.711  21.228  17.065  1.00  0.00    -0.072 N 
ATOM     46 3H10 UNL     1      21.726  21.666  16.145  1.00  0.00     0.274 HD
ATOM     47 2H10 UNL     1      20.724  21.351  17.288  1.00  0.00     0.274 HD
ATOM     48 1H10 UNL     1      22.303  21.734  17.723  1.00  0.00     0.274 HD
ENDBRANCH  40  45
BRANCH  42  49
HETATM   49  N11 UNL     1      20.084  18.637  14.072  1.00  0.00    -0.072 N 
ATOM     50 3H11 UNL     1      20.533  17.742  13.875  1.00  0.00     0.274 HD
ATOM     51 2H11 UNL     1      19.327  18.275  14.652  1.00  0.00     0.274 HD
ATOM     52 1H11 UNL     1      19.756  19.116  13.234  1.00  0.00     0.274 HD
ENDBRANCH  42  49
BRANCH  43  53
HETATM   53  O6  UNL     1      22.568  20.962  13.664  1.00  0.00    -0.391 OA
ATOM     54  H6  UNL     1      22.799  21.564  14.362  1.00  0.00     0.210 HD
ENDBRANCH  43  53
BRANCH  44  55
HETATM   55  O7  UNL     1      24.616  19.475  14.319  1.00  0.00    -0.390 OA
ATOM     56  H7  UNL     1      24.438  19.821  13.452  1.00  0.00     0.210 HD
ENDBRANCH  44  55
ENDBRANCH  38  39
ENDBRANCH  36  38
ENDBRANCH  29  30
ENDBRANCH   1  29
TORSDOF 14
ENDMDL
MODEL 4
REMARK VINA RESULT: -9.478979272      1.344      2.256
REMARK  14 active torsions:
REMARK  status: ('A' for Active; 'I' for Inactive)
REMARK    1  A    between atoms: N1_1  and  C1_4 
REMARK    2  A    between atoms: C2_7  and  N3_8 
REMARK       I    between atoms: N6_16  and  C4_17 
REMARK    3  A    between atoms: C4_17  and  C5_19 
REMARK    4  A    between atoms: C5_19  and  C6_21 
REMARK    5  A    between atoms: C6_21  and  O3_22 
REMARK    6  A    between atoms: C6_21  and  N7_24 
REMARK    7  A    between atoms: N7_24  and  C7_26 
REMARK    8  A    between atoms: C7_26  and  C8_27 
REMARK    9  A    between atoms: C10_34  and  O5_35 
REMARK   10  A    between atoms: O5_35  and  C11_36 
REMARK   11  A    between atoms: C12_37  and  N10_38 
REMARK   12  A    between atoms: C14_43  and  N11_44 
REMARK   13  A    between atoms: C15_48  and  O6_49 
REMARK   14  A    between atoms: C16_51  and  O7_52 
ROOT
HETATM    1  N7  UNL     1      23.749  18.792  20.304  1.00  0.00    -0.388 N 
ATOM      2  H7  UNL     1      23.320  18.714  21.226  1.00  0.00     0.156 HD
ENDROOT
BRANCH   1   3
HETATM    3  C6  UNL     1      25.015  18.175  19.981  1.00  0.00     0.295 C 
BRANCH   3   4
HETATM    4  C5  UNL     1      25.591  17.379  21.056  1.00  0.00     0.266 C 
HETATM    5  O2  UNL     1      26.794  17.480  21.355  1.00  0.00    -0.282 OA
BRANCH   4   6
HETATM    6  C4  UNL     1      24.751  16.451  21.799  1.00  0.00     0.320 C 
HETATM    7  N6  UNL     1      25.011  16.181  23.170  1.00  0.00    -0.183 N 
HETATM    8  N5  UNL     1      26.003  16.715  23.905  1.00  0.00    -0.231 N 
HETATM    9  C17 UNL     1      24.305  15.355  23.956  1.00  0.00     0.179 A 
HETATM   10  N4  UNL     1      25.951  16.251  25.137  1.00  0.00    -0.279 N 
ATOM     11  H5  UNL     1      26.695  17.380  23.559  1.00  0.00     0.209 HD
HETATM   12  C3  UNL     1      24.898  15.392  25.214  1.00  0.00     0.140 A 
ATOM     13  H4  UNL     1      26.585  16.493  25.898  1.00  0.00     0.189 HD
HETATM   14  C2  UNL     1      24.405  14.646  26.257  1.00  0.00     0.147 A 
HETATM   15  N2  UNL     1      23.339  13.874  26.055  1.00  0.00    -0.175 N 
HETATM   16  C1  UNL     1      22.748  13.818  24.853  1.00  0.00     0.679 A 
ATOM     17  H2  UNL     1      22.968  13.318  26.825  1.00  0.00     0.186 HD
HETATM   18  N12 UNL     1      23.238  14.557  23.822  1.00  0.00    -0.172 N 
ATOM     19  H12 UNL     1      22.777  14.502  22.914  1.00  0.00     0.186 HD
HETATM   20  O1  UNL     1      23.774  15.874  21.215  1.00  0.00    -0.262 OA
BRANCH  14  21
HETATM   21  N3  UNL     1      25.002  14.719  27.419  1.00  0.00    -0.383 N 
ATOM     22  H32 UNL     1      25.618  13.957  27.701  1.00  0.00     0.157 HD
ATOM     23  H31 UNL     1      24.871  15.512  28.048  1.00  0.00     0.157 HD
ENDBRANCH  14  21
BRANCH  16  24
HETATM   24  N1  UNL     1      21.713  13.076  24.638  1.00  0.00    -0.234 N 
ATOM     25  H12 UNL     1      20.831  13.335  25.078  1.00  0.00     0.174 HD
ATOM     26  H11 UNL     1      21.761  12.247  24.046  1.00  0.00     0.174 HD
ENDBRANCH  16  24
ENDBRANCH   4   6
ENDBRANCH   3   4
BRANCH   3  27
HETATM   27  O3  UNL     1      24.795  17.369  18.836  1.00  0.00    -0.369 OA
ATOM     28  H3  UNL     1      24.988  17.859  18.045  1.00  0.00     0.212 HD
ENDBRANCH   3  27
ENDBRANCH   1   3
BRANCH   1  29
HETATM   29  C7  UNL     1      23.143  19.519  19.233  1.00  0.00     0.146 C 
BRANCH  29  30
HETATM   30  C8  UNL     1      21.775  18.883  18.992  1.00  0.00     0.152 C 
HETATM   31  N8  UNL     1      21.633  17.805  19.948  1.00  0.00    -0.333 N 
HETATM   32  C9  UNL     1      20.886  16.784  19.313  1.00  0.00     0.318 C 
ATOM     33  H8  UNL     1      22.002  17.786  20.899  1.00  0.00     0.164 HD
HETATM   34  O4  UNL     1      20.170  15.881  19.843  1.00  0.00    -0.247 OA
HETATM   35  N9  UNL     1      21.050  16.908  17.924  1.00  0.00    -0.315 N 
HETATM   36  C10 UNL     1      21.629  18.219  17.685  1.00  0.00     0.249 C 
ATOM     37  H9  UNL     1      20.809  16.213  17.218  1.00  0.00     0.166 HD
BRANCH  36  38
HETATM   38  O5  UNL     1      20.959  18.905  16.715  1.00  0.00    -0.354 OA
BRANCH  38  39
HETATM   39  C11 UNL     1      21.453  18.911  15.445  1.00  0.00     0.185 C 
HETATM   40  C12 UNL     1      22.925  19.251  15.417  1.00  0.00     0.217 C 
HETATM   41  C13 UNL     1      23.198  20.665  15.028  1.00  0.00     0.071 C 
HETATM   42  C14 UNL     1      22.646  20.978  13.653  1.00  0.00     0.216 C 
HETATM   43  C15 UNL     1      21.268  20.453  13.444  1.00  0.00     0.179 C 
HETATM   44  C16 UNL     1      20.609  19.884  14.653  1.00  0.00     0.180 C 
BRANCH  40  45
HETATM   45  N10 UNL     1      23.673  18.379  14.536  1.00  0.00    -0.072 N 
ATOM     46 3H10 UNL     1      24.182  17.671  15.064  1.00  0.00     0.274 HD
ATOM     47 2H10 UNL     1      23.051  17.769  14.006  1.00  0.00     0.274 HD
ATOM     48 1H10 UNL     1      24.297  18.896  13.917  1.00  0.00     0.274 HD
ENDBRANCH  40  45
BRANCH  42  49
HETATM   49  N11 UNL     1      22.714  22.419  13.496  1.00  0.00    -0.072 N 
ATOM     50 3H11 UNL     1      21.807  22.846  13.307  1.00  0.00     0.274 HD
ATOM     51 2H11 UNL     1      22.908  22.910  14.368  1.00  0.00     0.274 HD
ATOM     52 1H11 UNL     1      23.405  22.601  12.768  1.00  0.00     0.274 HD
ENDBRANCH  42  49
BRANCH  43  53
HETATM   53  O6  UNL     1      21.197  19.571  12.340  1.00  0.00    -0.391 OA
ATOM     54  H6  UNL     1      21.897  18.929  12.351  1.00  0.00     0.210 HD
ENDBRANCH  43  53
BRANCH  44  55
HETATM   55  O7  UNL     1      19.412  19.277  14.227  1.00  0.00    -0.390 OA
ATOM     56  H7  UNL     1      18.895  19.879  13.706  1.00  0.00     0.210 HD
ENDBRANCH  44  55
ENDBRANCH  38  39
ENDBRANCH  36  38
ENDBRANCH  29  30
ENDBRANCH   1  29
TORSDOF 14
ENDMDL
MODEL 5
REMARK VINA RESULT: -9.417798039      2.607      8.407
REMARK  14 active torsions:
REMARK  status: ('A' for Active; 'I' for Inactive)
REMARK    1  A    between atoms: N1_1  and  C1_4 
REMARK    2  A    between atoms: C2_7  and  N3_8 
REMARK       I    between atoms: N6_16  and  C4_17 
REMARK    3  A    between atoms: C4_17  and  C5_19 
REMARK    4  A    between atoms: C5_19  and  C6_21 
REMARK    5  A    between atoms: C6_21  and  O3_22 
REMARK    6  A    between atoms: C6_21  and  N7_24 
REMARK    7  A    between atoms: N7_24  and  C7_26 
REMARK    8  A    between atoms: C7_26  and  C8_27 
REMARK    9  A    between atoms: C10_34  and  O5_35 
REMARK   10  A    between atoms: O5_35  and  C11_36 
REMARK   11  A    between atoms: C12_37  and  N10_38 
REMARK   12  A    between atoms: C14_43  and  N11_44 
REMARK   13  A    between atoms: C15_48  and  O6_49 
REMARK   14  A    between atoms: C16_51  and  O7_52 
ROOT
HETATM    1  N7  UNL     1      22.042  16.666  20.658  1.00  0.00    -0.388 N 
ATOM      2  H7  UNL     1      22.046  17.000  21.621  1.00  0.00     0.156 HD
ENDROOT
BRANCH   1   3
HETATM    3  C6  UNL     1      21.087  17.131  19.678  1.00  0.00     0.295 C 
BRANCH   3   4
HETATM    4  C5  UNL     1      21.492  18.332  18.962  1.00  0.00     0.266 C 
HETATM    5  O2  UNL     1      22.167  19.215  19.520  1.00  0.00    -0.282 OA
BRANCH   4   6
HETATM    6  C4  UNL     1      21.106  18.509  17.569  1.00  0.00     0.320 C 
HETATM    7  N6  UNL     1      22.080  18.835  16.586  1.00  0.00    -0.183 N 
HETATM    8  N5  UNL     1      23.395  19.011  16.807  1.00  0.00    -0.231 N 
HETATM    9  C17 UNL     1      21.847  19.015  15.278  1.00  0.00     0.179 A 
HETATM   10  N4  UNL     1      24.007  19.299  15.676  1.00  0.00    -0.279 N 
ATOM     11  H5  UNL     1      23.852  18.934  17.715  1.00  0.00     0.209 HD
HETATM   12  C3  UNL     1      23.071  19.312  14.688  1.00  0.00     0.140 A 
ATOM     13  H4  UNL     1      25.004  19.479  15.561  1.00  0.00     0.189 HD
HETATM   14  C2  UNL     1      23.173  19.552  13.339  1.00  0.00     0.147 A 
HETATM   15  N2  UNL     1      22.076  19.498  12.587  1.00  0.00    -0.175 N 
HETATM   16  C1  UNL     1      20.883  19.215  13.128  1.00  0.00     0.679 A 
ATOM     17  H2  UNL     1      22.145  19.675  11.584  1.00  0.00     0.186 HD
HETATM   18  N12 UNL     1      20.784  18.978  14.464  1.00  0.00    -0.172 N 
ATOM     19  H12 UNL     1      19.869  18.764  14.860  1.00  0.00     0.186 HD
HETATM   20  O1  UNL     1      19.884  18.371  17.227  1.00  0.00    -0.262 OA
BRANCH  14  21
HETATM   21  N3  UNL     1      24.349  19.827  12.837  1.00  0.00    -0.383 N 
ATOM     22  H32 UNL     1      24.726  20.767  12.959  1.00  0.00     0.157 HD
ATOM     23  H31 UNL     1      24.899  19.133  12.330  1.00  0.00     0.157 HD
ENDBRANCH  14  21
BRANCH  16  24
HETATM   24  N1  UNL     1      19.808  19.158  12.414  1.00  0.00    -0.234 N 
ATOM     25  H12 UNL     1      19.562  19.966  11.844  1.00  0.00     0.174 HD
ATOM     26  H11 UNL     1      19.210  18.331  12.409  1.00  0.00     0.174 HD
ENDBRANCH  16  24
ENDBRANCH   4   6
ENDBRANCH   3   4
BRANCH   3  27
HETATM   27  O3  UNL     1      20.882  16.063  18.770  1.00  0.00    -0.369 OA
ATOM     28  H3  UNL     1      21.475  16.138  18.032  1.00  0.00     0.212 HD
ENDBRANCH   3  27
ENDBRANCH   1   3
BRANCH   1  29
HETATM   29  C7  UNL     1      22.980  15.703  20.174  1.00  0.00     0.146 C 
BRANCH  29  30
HETATM   30  C8  UNL     1      24.323  16.039  20.820  1.00  0.00     0.152 C 
HETATM   31  N8  UNL     1      24.578  15.024  21.821  1.00  0.00    -0.333 N 
HETATM   32  C9  UNL     1      25.268  15.655  22.884  1.00  0.00     0.318 C 
ATOM     33  H8  UNL     1      24.312  14.041  21.769  1.00  0.00     0.164 HD
HETATM   34  O4  UNL     1      26.047  15.137  23.741  1.00  0.00    -0.247 OA
HETATM   35  N9  UNL     1      24.958  17.025  22.867  1.00  0.00    -0.315 N 
HETATM   36  C10 UNL     1      24.341  17.300  21.581  1.00  0.00     0.249 C 
ATOM     37  H9  UNL     1      25.133  17.697  23.613  1.00  0.00     0.166 HD
BRANCH  36  38
HETATM   38  O5  UNL     1      24.897  18.383  20.968  1.00  0.00    -0.354 OA
BRANCH  38  39
HETATM   39  C11 UNL     1      25.431  19.376  21.733  1.00  0.00     0.185 C 
HETATM   40  C12 UNL     1      24.726  20.695  21.513  1.00  0.00     0.217 C 
HETATM   41  C13 UNL     1      25.475  21.624  20.618  1.00  0.00     0.071 C 
HETATM   42  C14 UNL     1      26.847  21.943  21.173  1.00  0.00     0.216 C 
HETATM   43  C15 UNL     1      27.564  20.743  21.684  1.00  0.00     0.179 C 
HETATM   44  C16 UNL     1      26.906  19.436  21.403  1.00  0.00     0.180 C 
BRANCH  40  45
HETATM   45  N10 UNL     1      24.446  21.382  22.757  1.00  0.00    -0.072 N 
ATOM     46 3H10 UNL     1      23.753  20.876  23.308  1.00  0.00     0.274 HD
ATOM     47 2H10 UNL     1      25.238  21.322  23.397  1.00  0.00     0.274 HD
ATOM     48 1H10 UNL     1      24.164  22.350  22.609  1.00  0.00     0.274 HD
ENDBRANCH  40  45
BRANCH  42  49
HETATM   49  N11 UNL     1      27.580  22.609  20.112  1.00  0.00    -0.072 N 
ATOM     50 3H11 UNL     1      28.417  23.090  20.442  1.00  0.00     0.274 HD
ATOM     51 2H11 UNL     1      28.046  21.962  19.477  1.00  0.00     0.274 HD
ATOM     52 1H11 UNL     1      26.918  23.227  19.643  1.00  0.00     0.274 HD
ENDBRANCH  42  49
BRANCH  43  53
HETATM   53  O6  UNL     1      27.915  20.874  23.049  1.00  0.00    -0.391 OA
ATOM     54  H6  UNL     1      27.734  20.083  23.541  1.00  0.00     0.210 HD
ENDBRANCH  43  53
BRANCH  44  55
HETATM   55  O7  UNL     1      27.617  18.451  22.116  1.00  0.00    -0.390 OA
ATOM     56  H7  UNL     1      27.021  17.854  22.553  1.00  0.00     0.210 HD
ENDBRANCH  44  55
ENDBRANCH  38  39
ENDBRANCH  36  38
ENDBRANCH  29  30
ENDBRANCH   1  29
TORSDOF 14
ENDMDL
