MODEL 1
REMARK VINA RESULT: -7.341465000      0.000      0.000
REMARK  2 active torsions:
REMARK  status: ('A' for Active; 'I' for Inactive)
REMARK    1  A    between atoms: C3_5  and  C4_6 
REMARK    2  A    between atoms: C6_18  and  N6_19 
ROOT
HETATM    1  C1  UNL     1      16.971  23.450   9.915  1.00  0.00     0.089 C 
HETATM    2  C2  UNL     1      16.699  22.117  10.544  1.00  0.00     0.095 A 
HETATM    3  N1  UNL     1      17.689  21.354  11.035  1.00  0.00    -0.330 N 
ATOM      4  H1  UNL     1      18.646  21.702  10.974  1.00  0.00     0.168 HD
HETATM    5  C3  UNL     1      17.483  20.166  11.599  1.00  0.00     0.155 A 
HETATM    6  N5  UNL     1      16.207  19.749  11.658  1.00  0.00    -0.174 N 
ATOM      7  H5  UNL     1      16.011  18.843  12.082  1.00  0.00     0.186 HD
HETATM    8  C6  UNL     1      15.182  20.465  11.186  1.00  0.00     0.683 A 
HETATM    9  N8  UNL     1      15.440  21.659  10.625  1.00  0.00    -0.181 N 
ATOM     10  H8  UNL     1      14.672  22.222  10.258  1.00  0.00     0.185 HD
ENDROOT
BRANCH   5  11
HETATM   11  C4  UNL     1      18.564  19.319  12.143  1.00  0.00     0.146 A 
HETATM   12  N2  UNL     1      19.570  18.835  11.382  1.00  0.00    -0.234 N 
HETATM   13  O1  UNL     1      20.354  18.139  12.117  1.00  0.00    -0.155 OA
ATOM     14  H2  UNL     1      19.686  18.999  10.382  1.00  0.00     0.197 HD
HETATM   15  N3  UNL     1      19.934  18.124  13.332  1.00  0.00    -0.224 N 
HETATM   16  C5  UNL     1      18.791  18.865  13.403  1.00  0.00     0.154 A 
ATOM     17  H3  UNL     1      20.380  17.640  14.111  1.00  0.00     0.198 HD
HETATM   18  N4  UNL     1      18.102  19.069  14.453  1.00  0.00    -0.382 N 
ATOM     19  H42 UNL     1      17.248  19.624  14.507  1.00  0.00     0.157 HD
ATOM     20  H41 UNL     1      18.273  18.729  15.399  1.00  0.00     0.157 HD
ENDBRANCH   5  11
BRANCH   8  21
HETATM   21  N6  UNL     1      13.867  19.938  11.295  1.00  0.00    -0.214 N 
HETATM   22  C7  UNL     1      13.408  19.037  10.275  1.00  0.00     0.168 C 
HETATM   23  C8  UNL     1      12.064  18.447  10.545  1.00  0.00     0.252 C 
HETATM   24  N7  UNL     1      11.714  18.457  11.955  1.00  0.00    -0.072 N 
HETATM   25  C9  UNL     1      11.651  19.875  12.340  1.00  0.00     0.252 C 
ATOM     26  H72 UNL     1      10.862  17.938  12.168  1.00  0.00     0.277 HD
ATOM     27  H71 UNL     1      12.343  17.904  12.537  1.00  0.00     0.277 HD
HETATM   28  C10 UNL     1      13.081  20.349  12.430  1.00  0.00     0.168 C 
ENDBRANCH   8  21
TORSDOF 2
ENDMDL
MODEL 2
REMARK VINA RESULT: -7.251516733      2.686      4.367
REMARK  2 active torsions:
REMARK  status: ('A' for Active; 'I' for Inactive)
REMARK    1  A    between atoms: C3_5  and  C4_6 
REMARK    2  A    between atoms: C6_18  and  N6_19 
ROOT
HETATM    1  C1  UNL     1      11.541  18.208  11.193  1.00  0.00     0.089 C 
HETATM    2  C2  UNL     1      12.734  19.096  11.382  1.00  0.00     0.095 A 
HETATM    3  N1  UNL     1      13.915  18.824  10.803  1.00  0.00    -0.330 N 
ATOM      4  H1  UNL     1      13.989  17.989  10.221  1.00  0.00     0.168 HD
HETATM    5  C3  UNL     1      14.993  19.590  10.950  1.00  0.00     0.155 A 
HETATM    6  N5  UNL     1      14.847  20.679  11.724  1.00  0.00    -0.174 N 
ATOM      7  H5  UNL     1      15.653  21.289  11.860  1.00  0.00     0.186 HD
HETATM    8  C6  UNL     1      13.698  21.000  12.325  1.00  0.00     0.683 A 
HETATM    9  N8  UNL     1      12.636  20.195  12.147  1.00  0.00    -0.181 N 
ATOM     10  H8  UNL     1      11.749  20.421  12.596  1.00  0.00     0.185 HD
ENDROOT
BRANCH   5  11
HETATM   11  C4  UNL     1      16.296  19.300  10.318  1.00  0.00     0.146 A 
HETATM   12  N2  UNL     1      16.488  19.339   8.981  1.00  0.00    -0.234 N 
HETATM   13  O1  UNL     1      17.708  19.047   8.724  1.00  0.00    -0.155 OA
ATOM     14  H2  UNL     1      15.775  19.565   8.289  1.00  0.00     0.197 HD
HETATM   15  N3  UNL     1      18.351  18.812   9.812  1.00  0.00    -0.224 N 
HETATM   16  C5  UNL     1      17.494  18.962  10.862  1.00  0.00     0.154 A 
ATOM     17  H3  UNL     1      19.337  18.557   9.878  1.00  0.00     0.198 HD
HETATM   18  N4  UNL     1      17.790  18.807  12.090  1.00  0.00    -0.382 N 
ATOM     19  H42 UNL     1      17.149  18.919  12.875  1.00  0.00     0.157 HD
ATOM     20  H41 UNL     1      18.689  18.552  12.499  1.00  0.00     0.157 HD
ENDBRANCH   5  11
BRANCH   8  21
HETATM   21  N6  UNL     1      13.644  22.174  13.123  1.00  0.00    -0.214 N 
HETATM   22  C7  UNL     1      14.794  23.033  13.148  1.00  0.00     0.168 C 
HETATM   23  C8  UNL     1      14.594  24.296  13.917  1.00  0.00     0.252 C 
HETATM   24  N7  UNL     1      13.194  24.669  14.040  1.00  0.00    -0.072 N 
HETATM   25  C9  UNL     1      12.560  23.586  14.808  1.00  0.00     0.252 C 
ATOM     26  H72 UNL     1      13.052  25.594  14.444  1.00  0.00     0.277 HD
ATOM     27  H71 UNL     1      12.741  24.854  13.146  1.00  0.00     0.277 HD
HETATM   28  C10 UNL     1      12.430  22.419  13.859  1.00  0.00     0.168 C 
ENDBRANCH   8  21
TORSDOF 2
ENDMDL
MODEL 3
REMARK VINA RESULT: -7.142022165      2.691      4.404
REMARK  2 active torsions:
REMARK  status: ('A' for Active; 'I' for Inactive)
REMARK    1  A    between atoms: C3_5  and  C4_6 
REMARK    2  A    between atoms: C6_18  and  N6_19 
ROOT
HETATM    1  C1  UNL     1      11.550  18.140  11.241  1.00  0.00     0.089 C 
HETATM    2  C2  UNL     1      12.732  19.050  11.400  1.00  0.00     0.095 A 
HETATM    3  N1  UNL     1      13.913  18.778  10.824  1.00  0.00    -0.330 N 
ATOM      4  H1  UNL     1      13.997  17.928  10.265  1.00  0.00     0.168 HD
HETATM    5  C3  UNL     1      14.981  19.563  10.945  1.00  0.00     0.155 A 
HETATM    6  N5  UNL     1      14.823  20.672  11.689  1.00  0.00    -0.174 N 
ATOM      7  H5  UNL     1      15.621  21.297  11.804  1.00  0.00     0.186 HD
HETATM    8  C6  UNL     1      13.671  20.993  12.285  1.00  0.00     0.683 A 
HETATM    9  N8  UNL     1      12.621  20.169  12.134  1.00  0.00    -0.181 N 
ATOM     10  H8  UNL     1      11.732  20.394  12.581  1.00  0.00     0.185 HD
ENDROOT
BRANCH   5  11
HETATM   11  C4  UNL     1      16.286  19.275  10.315  1.00  0.00     0.146 A 
HETATM   12  N2  UNL     1      16.466  19.254   8.977  1.00  0.00    -0.234 N 
HETATM   13  O1  UNL     1      17.691  18.979   8.722  1.00  0.00    -0.155 OA
ATOM     14  H2  UNL     1      15.742  19.429   8.281  1.00  0.00     0.197 HD
HETATM   15  N3  UNL     1      18.348  18.812   9.814  1.00  0.00    -0.224 N 
HETATM   16  C5  UNL     1      17.496  18.991  10.864  1.00  0.00     0.154 A 
ATOM     17  H3  UNL     1      19.340  18.584   9.884  1.00  0.00     0.198 HD
HETATM   18  N4  UNL     1      17.805  18.903  12.095  1.00  0.00    -0.382 N 
ATOM     19  H42 UNL     1      17.168  19.037  12.880  1.00  0.00     0.157 HD
ATOM     20  H41 UNL     1      18.713  18.690  12.507  1.00  0.00     0.157 HD
ENDBRANCH   5  11
BRANCH   8  21
HETATM   21  N6  UNL     1      13.604  22.188  13.051  1.00  0.00    -0.214 N 
HETATM   22  C7  UNL     1      12.439  22.412  13.860  1.00  0.00     0.168 C 
HETATM   23  C8  UNL     1      12.519  23.632  14.716  1.00  0.00     0.252 C 
HETATM   24  N7  UNL     1      13.885  24.053  14.977  1.00  0.00    -0.072 N 
HETATM   25  C9  UNL     1      14.451  24.404  13.665  1.00  0.00     0.252 C 
ATOM     26  H72 UNL     1      13.958  24.800  15.667  1.00  0.00     0.277 HD
ATOM     27  H71 UNL     1      14.435  23.362  15.487  1.00  0.00     0.277 HD
HETATM   28  C10 UNL     1      14.718  23.097  12.960  1.00  0.00     0.168 C 
ENDBRANCH   8  21
TORSDOF 2
ENDMDL
MODEL 4
REMARK VINA RESULT: -6.990467029      3.055      5.170
REMARK  2 active torsions:
REMARK  status: ('A' for Active; 'I' for Inactive)
REMARK    1  A    between atoms: C3_5  and  C4_6 
REMARK    2  A    between atoms: C6_18  and  N6_19 
ROOT
HETATM    1  C1  UNL     1      10.882  19.635  12.815  1.00  0.00     0.089 C 
HETATM    2  C2  UNL     1      12.232  20.213  12.510  1.00  0.00     0.095 A 
HETATM    3  N1  UNL     1      13.098  19.589  11.695  1.00  0.00    -0.330 N 
ATOM      4  H1  UNL     1      12.819  18.701  11.278  1.00  0.00     0.168 HD
HETATM    5  C3  UNL     1      14.303  20.074  11.403  1.00  0.00     0.155 A 
HETATM    6  N5  UNL     1      14.626  21.247  11.974  1.00  0.00    -0.174 N 
ATOM      7  H5  UNL     1      15.542  21.649  11.774  1.00  0.00     0.186 HD
HETATM    8  C6  UNL     1      13.805  21.912  12.792  1.00  0.00     0.683 A 
HETATM    9  N8  UNL     1      12.598  21.383  13.057  1.00  0.00    -0.181 N 
ATOM     10  H8  UNL     1      11.955  21.873  13.679  1.00  0.00     0.185 HD
ENDROOT
BRANCH   5  11
HETATM   11  C4  UNL     1      15.264  19.397  10.508  1.00  0.00     0.146 A 
HETATM   12  N2  UNL     1      15.021  19.187   9.197  1.00  0.00    -0.234 N 
HETATM   13  O1  UNL     1      16.024  18.583   8.676  1.00  0.00    -0.155 OA
ATOM     14  H2  UNL     1      14.174  19.463   8.701  1.00  0.00     0.197 HD
HETATM   15  N3  UNL     1      16.930  18.375   9.563  1.00  0.00    -0.224 N 
HETATM   16  C5  UNL     1      16.495  18.877  10.754  1.00  0.00     0.154 A 
ATOM     17  H3  UNL     1      17.825  17.911   9.404  1.00  0.00     0.198 HD
HETATM   18  N4  UNL     1      17.136  18.847  11.852  1.00  0.00    -0.382 N 
ATOM     19  H42 UNL     1      16.811  19.223  12.743  1.00  0.00     0.157 HD
ATOM     20  H41 UNL     1      18.060  18.457  12.037  1.00  0.00     0.157 HD
ENDBRANCH   5  11
BRANCH   8  21
HETATM   21  N6  UNL     1      14.238  23.147  13.346  1.00  0.00    -0.214 N 
HETATM   22  C7  UNL     1      13.342  23.852  14.220  1.00  0.00     0.168 C 
HETATM   23  C8  UNL     1      13.935  25.071  14.843  1.00  0.00     0.252 C 
HETATM   24  N7  UNL     1      15.388  25.036  14.888  1.00  0.00    -0.072 N 
HETATM   25  C9  UNL     1      15.828  25.007  13.485  1.00  0.00     0.252 C 
ATOM     26  H72 UNL     1      15.798  25.796  15.429  1.00  0.00     0.277 HD
ATOM     27  H71 UNL     1      15.761  24.270  15.449  1.00  0.00     0.277 HD
HETATM   28  C10 UNL     1      15.555  23.608  12.988  1.00  0.00     0.168 C 
ENDBRANCH   8  21
TORSDOF 2
ENDMDL
MODEL 5
REMARK VINA RESULT: -6.988177410      1.781      4.553
REMARK  2 active torsions:
REMARK  status: ('A' for Active; 'I' for Inactive)
REMARK    1  A    between atoms: C3_5  and  C4_6 
REMARK    2  A    between atoms: C6_18  and  N6_19 
ROOT
HETATM    1  C1  UNL     1      14.318  19.188  10.985  1.00  0.00     0.089 C 
HETATM    2  C2  UNL     1      15.700  19.765  11.059  1.00  0.00     0.095 A 
HETATM    3  N1  UNL     1      16.708  19.106  11.652  1.00  0.00    -0.330 N 
ATOM      4  H1  UNL     1      16.516  18.189  12.058  1.00  0.00     0.168 HD
HETATM    5  C3  UNL     1      17.945  19.588  11.736  1.00  0.00     0.155 A 
HETATM    6  N5  UNL     1      18.150  20.798  11.186  1.00  0.00    -0.174 N 
ATOM      7  H5  UNL     1      19.087  21.200  11.232  1.00  0.00     0.186 HD
HETATM    8  C6  UNL     1      17.186  21.499  10.583  1.00  0.00     0.683 A 
HETATM    9  N8  UNL     1      15.952  20.970  10.524  1.00  0.00    -0.181 N 
ATOM     10  H8  UNL     1      15.200  21.488  10.069  1.00  0.00     0.185 HD
ENDROOT
BRANCH   5  11
HETATM   11  C4  UNL     1      19.062  18.872  12.386  1.00  0.00     0.146 A 
HETATM   12  N2  UNL     1      20.158  18.459  11.714  1.00  0.00    -0.234 N 
HETATM   13  O1  UNL     1      20.954  17.872  12.528  1.00  0.00    -0.155 OA
ATOM     14  H2  UNL     1      20.325  18.593  10.717  1.00  0.00     0.197 HD
HETATM   15  N3  UNL     1      20.455  17.865  13.713  1.00  0.00    -0.224 N 
HETATM   16  C5  UNL     1      19.246  18.494  13.678  1.00  0.00     0.154 A 
ATOM     17  H3  UNL     1      20.892  17.458  14.541  1.00  0.00     0.198 HD
HETATM   18  N4  UNL     1      18.472  18.671  14.672  1.00  0.00    -0.382 N 
ATOM     19  H42 UNL     1      17.567  19.142  14.646  1.00  0.00     0.157 HD
ATOM     20  H41 UNL     1      18.609  18.387  15.641  1.00  0.00     0.157 HD
ENDBRANCH   5  11
BRANCH   8  21
HETATM   21  N6  UNL     1      17.502  22.770  10.032  1.00  0.00    -0.214 N 
HETATM   22  C7  UNL     1      18.874  23.049   9.710  1.00  0.00     0.168 C 
HETATM   23  C8  UNL     1      19.083  24.359   9.026  1.00  0.00     0.252 C 
HETATM   24  N7  UNL     1      17.889  24.847   8.357  1.00  0.00    -0.072 N 
HETATM   25  C9  UNL     1      16.898  25.065   9.422  1.00  0.00     0.252 C 
ATOM     26  H72 UNL     1      18.053  25.668   7.777  1.00  0.00     0.277 HD
ATOM     27  H71 UNL     1      17.558  24.234   7.612  1.00  0.00     0.277 HD
HETATM   28  C10 UNL     1      16.416  23.695   9.835  1.00  0.00     0.168 C 
ENDBRANCH   8  21
TORSDOF 2
ENDMDL
