MODEL 1
REMARK VINA RESULT: -7.488258218      0.000      0.000
REMARK  3 active torsions:
REMARK  status: ('A' for Active; 'I' for Inactive)
REMARK       I    between atoms: C1_2  and  N2_4 
REMARK    1  A    between atoms: N2_4  and  N3_6 
REMARK    2  A    between atoms: C2_8  and  C3_9 
REMARK    3  A    between atoms: N6_19  and  O3_20 
ROOT
HETATM    1  C3  UNL     1      13.860  20.481  11.827  1.00  0.00     0.081 A 
HETATM    2  C4  UNL     1      14.171  21.670  12.482  1.00  0.00     0.090 A 
HETATM    3  N4  UNL     1      15.309  22.369  12.374  1.00  0.00    -0.309 N 
ATOM      4  H4  UNL     1      16.125  22.149  11.802  1.00  0.00     0.176 HD
HETATM    5  S1  UNL     1      15.088  23.707  13.407  1.00  0.00     0.068 SA
HETATM    6  N5  UNL     1      13.550  23.372  13.971  1.00  0.00    -0.306 N 
ATOM      7  H5  UNL     1      12.995  23.916  14.631  1.00  0.00     0.176 HD
HETATM    8  C5  UNL     1      13.209  22.228  13.362  1.00  0.00     0.139 A 
HETATM    9  C6  UNL     1      11.988  21.579  13.547  1.00  0.00     0.304 A 
HETATM   10  O2  UNL     1      11.094  22.051  14.332  1.00  0.00    -0.263 OA
HETATM   11  N6  UNL     1      11.694  20.438  12.915  1.00  0.00    -0.146 N 
HETATM   12  C7  UNL     1      12.602  19.922  12.091  1.00  0.00     0.288 A 
HETATM   13  O4  UNL     1      12.305  18.826  11.493  1.00  0.00    -0.265 OA
ENDROOT
BRANCH   1  14
HETATM   14  C2  UNL     1      14.752  19.798  10.898  1.00  0.00     0.126 C 
HETATM   15  N3  UNL     1      15.701  19.029  11.182  1.00  0.00    -0.307 N 
ATOM     16  H3  UNL     1      15.879  18.854  12.171  1.00  0.00     0.186 HD
BRANCH  15  17
HETATM   17  N2  UNL     1      16.522  18.403  10.276  1.00  0.00    -0.254 N 
HETATM   18  C1  UNL     1      17.588  19.039   9.590  1.00  0.00     0.347 C 
HETATM   19  N1  UNL     1      18.378  18.298   8.672  1.00  0.00    -0.038 NA
HETATM   20  O1  UNL     1      17.877  20.245   9.756  1.00  0.00    -0.249 OA
ATOM     21  H2  UNL     1      16.353  17.416  10.083  1.00  0.00     0.191 HD
ENDBRANCH  15  17
ENDBRANCH   1  14
BRANCH  11  22
HETATM   22  O3  UNL     1      10.473  19.808  13.113  1.00  0.00    -0.277 OA
ATOM     23  H3  UNL     1       9.727  20.005  12.559  1.00  0.00     0.245 HD
ENDBRANCH  11  22
TORSDOF 3
ENDMDL
MODEL 2
REMARK VINA RESULT: -7.283515498      1.070      1.070
REMARK  3 active torsions:
REMARK  status: ('A' for Active; 'I' for Inactive)
REMARK       I    between atoms: C1_2  and  N2_4 
REMARK    1  A    between atoms: N2_4  and  N3_6 
REMARK    2  A    between atoms: C2_8  and  C3_9 
REMARK    3  A    between atoms: N6_19  and  O3_20 
ROOT
HETATM    1  C3  UNL     1      14.037  21.067  12.165  1.00  0.00     0.081 A 
HETATM    2  C4  UNL     1      14.173  22.230  12.918  1.00  0.00     0.090 A 
HETATM    3  N4  UNL     1      15.245  23.033  12.965  1.00  0.00    -0.309 N 
ATOM      4  H4  UNL     1      16.127  22.927  12.463  1.00  0.00     0.176 HD
HETATM    5  S1  UNL     1      14.804  24.271  14.052  1.00  0.00     0.068 SA
HETATM    6  N5  UNL     1      13.260  23.761  14.442  1.00  0.00    -0.306 N 
ATOM      7  H5  UNL     1      12.597  24.206  15.077  1.00  0.00     0.176 HD
HETATM    8  C5  UNL     1      13.086  22.637  13.734  1.00  0.00     0.139 A 
HETATM    9  C6  UNL     1      11.921  21.871  13.759  1.00  0.00     0.304 A 
HETATM   10  O2  UNL     1      10.918  22.205  14.482  1.00  0.00    -0.263 OA
HETATM   11  N6  UNL     1      11.795  20.755  13.033  1.00  0.00    -0.146 N 
HETATM   12  C7  UNL     1      12.820  20.381  12.271  1.00  0.00     0.288 A 
HETATM   13  O4  UNL     1      12.684  19.308  11.581  1.00  0.00    -0.265 OA
ENDROOT
BRANCH   1  14
HETATM   14  C2  UNL     1      15.072  20.532  11.287  1.00  0.00     0.126 C 
HETATM   15  N3  UNL     1      14.947  20.186  10.088  1.00  0.00    -0.307 N 
ATOM     16  H3  UNL     1      14.022  20.283   9.669  1.00  0.00     0.186 HD
BRANCH  15  17
HETATM   17  N2  UNL     1      15.949  19.686   9.292  1.00  0.00    -0.254 N 
HETATM   18  C1  UNL     1      16.744  18.558   9.621  1.00  0.00     0.347 C 
HETATM   19  N1  UNL     1      17.755  18.123   8.725  1.00  0.00    -0.038 NA
HETATM   20  O1  UNL     1      16.597  17.912  10.683  1.00  0.00    -0.249 OA
ATOM     21  H2  UNL     1      16.133  20.156   8.406  1.00  0.00     0.191 HD
ENDBRANCH  15  17
ENDBRANCH   1  14
BRANCH  11  22
HETATM   22  O3  UNL     1      10.627  20.007  13.072  1.00  0.00    -0.277 OA
ATOM     23  H3  UNL     1      10.635  19.106  13.374  1.00  0.00     0.245 HD
ENDBRANCH  11  22
TORSDOF 3
ENDMDL
MODEL 3
REMARK VINA RESULT: -7.259741452      2.388      6.112
REMARK  3 active torsions:
REMARK  status: ('A' for Active; 'I' for Inactive)
REMARK       I    between atoms: C1_2  and  N2_4 
REMARK    1  A    between atoms: N2_4  and  N3_6 
REMARK    2  A    between atoms: C2_8  and  C3_9 
REMARK    3  A    between atoms: N6_19  and  O3_20 
ROOT
HETATM    1  C3  UNL     1      15.627  20.143  11.204  1.00  0.00     0.081 A 
HETATM    2  C4  UNL     1      16.931  19.814  11.569  1.00  0.00     0.090 A 
HETATM    3  N4  UNL     1      17.593  20.248  12.649  1.00  0.00    -0.309 N 
ATOM      4  H4  UNL     1      17.257  20.883  13.374  1.00  0.00     0.176 HD
HETATM    5  S1  UNL     1      19.123  19.502  12.542  1.00  0.00     0.068 SA
HETATM    6  N5  UNL     1      18.912  18.642  11.123  1.00  0.00    -0.306 N 
ATOM      7  H5  UNL     1      19.585  18.032  10.657  1.00  0.00     0.176 HD
HETATM    8  C5  UNL     1      17.663  18.931  10.735  1.00  0.00     0.139 A 
HETATM    9  C6  UNL     1      17.066  18.420   9.582  1.00  0.00     0.304 A 
HETATM   10  O2  UNL     1      17.694  17.620   8.804  1.00  0.00    -0.263 OA
HETATM   11  N6  UNL     1      15.814  18.739   9.237  1.00  0.00    -0.146 N 
HETATM   12  C7  UNL     1      15.135  19.568  10.025  1.00  0.00     0.288 A 
HETATM   13  O4  UNL     1      13.935  19.864   9.679  1.00  0.00    -0.265 OA
ENDROOT
BRANCH   1  14
HETATM   14  C2  UNL     1      14.763  21.037  11.966  1.00  0.00     0.126 C 
HETATM   15  N3  UNL     1      13.569  20.841  12.295  1.00  0.00    -0.307 N 
ATOM     16  H3  UNL     1      13.143  19.961  12.002  1.00  0.00     0.186 HD
BRANCH  15  17
HETATM   17  N2  UNL     1      12.785  21.709  13.015  1.00  0.00    -0.254 N 
HETATM   18  C1  UNL     1      11.485  21.405  13.492  1.00  0.00     0.347 C 
HETATM   19  N1  UNL     1      10.759  22.377  14.229  1.00  0.00    -0.038 NA
HETATM   20  O1  UNL     1      10.932  20.300  13.294  1.00  0.00    -0.249 OA
ATOM     21  H2  UNL     1      13.164  22.634  13.220  1.00  0.00     0.191 HD
ENDBRANCH  15  17
ENDBRANCH   1  14
BRANCH  11  22
HETATM   22  O3  UNL     1      15.238  18.219   8.085  1.00  0.00    -0.277 OA
ATOM     23  H3  UNL     1      14.351  18.450   7.837  1.00  0.00     0.245 HD
ENDBRANCH  11  22
TORSDOF 3
ENDMDL
MODEL 4
REMARK VINA RESULT: -7.112159170      2.469      6.371
REMARK  3 active torsions:
REMARK  status: ('A' for Active; 'I' for Inactive)
REMARK       I    between atoms: C1_2  and  N2_4 
REMARK    1  A    between atoms: N2_4  and  N3_6 
REMARK    2  A    between atoms: C2_8  and  C3_9 
REMARK    3  A    between atoms: N6_19  and  O3_20 
ROOT
HETATM    1  C3  UNL     1      12.264  21.357  13.355  1.00  0.00     0.081 A 
HETATM    2  C4  UNL     1      13.519  21.681  12.846  1.00  0.00     0.090 A 
HETATM    3  N4  UNL     1      14.282  22.723  13.203  1.00  0.00    -0.309 N 
ATOM      4  H4  UNL     1      14.074  23.441  13.898  1.00  0.00     0.176 HD
HETATM    5  S1  UNL     1      15.680  22.579  12.236  1.00  0.00     0.068 SA
HETATM    6  N5  UNL     1      15.286  21.196  11.383  1.00  0.00    -0.306 N 
ATOM      7  H5  UNL     1      15.842  20.723  10.670  1.00  0.00     0.176 HD
HETATM    8  C5  UNL     1      14.078  20.847  11.845  1.00  0.00     0.139 A 
HETATM    9  C6  UNL     1      13.364  19.733  11.400  1.00  0.00     0.304 A 
HETATM   10  O2  UNL     1      13.834  18.956  10.498  1.00  0.00    -0.263 OA
HETATM   11  N6  UNL     1      12.160  19.426  11.893  1.00  0.00    -0.146 N 
HETATM   12  C7  UNL     1      11.643  20.215  12.832  1.00  0.00     0.288 A 
HETATM   13  O4  UNL     1      10.486  19.906  13.294  1.00  0.00    -0.265 OA
ENDROOT
BRANCH   1  14
HETATM   14  C2  UNL     1      11.572  22.125  14.384  1.00  0.00     0.126 C 
HETATM   15  N3  UNL     1      10.711  23.020  14.214  1.00  0.00    -0.307 N 
ATOM     16  H3  UNL     1      10.457  23.247  13.252  1.00  0.00     0.186 HD
BRANCH  15  17
HETATM   17  N2  UNL     1      10.081  23.723  15.212  1.00  0.00    -0.254 N 
HETATM   18  C1  UNL     1       8.809  24.337  15.077  1.00  0.00     0.347 C 
HETATM   19  N1  UNL     1       8.246  25.041  16.173  1.00  0.00    -0.038 NA
HETATM   20  O1  UNL     1       8.143  24.289  14.018  1.00  0.00    -0.249 OA
ATOM     21  H2  UNL     1      10.558  23.809  16.109  1.00  0.00     0.191 HD
ENDBRANCH  15  17
ENDBRANCH   1  14
BRANCH  11  22
HETATM   22  O3  UNL     1      11.465  18.314  11.437  1.00  0.00    -0.277 OA
ATOM     23  H3  UNL     1      10.615  18.090  11.794  1.00  0.00     0.245 HD
ENDBRANCH  11  22
TORSDOF 3
ENDMDL
MODEL 5
REMARK VINA RESULT: -7.102259039      2.270      3.056
REMARK  3 active torsions:
REMARK  status: ('A' for Active; 'I' for Inactive)
REMARK       I    between atoms: C1_2  and  N2_4 
REMARK    1  A    between atoms: N2_4  and  N3_6 
REMARK    2  A    between atoms: C2_8  and  C3_9 
REMARK    3  A    between atoms: N6_19  and  O3_20 
ROOT
HETATM    1  C3  UNL     1      14.238  20.938  12.026  1.00  0.00     0.081 A 
HETATM    2  C4  UNL     1      13.092  20.146  12.043  1.00  0.00     0.090 A 
HETATM    3  N4  UNL     1      12.900  19.002  11.372  1.00  0.00    -0.309 N 
ATOM      4  H4  UNL     1      13.553  18.527  10.748  1.00  0.00     0.176 HD
HETATM    5  S1  UNL     1      11.321  18.517  11.797  1.00  0.00     0.068 SA
HETATM    6  N5  UNL     1      10.913  19.773  12.824  1.00  0.00    -0.306 N 
ATOM      7  H5  UNL     1      10.036  19.906  13.328  1.00  0.00     0.176 HD
HETATM    8  C5  UNL     1      11.995  20.563  12.838  1.00  0.00     0.139 A 
HETATM    9  C6  UNL     1      12.090  21.743  13.577  1.00  0.00     0.304 A 
HETATM   10  O2  UNL     1      11.121  22.152  14.307  1.00  0.00    -0.263 OA
HETATM   11  N6  UNL     1      13.192  22.498  13.558  1.00  0.00    -0.146 N 
HETATM   12  C7  UNL     1      14.217  22.100  12.809  1.00  0.00     0.288 A 
HETATM   13  O4  UNL     1      15.267  22.837  12.802  1.00  0.00    -0.265 OA
ENDROOT
BRANCH   1  14
HETATM   14  C2  UNL     1      15.437  20.631  11.255  1.00  0.00     0.126 C 
HETATM   15  N3  UNL     1      16.160  19.611  11.348  1.00  0.00    -0.307 N 
ATOM     16  H3  UNL     1      15.890  18.910  12.038  1.00  0.00     0.186 HD
BRANCH  15  17
HETATM   17  N2  UNL     1      17.284  19.357  10.601  1.00  0.00    -0.254 N 
HETATM   18  C1  UNL     1      17.271  18.770   9.310  1.00  0.00     0.347 C 
HETATM   19  N1  UNL     1      18.493  18.550   8.622  1.00  0.00    -0.038 NA
HETATM   20  O1  UNL     1      16.215  18.427   8.733  1.00  0.00    -0.249 OA
ATOM     21  H2  UNL     1      18.189  19.608  11.001  1.00  0.00     0.191 HD
ENDBRANCH  15  17
ENDBRANCH   1  14
BRANCH  11  22
HETATM   22  O3  UNL     1      13.267  23.669  14.301  1.00  0.00    -0.277 OA
ATOM     23  H3  UNL     1      13.175  24.517  13.884  1.00  0.00     0.245 HD
ENDBRANCH  11  22
TORSDOF 3
ENDMDL
