MODEL 1
REMARK VINA RESULT: -6.066800078      0.000      0.000
REMARK  14 active torsions:
REMARK  status: ('A' for Active; 'I' for Inactive)
REMARK    1  A    between atoms: N1_2  and  C3_4 
REMARK    2  A    between atoms: N1_2  and  C5_8 
REMARK    3  A    between atoms: C3_4  and  C4_5 
REMARK    4  A    between atoms: C4_5  and  O1_6 
REMARK    5  A    between atoms: C5_8  and  C6_9 
REMARK    6  A    between atoms: C7_11  and  O3_12 
REMARK    7  A    between atoms: O3_12  and  C8_13 
REMARK    8  A    between atoms: C8_13  and  C9_14 
REMARK    9  A    between atoms: C9_14  and  C10_15 
REMARK   10  A    between atoms: C10_15  and  C11_16 
REMARK   11  A    between atoms: C11_16  and  C12_17 
REMARK   12  A    between atoms: C12_17  and  N2_18 
REMARK   13  A    between atoms: C14_26  and  O4_27 
REMARK   14  A    between atoms: C15_29  and  O5_30 
ROOT
HETATM    1  C6  UNL     1      55.197  16.320  19.119  1.00  0.00     0.185 C 
HETATM    2  O2  UNL     1      56.096  15.668  18.240  1.00  0.00    -0.329 OA
HETATM    3  C7  UNL     1      56.404  14.384  18.690  1.00  0.00     0.472 C 
HETATM    4  N5  UNL     1      57.174  14.390  19.894  1.00  0.00     0.004 N 
ATOM      5  H51 UNL     1      58.097  13.971  19.783  1.00  0.00     0.286 HD
ATOM      6  H52 UNL     1      56.822  13.742  20.599  1.00  0.00     0.286 HD
HETATM    7  C14 UNL     1      57.221  15.773  20.358  1.00  0.00     0.356 C 
HETATM    8  C15 UNL     1      55.739  16.155  20.491  1.00  0.00     0.205 C 
ENDROOT
BRANCH   3   9
HETATM    9  O3  UNL     1      55.281  13.620  18.668  1.00  0.00    -0.339 OA
BRANCH   9  10
HETATM   10  C8  UNL     1      54.992  12.976  17.509  1.00  0.00     0.172 C 
BRANCH  10  11
HETATM   11  C9  UNL     1      56.154  12.574  16.655  1.00  0.00     0.026 C 
BRANCH  11  12
HETATM   12  C10 UNL     1      56.056  11.131  16.284  1.00  0.00     0.004 C 
BRANCH  12  13
HETATM   13  C11 UNL     1      56.169  10.922  14.772  1.00  0.00     0.020 C 
BRANCH  13  14
HETATM   14  C12 UNL     1      56.444  12.317  14.196  1.00  0.00     0.122 C 
BRANCH  14  15
HETATM   15  N2  UNL     1      56.952  12.251  12.862  1.00  0.00    -0.367 N 
HETATM   16  C13 UNL     1      58.060  12.786  12.554  1.00  0.00     0.196 C 
HETATM   17  N3  UNL     1      58.488  12.667  11.188  1.00  0.00    -0.067 NA
HETATM   18  N4  UNL     1      58.819  13.461  13.525  1.00  0.00    -0.067 NA
ATOM     19  H2  UNL     1      56.414  11.764  12.145  1.00  0.00     0.161 HD
ENDBRANCH  14  15
ENDBRANCH  13  14
ENDBRANCH  12  13
ENDBRANCH  11  12
ENDBRANCH  10  11
ENDBRANCH   9  10
ENDBRANCH   3   9
BRANCH   1  20
HETATM   20  C5  UNL     1      55.120  17.720  18.617  1.00  0.00     0.271 C 
BRANCH  20  21
HETATM   21  N1  UNL     1      54.128  18.002  17.638  1.00  0.00    -0.070 N 
HETATM   22  C1  UNL     1      53.003  17.070  17.690  1.00  0.00     0.272 C 
HETATM   23  C2  UNL     1      53.550  19.299  17.997  1.00  0.00     0.272 C 
BRANCH  21  24
HETATM   24  C3  UNL     1      54.618  18.142  16.300  1.00  0.00     0.262 C 
BRANCH  24  25
HETATM   25  C4  UNL     1      54.438  16.858  15.504  1.00  0.00     0.192 C 
BRANCH  25  26
HETATM   26  O1  UNL     1      55.636  16.154  15.420  1.00  0.00    -0.399 OA
ATOM     27  H1  UNL     1      55.510  15.321  14.979  1.00  0.00     0.209 HD
ENDBRANCH  25  26
ENDBRANCH  24  25
ENDBRANCH  21  24
ENDBRANCH  20  21
ENDBRANCH   1  20
BRANCH   7  28
HETATM   28  O4  UNL     1      57.889  15.901  21.558  1.00  0.00    -0.368 OA
ATOM     29  H4  UNL     1      57.305  15.838  22.305  1.00  0.00     0.212 HD
ENDBRANCH   7  28
BRANCH   8  30
HETATM   30  O5  UNL     1      55.141  15.085  21.186  1.00  0.00    -0.389 OA
ATOM     31  H5  UNL     1      54.213  15.219  21.334  1.00  0.00     0.210 HD
ENDBRANCH   8  30
TORSDOF 14
ENDMDL
MODEL 2
REMARK VINA RESULT: -6.004958591      3.332      7.323
REMARK  14 active torsions:
REMARK  status: ('A' for Active; 'I' for Inactive)
REMARK    1  A    between atoms: N1_2  and  C3_4 
REMARK    2  A    between atoms: N1_2  and  C5_8 
REMARK    3  A    between atoms: C3_4  and  C4_5 
REMARK    4  A    between atoms: C4_5  and  O1_6 
REMARK    5  A    between atoms: C5_8  and  C6_9 
REMARK    6  A    between atoms: C7_11  and  O3_12 
REMARK    7  A    between atoms: O3_12  and  C8_13 
REMARK    8  A    between atoms: C8_13  and  C9_14 
REMARK    9  A    between atoms: C9_14  and  C10_15 
REMARK   10  A    between atoms: C10_15  and  C11_16 
REMARK   11  A    between atoms: C11_16  and  C12_17 
REMARK   12  A    between atoms: C12_17  and  N2_18 
REMARK   13  A    between atoms: C14_26  and  O4_27 
REMARK   14  A    between atoms: C15_29  and  O5_30 
ROOT
HETATM    1  C6  UNL     1      57.415  14.704  13.293  1.00  0.00     0.185 C 
HETATM    2  O2  UNL     1      56.042  15.056  13.293  1.00  0.00    -0.329 OA
HETATM    3  C7  UNL     1      55.379  14.512  14.393  1.00  0.00     0.472 C 
HETATM    4  N5  UNL     1      55.285  13.088  14.333  1.00  0.00     0.004 N 
ATOM      5  H51 UNL     1      54.323  12.751  14.288  1.00  0.00     0.286 HD
ATOM      6  H52 UNL     1      55.541  12.631  15.208  1.00  0.00     0.286 HD
HETATM    7  C14 UNL     1      56.098  12.657  13.200  1.00  0.00     0.356 C 
HETATM    8  C15 UNL     1      57.484  13.239  13.516  1.00  0.00     0.205 C 
ENDROOT
BRANCH   3   9
HETATM    9  O3  UNL     1      55.878  15.059  15.531  1.00  0.00    -0.339 OA
BRANCH   9  10
HETATM   10  C8  UNL     1      55.135  14.928  16.659  1.00  0.00     0.172 C 
BRANCH  10  11
HETATM   11  C9  UNL     1      55.653  13.984  17.700  1.00  0.00     0.026 C 
BRANCH  11  12
HETATM   12  C10 UNL     1      55.772  14.673  19.018  1.00  0.00     0.004 C 
BRANCH  12  13
HETATM   13  C11 UNL     1      55.539  16.181  18.898  1.00  0.00     0.020 C 
BRANCH  13  14
HETATM   14  C12 UNL     1      55.894  16.751  20.278  1.00  0.00     0.122 C 
BRANCH  14  15
HETATM   15  N2  UNL     1      56.867  17.794  20.189  1.00  0.00    -0.367 N 
HETATM   16  C13 UNL     1      58.074  17.596  20.526  1.00  0.00     0.196 C 
HETATM   17  N3  UNL     1      58.979  18.704  20.401  1.00  0.00    -0.067 NA
HETATM   18  N4  UNL     1      58.485  16.338  20.998  1.00  0.00    -0.067 NA
ATOM     19  H2  UNL     1      56.586  18.713  19.848  1.00  0.00     0.161 HD
ENDBRANCH  14  15
ENDBRANCH  13  14
ENDBRANCH  12  13
ENDBRANCH  11  12
ENDBRANCH  10  11
ENDBRANCH   9  10
ENDBRANCH   3   9
BRANCH   1  20
HETATM   20  C5  UNL     1      57.932  15.185  11.981  1.00  0.00     0.271 C 
BRANCH  20  21
HETATM   21  N1  UNL     1      59.052  16.060  12.010  1.00  0.00    -0.070 N 
HETATM   22  C1  UNL     1      59.014  17.062  10.946  1.00  0.00     0.272 C 
HETATM   23  C2  UNL     1      58.941  16.832  13.249  1.00  0.00     0.272 C 
BRANCH  21  24
HETATM   24  C3  UNL     1      60.328  15.412  12.059  1.00  0.00     0.262 C 
BRANCH  24  25
HETATM   25  C4  UNL     1      61.230  15.873  10.925  1.00  0.00     0.192 C 
BRANCH  25  26
HETATM   26  O1  UNL     1      61.623  14.796  10.133  1.00  0.00    -0.399 OA
ATOM     27  H1  UNL     1      62.467  14.460  10.412  1.00  0.00     0.209 HD
ENDBRANCH  25  26
ENDBRANCH  24  25
ENDBRANCH  21  24
ENDBRANCH  20  21
ENDBRANCH   1  20
BRANCH   7  28
HETATM   28  O4  UNL     1      56.139  11.285  13.075  1.00  0.00    -0.368 OA
ATOM     29  H4  UNL     1      55.337  10.931  12.707  1.00  0.00     0.212 HD
ENDBRANCH   7  28
BRANCH   8  30
HETATM   30  O5  UNL     1      57.727  12.906  14.864  1.00  0.00    -0.389 OA
ATOM     31  H5  UNL     1      57.271  12.118  15.134  1.00  0.00     0.210 HD
ENDBRANCH   8  30
TORSDOF 14
ENDMDL
MODEL 3
REMARK VINA RESULT: -5.992091312      0.913      1.757
REMARK  14 active torsions:
REMARK  status: ('A' for Active; 'I' for Inactive)
REMARK    1  A    between atoms: N1_2  and  C3_4 
REMARK    2  A    between atoms: N1_2  and  C5_8 
REMARK    3  A    between atoms: C3_4  and  C4_5 
REMARK    4  A    between atoms: C4_5  and  O1_6 
REMARK    5  A    between atoms: C5_8  and  C6_9 
REMARK    6  A    between atoms: C7_11  and  O3_12 
REMARK    7  A    between atoms: O3_12  and  C8_13 
REMARK    8  A    between atoms: C8_13  and  C9_14 
REMARK    9  A    between atoms: C9_14  and  C10_15 
REMARK   10  A    between atoms: C10_15  and  C11_16 
REMARK   11  A    between atoms: C11_16  and  C12_17 
REMARK   12  A    between atoms: C12_17  and  N2_18 
REMARK   13  A    between atoms: C14_26  and  O4_27 
REMARK   14  A    between atoms: C15_29  and  O5_30 
ROOT
HETATM    1  C6  UNL     1      55.246  16.364  19.139  1.00  0.00     0.185 C 
HETATM    2  O2  UNL     1      56.145  15.686  18.278  1.00  0.00    -0.329 OA
HETATM    3  C7  UNL     1      56.404  14.393  18.733  1.00  0.00     0.472 C 
HETATM    4  N5  UNL     1      57.146  14.374  19.954  1.00  0.00     0.004 N 
ATOM      5  H51 UNL     1      58.059  13.928  19.862  1.00  0.00     0.286 HD
ATOM      6  H52 UNL     1      56.760  13.736  20.649  1.00  0.00     0.286 HD
HETATM    7  C14 UNL     1      57.225  15.755  20.422  1.00  0.00     0.356 C 
HETATM    8  C15 UNL     1      55.753  16.180  20.522  1.00  0.00     0.205 C 
ENDROOT
BRANCH   3   9
HETATM    9  O3  UNL     1      55.260  13.664  18.684  1.00  0.00    -0.339 OA
BRANCH   9  10
HETATM   10  C8  UNL     1      54.999  12.995  17.532  1.00  0.00     0.172 C 
BRANCH  10  11
HETATM   11  C9  UNL     1      56.181  12.571  16.718  1.00  0.00     0.026 C 
BRANCH  11  12
HETATM   12  C10 UNL     1      56.040  11.148  16.293  1.00  0.00     0.004 C 
BRANCH  12  13
HETATM   13  C11 UNL     1      56.483  10.939  14.842  1.00  0.00     0.020 C 
BRANCH  13  14
HETATM   14  C12 UNL     1      56.457  12.338  14.213  1.00  0.00     0.122 C 
BRANCH  14  15
HETATM   15  N2  UNL     1      56.923  12.321  12.861  1.00  0.00    -0.367 N 
HETATM   16  C13 UNL     1      57.988  12.922  12.527  1.00  0.00     0.196 C 
HETATM   17  N3  UNL     1      58.377  12.849  11.146  1.00  0.00    -0.067 NA
HETATM   18  N4  UNL     1      58.741  13.624  13.485  1.00  0.00    -0.067 NA
ATOM     19  H2  UNL     1      56.389  11.816  12.154  1.00  0.00     0.161 HD
ENDBRANCH  14  15
ENDBRANCH  13  14
ENDBRANCH  12  13
ENDBRANCH  11  12
ENDBRANCH  10  11
ENDBRANCH   9  10
ENDBRANCH   3   9
BRANCH   1  20
HETATM   20  C5  UNL     1      55.223  17.767  18.638  1.00  0.00     0.271 C 
BRANCH  20  21
HETATM   21  N1  UNL     1      54.120  18.144  17.825  1.00  0.00    -0.070 N 
HETATM   22  C1  UNL     1      53.846  19.579  17.875  1.00  0.00     0.272 C 
HETATM   23  C2  UNL     1      54.521  17.892  16.440  1.00  0.00     0.272 C 
BRANCH  21  24
HETATM   24  C3  UNL     1      52.923  17.386  18.036  1.00  0.00     0.262 C 
BRANCH  24  25
HETATM   25  C4  UNL     1      52.000  18.070  19.033  1.00  0.00     0.192 C 
BRANCH  25  26
HETATM   26  O1  UNL     1      51.972  17.378  20.241  1.00  0.00    -0.399 OA
ATOM     27  H1  UNL     1      51.521  17.880  20.910  1.00  0.00     0.209 HD
ENDBRANCH  25  26
ENDBRANCH  24  25
ENDBRANCH  21  24
ENDBRANCH  20  21
ENDBRANCH   1  20
BRANCH   7  28
HETATM   28  O4  UNL     1      57.869  15.860  21.637  1.00  0.00    -0.368 OA
ATOM     29  H4  UNL     1      58.782  16.104  21.542  1.00  0.00     0.212 HD
ENDBRANCH   7  28
BRANCH   8  30
HETATM   30  O5  UNL     1      55.107  15.128  21.201  1.00  0.00    -0.389 OA
ATOM     31  H5  UNL     1      54.367  15.425  21.715  1.00  0.00     0.210 HD
ENDBRANCH   8  30
TORSDOF 14
ENDMDL
MODEL 4
REMARK VINA RESULT: -5.852360555      2.957      7.150
REMARK  14 active torsions:
REMARK  status: ('A' for Active; 'I' for Inactive)
REMARK    1  A    between atoms: N1_2  and  C3_4 
REMARK    2  A    between atoms: N1_2  and  C5_8 
REMARK    3  A    between atoms: C3_4  and  C4_5 
REMARK    4  A    between atoms: C4_5  and  O1_6 
REMARK    5  A    between atoms: C5_8  and  C6_9 
REMARK    6  A    between atoms: C7_11  and  O3_12 
REMARK    7  A    between atoms: O3_12  and  C8_13 
REMARK    8  A    between atoms: C8_13  and  C9_14 
REMARK    9  A    between atoms: C9_14  and  C10_15 
REMARK   10  A    between atoms: C10_15  and  C11_16 
REMARK   11  A    between atoms: C11_16  and  C12_17 
REMARK   12  A    between atoms: C12_17  and  N2_18 
REMARK   13  A    between atoms: C14_26  and  O4_27 
REMARK   14  A    between atoms: C15_29  and  O5_30 
ROOT
HETATM    1  C6  UNL     1      56.446  15.047  14.121  1.00  0.00     0.185 C 
HETATM    2  O2  UNL     1      56.001  15.804  15.233  1.00  0.00    -0.329 OA
HETATM    3  C7  UNL     1      55.007  15.128  15.940  1.00  0.00     0.472 C 
HETATM    4  N5  UNL     1      53.790  15.006  15.203  1.00  0.00     0.004 N 
ATOM      5  H51 UNL     1      53.003  15.483  15.644  1.00  0.00     0.286 HD
ATOM      6  H52 UNL     1      53.399  14.064  15.226  1.00  0.00     0.286 HD
HETATM    7  C14 UNL     1      54.065  15.481  13.850  1.00  0.00     0.356 C 
HETATM    8  C15 UNL     1      55.234  14.595  13.394  1.00  0.00     0.205 C 
ENDROOT
BRANCH   3   9
HETATM    9  O3  UNL     1      55.531  13.996  16.478  1.00  0.00    -0.339 OA
BRANCH   9  10
HETATM   10  C8  UNL     1      55.355  13.803  17.809  1.00  0.00     0.172 C 
BRANCH  10  11
HETATM   11  C9  UNL     1      55.624  14.975  18.701  1.00  0.00     0.026 C 
BRANCH  11  12
HETATM   12  C10 UNL     1      55.950  14.517  20.083  1.00  0.00     0.004 C 
BRANCH  12  13
HETATM   13  C11 UNL     1      56.188  15.693  21.033  1.00  0.00     0.020 C 
BRANCH  13  14
HETATM   14  C12 UNL     1      57.228  16.572  20.326  1.00  0.00     0.122 C 
BRANCH  14  15
HETATM   15  N2  UNL     1      58.269  16.982  21.215  1.00  0.00    -0.367 N 
HETATM   16  C13 UNL     1      58.750  18.155  21.165  1.00  0.00     0.196 C 
HETATM   17  N3  UNL     1      59.793  18.477  22.099  1.00  0.00    -0.067 NA
HETATM   18  N4  UNL     1      58.266  19.085  20.228  1.00  0.00    -0.067 NA
ATOM     19  H2  UNL     1      58.632  16.321  21.901  1.00  0.00     0.161 HD
ENDBRANCH  14  15
ENDBRANCH  13  14
ENDBRANCH  12  13
ENDBRANCH  11  12
ENDBRANCH  10  11
ENDBRANCH   9  10
ENDBRANCH   3   9
BRANCH   1  20
HETATM   20  C5  UNL     1      57.347  15.966  13.370  1.00  0.00     0.271 C 
BRANCH  20  21
HETATM   21  N1  UNL     1      58.416  15.373  12.645  1.00  0.00    -0.070 N 
HETATM   22  C1  UNL     1      58.234  15.462  11.197  1.00  0.00     0.272 C 
HETATM   23  C2  UNL     1      59.603  16.185  12.919  1.00  0.00     0.272 C 
BRANCH  21  24
HETATM   24  C3  UNL     1      58.749  14.037  13.038  1.00  0.00     0.262 C 
BRANCH  24  25
HETATM   25  C4  UNL     1      58.367  13.029  11.965  1.00  0.00     0.192 C 
BRANCH  25  26
HETATM   26  O1  UNL     1      57.488  12.074  12.471  1.00  0.00    -0.399 OA
ATOM     27  H1  UNL     1      57.043  11.615  11.767  1.00  0.00     0.209 HD
ENDBRANCH  25  26
ENDBRANCH  24  25
ENDBRANCH  21  24
ENDBRANCH  20  21
ENDBRANCH   1  20
BRANCH   7  28
HETATM   28  O4  UNL     1      52.974  15.352  13.017  1.00  0.00    -0.368 OA
ATOM     29  H4  UNL     1      53.205  14.986  12.172  1.00  0.00     0.212 HD
ENDBRANCH   7  28
BRANCH   8  30
HETATM   30  O5  UNL     1      54.857  13.280  13.732  1.00  0.00    -0.389 OA
ATOM     31  H5  UNL     1      54.624  12.760  12.973  1.00  0.00     0.210 HD
ENDBRANCH   8  30
TORSDOF 14
ENDMDL
MODEL 5
REMARK VINA RESULT: -5.845472567      3.163      7.212
REMARK  14 active torsions:
REMARK  status: ('A' for Active; 'I' for Inactive)
REMARK    1  A    between atoms: N1_2  and  C3_4 
REMARK    2  A    between atoms: N1_2  and  C5_8 
REMARK    3  A    between atoms: C3_4  and  C4_5 
REMARK    4  A    between atoms: C4_5  and  O1_6 
REMARK    5  A    between atoms: C5_8  and  C6_9 
REMARK    6  A    between atoms: C7_11  and  O3_12 
REMARK    7  A    between atoms: O3_12  and  C8_13 
REMARK    8  A    between atoms: C8_13  and  C9_14 
REMARK    9  A    between atoms: C9_14  and  C10_15 
REMARK   10  A    between atoms: C10_15  and  C11_16 
REMARK   11  A    between atoms: C11_16  and  C12_17 
REMARK   12  A    between atoms: C12_17  and  N2_18 
REMARK   13  A    between atoms: C14_26  and  O4_27 
REMARK   14  A    between atoms: C15_29  and  O5_30 
ROOT
HETATM    1  C6  UNL     1      56.506  14.972  14.073  1.00  0.00     0.185 C 
HETATM    2  O2  UNL     1      56.124  15.681  15.239  1.00  0.00    -0.329 OA
HETATM    3  C7  UNL     1      55.072  15.044  15.897  1.00  0.00     0.472 C 
HETATM    4  N5  UNL     1      53.851  15.083  15.156  1.00  0.00     0.004 N 
ATOM      5  H51 UNL     1      53.108  15.593  15.633  1.00  0.00     0.286 HD
ATOM      6  H52 UNL     1      53.380  14.180  15.110  1.00  0.00     0.286 HD
HETATM    7  C14 UNL     1      54.173  15.631  13.841  1.00  0.00     0.356 C 
HETATM    8  C15 UNL     1      55.262  14.683  13.318  1.00  0.00     0.205 C 
ENDROOT
BRANCH   3   9
HETATM    9  O3  UNL     1      55.493  13.834  16.348  1.00  0.00    -0.339 OA
BRANCH   9  10
HETATM   10  C8  UNL     1      55.464  13.628  17.689  1.00  0.00     0.172 C 
BRANCH  10  11
HETATM   11  C9  UNL     1      55.493  14.846  18.558  1.00  0.00     0.026 C 
BRANCH  11  12
HETATM   12  C10 UNL     1      55.863  14.482  19.957  1.00  0.00     0.004 C 
BRANCH  12  13
HETATM   13  C11 UNL     1      57.304  14.881  20.288  1.00  0.00     0.020 C 
BRANCH  13  14
HETATM   14  C12 UNL     1      57.276  16.411  20.407  1.00  0.00     0.122 C 
BRANCH  14  15
HETATM   15  N2  UNL     1      58.312  16.896  21.263  1.00  0.00    -0.367 N 
HETATM   16  C13 UNL     1      58.749  18.083  21.157  1.00  0.00     0.196 C 
HETATM   17  N3  UNL     1      59.792  18.481  22.061  1.00  0.00    -0.067 NA
HETATM   18  N4  UNL     1      58.221  18.953  20.187  1.00  0.00    -0.067 NA
ATOM     19  H2  UNL     1      58.707  16.278  21.972  1.00  0.00     0.161 HD
ENDBRANCH  14  15
ENDBRANCH  13  14
ENDBRANCH  12  13
ENDBRANCH  11  12
ENDBRANCH  10  11
ENDBRANCH   9  10
ENDBRANCH   3   9
BRANCH   1  20
HETATM   20  C5  UNL     1      57.486  15.863  13.390  1.00  0.00     0.271 C 
BRANCH  20  21
HETATM   21  N1  UNL     1      58.557  15.233  12.698  1.00  0.00    -0.070 N 
HETATM   22  C1  UNL     1      58.689  13.816  13.032  1.00  0.00     0.272 C 
HETATM   23  C2  UNL     1      58.198  15.247  11.279  1.00  0.00     0.272 C 
BRANCH  21  24
HETATM   24  C3  UNL     1      59.819  15.903  12.795  1.00  0.00     0.262 C 
BRANCH  24  25
HETATM   25  C4  UNL     1      60.388  16.220  11.421  1.00  0.00     0.192 C 
BRANCH  25  26
HETATM   26  O1  UNL     1      61.695  15.751  11.303  1.00  0.00    -0.399 OA
ATOM     27  H1  UNL     1      62.270  16.192  11.918  1.00  0.00     0.209 HD
ENDBRANCH  25  26
ENDBRANCH  24  25
ENDBRANCH  21  24
ENDBRANCH  20  21
ENDBRANCH   1  20
BRANCH   7  28
HETATM   28  O4  UNL     1      53.078  15.660  13.004  1.00  0.00    -0.368 OA
ATOM     29  H4  UNL     1      52.841  16.544  12.748  1.00  0.00     0.212 HD
ENDBRANCH   7  28
BRANCH   8  30
HETATM   30  O5  UNL     1      54.770  13.385  13.559  1.00  0.00    -0.389 OA
ATOM     31  H5  UNL     1      54.784  12.839  12.782  1.00  0.00     0.210 HD
ENDBRANCH   8  30
TORSDOF 14
ENDMDL
