MODEL 1
REMARK VINA RESULT: -6.812487160      0.000      0.000
REMARK  12 active torsions:
REMARK  status: ('A' for Active; 'I' for Inactive)
REMARK    1  A    between atoms: C2_2  and  C3_3 
REMARK    2  A    between atoms: C3_3  and  C4_4 
REMARK    3  A    between atoms: C4_4  and  C5_5 
REMARK    4  A    between atoms: C10_16  and  C11_17 
REMARK    5  A    between atoms: C11_17  and  C12_18 
REMARK    6  A    between atoms: C15_21  and  C16_22 
REMARK    7  A    between atoms: C16_22  and  O3_23 
REMARK    8  A    between atoms: C20_32  and  C21_33 
REMARK    9  A    between atoms: C21_33  and  C22_34 
REMARK   10  A    between atoms: C22_34  and  C23_35 
REMARK   11  A    between atoms: C23_35  and  C24_36 
REMARK   12  A    between atoms: C24_36  and  N4_37 
ROOT
HETATM    1  C5  UNL     1      21.898  16.567  33.865  1.00  0.00     0.176 C 
HETATM    2  N1  UNL     1      22.064  17.992  33.762  1.00  0.00    -0.346 N 
ATOM      3  H1  UNL     1      22.252  18.460  34.649  1.00  0.00     0.163 HD
HETATM    4  C6  UNL     1      22.014  18.845  32.659  1.00  0.00     0.240 C 
HETATM    5  O1  UNL     1      23.033  19.532  32.364  1.00  0.00    -0.271 OA
HETATM    6  C7  UNL     1      20.873  19.079  31.729  1.00  0.00     0.172 C 
HETATM    7  C8  UNL     1      20.109  20.319  32.233  1.00  0.00     0.042 C 
HETATM    8  N2  UNL     1      21.322  19.386  30.397  1.00  0.00    -0.348 N 
ATOM      9  H2  UNL     1      22.299  19.663  30.305  1.00  0.00     0.163 HD
HETATM   10  C9  UNL     1      20.578  19.352  29.213  1.00  0.00     0.223 C 
HETATM   11  O2  UNL     1      21.142  18.848  28.179  1.00  0.00    -0.273 OA
HETATM   12  C10 UNL     1      19.196  19.835  28.996  1.00  0.00     0.091 C 
HETATM   13  C15 UNL     1      18.123  18.881  28.820  1.00  0.00     0.093 C 
HETATM   14  C17 UNL     1      18.270  17.446  28.758  1.00  0.00     0.151 C 
HETATM   15  O4  UNL     1      17.452  16.910  27.969  1.00  0.00    -0.296 OA
HETATM   16  C18 UNL     1      19.128  16.453  29.380  1.00  0.00     0.201 C 
HETATM   17  N3  UNL     1      18.471  15.774  30.510  1.00  0.00    -0.352 N 
ATOM     18  H3  UNL     1      17.452  15.726  30.505  1.00  0.00     0.162 HD
HETATM   19  C19 UNL     1      19.146  15.191  31.594  1.00  0.00     0.240 C 
HETATM   20  O5  UNL     1      18.609  15.278  32.757  1.00  0.00    -0.271 OA
HETATM   21  C20 UNL     1      20.442  14.468  31.528  1.00  0.00     0.176 C 
HETATM   22  N5  UNL     1      21.600  15.311  31.613  1.00  0.00    -0.346 N 
ATOM     23  H5  UNL     1      21.962  15.604  30.706  1.00  0.00     0.163 HD
HETATM   24  C25 UNL     1      22.323  15.802  32.687  1.00  0.00     0.241 C 
HETATM   25  O6  UNL     1      23.593  15.551  32.660  1.00  0.00    -0.271 OA
ENDROOT
BRANCH  21  26
HETATM   26  C21 UNL     1      20.403  13.346  32.502  1.00  0.00     0.035 C 
BRANCH  26  27
HETATM   27  C22 UNL     1      19.746  12.145  31.876  1.00  0.00     0.004 C 
BRANCH  27  28
HETATM   28  C23 UNL     1      18.662  11.508  32.672  1.00  0.00     0.027 C 
BRANCH  28  29
HETATM   29  C24 UNL     1      17.343  11.945  32.002  1.00  0.00     0.229 C 
BRANCH  29  30
HETATM   30  N4  UNL     1      16.645  12.894  32.823  1.00  0.00    -0.079 N 
ATOM     31  H43 UNL     1      15.653  12.670  32.898  1.00  0.00     0.274 HD
ATOM     32  H42 UNL     1      16.898  12.801  33.807  1.00  0.00     0.274 HD
ATOM     33  H41 UNL     1      16.793  13.844  32.484  1.00  0.00     0.274 HD
ENDBRANCH  29  30
ENDBRANCH  28  29
ENDBRANCH  27  28
ENDBRANCH  26  27
ENDBRANCH  21  26
BRANCH   1  34
HETATM   34  C4  UNL     1      22.735  16.106  35.071  1.00  0.00     0.035 C 
BRANCH  34  35
HETATM   35  C3  UNL     1      23.588  17.166  35.656  1.00  0.00     0.002 C 
BRANCH  35  36
HETATM   36  C2  UNL     1      24.990  16.603  35.797  1.00  0.00    -0.004 C 
HETATM   37  C1  UNL     1      25.500  16.700  37.203  1.00  0.00     0.005 C 
ENDBRANCH  35  36
ENDBRANCH  34  35
ENDBRANCH   1  34
BRANCH  13  38
HETATM   38  C16 UNL     1      17.117  19.100  29.984  1.00  0.00     0.177 C 
BRANCH  38  39
HETATM   39  O3  UNL     1      15.820  18.734  29.549  1.00  0.00    -0.400 OA
ATOM     40  H3  UNL     1      15.206  19.414  29.798  1.00  0.00     0.209 HD
ENDBRANCH  38  39
ENDBRANCH  13  38
BRANCH  12  41
HETATM   41  C11 UNL     1      19.333  20.732  27.775  1.00  0.00     0.018 C 
BRANCH  41  42
HETATM   42  C12 UNL     1      19.132  22.174  27.939  1.00  0.00    -0.022 C 
HETATM   43  C13 UNL     1      19.381  22.781  26.532  1.00  0.00     0.009 C 
HETATM   44  C14 UNL     1      20.166  22.863  28.799  1.00  0.00     0.009 C 
ENDBRANCH  41  42
ENDBRANCH  12  41
TORSDOF 12
ENDMDL
MODEL 2
REMARK VINA RESULT: -6.617962622      3.109      7.776
REMARK  12 active torsions:
REMARK  status: ('A' for Active; 'I' for Inactive)
REMARK    1  A    between atoms: C2_2  and  C3_3 
REMARK    2  A    between atoms: C3_3  and  C4_4 
REMARK    3  A    between atoms: C4_4  and  C5_5 
REMARK    4  A    between atoms: C10_16  and  C11_17 
REMARK    5  A    between atoms: C11_17  and  C12_18 
REMARK    6  A    between atoms: C15_21  and  C16_22 
REMARK    7  A    between atoms: C16_22  and  O3_23 
REMARK    8  A    between atoms: C20_32  and  C21_33 
REMARK    9  A    between atoms: C21_33  and  C22_34 
REMARK   10  A    between atoms: C22_34  and  C23_35 
REMARK   11  A    between atoms: C23_35  and  C24_36 
REMARK   12  A    between atoms: C24_36  and  N4_37 
ROOT
HETATM    1  C5  UNL     1      19.754  19.002  31.557  1.00  0.00     0.176 C 
HETATM    2  N1  UNL     1      19.511  17.820  32.340  1.00  0.00    -0.346 N 
ATOM      3  H1  UNL     1      19.958  17.824  33.257  1.00  0.00     0.163 HD
HETATM    4  C6  UNL     1      18.771  16.670  32.064  1.00  0.00     0.240 C 
HETATM    5  O1  UNL     1      17.798  16.369  32.812  1.00  0.00    -0.271 OA
HETATM    6  C7  UNL     1      18.971  15.693  30.956  1.00  0.00     0.172 C 
HETATM    7  C8  UNL     1      19.831  14.537  31.506  1.00  0.00     0.042 C 
HETATM    8  N2  UNL     1      17.728  15.111  30.524  1.00  0.00    -0.348 N 
ATOM      9  H2  UNL     1      16.938  15.216  31.160  1.00  0.00     0.163 HD
HETATM   10  C9  UNL     1      17.474  14.418  29.336  1.00  0.00     0.223 C 
HETATM   11  O2  UNL     1      16.377  14.677  28.727  1.00  0.00    -0.273 OA
HETATM   12  C10 UNL     1      18.325  13.401  28.680  1.00  0.00     0.091 C 
HETATM   13  C15 UNL     1      19.028  13.734  27.460  1.00  0.00     0.093 C 
HETATM   14  C17 UNL     1      18.929  14.983  26.742  1.00  0.00     0.151 C 
HETATM   15  O4  UNL     1      19.014  14.833  25.497  1.00  0.00    -0.296 OA
HETATM   16  C18 UNL     1      18.754  16.382  27.092  1.00  0.00     0.201 C 
HETATM   17  N3  UNL     1      20.027  17.123  27.082  1.00  0.00    -0.352 N 
ATOM     18  H3  UNL     1      20.774  16.773  26.481  1.00  0.00     0.162 HD
HETATM   19  C19 UNL     1      20.286  18.277  27.840  1.00  0.00     0.240 C 
HETATM   20  O5  UNL     1      21.466  18.428  28.325  1.00  0.00    -0.271 OA
HETATM   21  C20 UNL     1      19.316  19.359  28.141  1.00  0.00     0.176 C 
HETATM   22  N5  UNL     1      18.492  19.119  29.292  1.00  0.00    -0.346 N 
ATOM     23  H5  UNL     1      17.601  18.674  29.073  1.00  0.00     0.163 HD
HETATM   24  C25 UNL     1      18.671  19.376  30.640  1.00  0.00     0.241 C 
HETATM   25  O6  UNL     1      17.729  20.063  31.202  1.00  0.00    -0.271 OA
ENDROOT
BRANCH  21  26
HETATM   26  C21 UNL     1      20.043  20.654  28.143  1.00  0.00     0.035 C 
BRANCH  26  27
HETATM   27  C22 UNL     1      19.165  21.738  27.580  1.00  0.00     0.004 C 
BRANCH  27  28
HETATM   28  C23 UNL     1      19.840  23.027  27.265  1.00  0.00     0.027 C 
BRANCH  28  29
HETATM   29  C24 UNL     1      19.431  23.367  25.817  1.00  0.00     0.229 C 
BRANCH  29  30
HETATM   30  N4  UNL     1      19.537  24.778  25.576  1.00  0.00    -0.079 N 
ATOM     31  H43 UNL     1      20.240  25.212  26.175  1.00  0.00     0.274 HD
ATOM     32  H42 UNL     1      19.965  24.976  24.671  1.00  0.00     0.274 HD
ATOM     33  H41 UNL     1      18.629  25.231  25.671  1.00  0.00     0.274 HD
ENDBRANCH  29  30
ENDBRANCH  28  29
ENDBRANCH  27  28
ENDBRANCH  26  27
ENDBRANCH  21  26
BRANCH   1  34
HETATM   34  C4  UNL     1      19.972  20.158  32.548  1.00  0.00     0.035 C 
BRANCH  34  35
HETATM   35  C3  UNL     1      20.832  21.246  32.027  1.00  0.00     0.002 C 
BRANCH  35  36
HETATM   36  C2  UNL     1      20.062  22.547  32.167  1.00  0.00    -0.004 C 
HETATM   37  C1  UNL     1      20.176  23.406  30.944  1.00  0.00     0.005 C 
ENDBRANCH  35  36
ENDBRANCH  34  35
ENDBRANCH   1  34
BRANCH  13  38
HETATM   38  C16 UNL     1      20.547  13.595  27.752  1.00  0.00     0.177 C 
BRANCH  38  39
HETATM   39  O3  UNL     1      21.279  14.155  26.677  1.00  0.00    -0.400 OA
ATOM     40  H3  UNL     1      21.477  15.062  26.875  1.00  0.00     0.209 HD
ENDBRANCH  38  39
ENDBRANCH  13  38
BRANCH  12  41
HETATM   41  C11 UNL     1      17.366  12.241  28.456  1.00  0.00     0.018 C 
BRANCH  41  42
HETATM   42  C12 UNL     1      16.916  11.470  29.617  1.00  0.00    -0.022 C 
HETATM   43  C13 UNL     1      18.218  10.979  30.306  1.00  0.00     0.009 C 
HETATM   44  C14 UNL     1      16.197  10.183  29.283  1.00  0.00     0.009 C 
ENDBRANCH  41  42
ENDBRANCH  12  41
TORSDOF 12
ENDMDL
MODEL 3
REMARK VINA RESULT: -6.597857025      4.522      7.849
REMARK  12 active torsions:
REMARK  status: ('A' for Active; 'I' for Inactive)
REMARK    1  A    between atoms: C2_2  and  C3_3 
REMARK    2  A    between atoms: C3_3  and  C4_4 
REMARK    3  A    between atoms: C4_4  and  C5_5 
REMARK    4  A    between atoms: C10_16  and  C11_17 
REMARK    5  A    between atoms: C11_17  and  C12_18 
REMARK    6  A    between atoms: C15_21  and  C16_22 
REMARK    7  A    between atoms: C16_22  and  O3_23 
REMARK    8  A    between atoms: C20_32  and  C21_33 
REMARK    9  A    between atoms: C21_33  and  C22_34 
REMARK   10  A    between atoms: C22_34  and  C23_35 
REMARK   11  A    between atoms: C23_35  and  C24_36 
REMARK   12  A    between atoms: C24_36  and  N4_37 
ROOT
HETATM    1  C5  UNL     1      19.039  18.418  27.954  1.00  0.00     0.176 C 
HETATM    2  N1  UNL     1      20.450  18.345  27.688  1.00  0.00    -0.346 N 
ATOM      3  H1  UNL     1      20.859  19.212  27.339  1.00  0.00     0.163 HD
HETATM    4  C6  UNL     1      21.358  17.293  27.823  1.00  0.00     0.240 C 
HETATM    5  O1  UNL     1      22.346  17.428  28.598  1.00  0.00    -0.271 OA
HETATM    6  C7  UNL     1      21.331  15.964  27.149  1.00  0.00     0.172 C 
HETATM    7  C8  UNL     1      22.224  16.060  25.896  1.00  0.00     0.042 C 
HETATM    8  N2  UNL     1      21.894  14.932  27.977  1.00  0.00    -0.348 N 
ATOM      9  H2  UNL     1      22.460  15.247  28.765  1.00  0.00     0.163 HD
HETATM   10  C9  UNL     1      21.759  13.548  27.832  1.00  0.00     0.223 C 
HETATM   11  O2  UNL     1      21.558  12.861  28.895  1.00  0.00    -0.273 OA
HETATM   12  C10 UNL     1      21.823  12.757  26.583  1.00  0.00     0.091 C 
HETATM   13  C15 UNL     1      20.613  12.181  26.037  1.00  0.00     0.093 C 
HETATM   14  C17 UNL     1      19.303  12.236  26.642  1.00  0.00     0.151 C 
HETATM   15  O4  UNL     1      18.630  11.196  26.432  1.00  0.00    -0.296 OA
HETATM   16  C18 UNL     1      18.557  13.193  27.440  1.00  0.00     0.201 C 
HETATM   17  N3  UNL     1      17.599  13.967  26.631  1.00  0.00    -0.352 N 
ATOM     18  H3  UNL     1      17.247  13.539  25.776  1.00  0.00     0.162 HD
HETATM   19  C19 UNL     1      17.138  15.254  26.955  1.00  0.00     0.240 C 
HETATM   20  O5  UNL     1      16.939  16.083  25.994  1.00  0.00    -0.271 OA
HETATM   21  C20 UNL     1      16.851  15.761  28.320  1.00  0.00     0.176 C 
HETATM   22  N5  UNL     1      17.990  16.293  29.012  1.00  0.00    -0.346 N 
ATOM     23  H5  UNL     1      18.470  15.610  29.598  1.00  0.00     0.163 HD
HETATM   24  C25 UNL     1      18.563  17.552  29.039  1.00  0.00     0.241 C 
HETATM   25  O6  UNL     1      18.711  18.067  30.218  1.00  0.00    -0.271 OA
ENDROOT
BRANCH  21  26
HETATM   26  C21 UNL     1      15.675  16.667  28.246  1.00  0.00     0.035 C 
BRANCH  26  27
HETATM   27  C22 UNL     1      14.407  15.859  28.187  1.00  0.00     0.004 C 
BRANCH  27  28
HETATM   28  C23 UNL     1      13.230  16.539  27.580  1.00  0.00     0.027 C 
BRANCH  28  29
HETATM   29  C24 UNL     1      13.702  17.026  26.195  1.00  0.00     0.229 C 
BRANCH  29  30
HETATM   30  N4  UNL     1      13.880  15.918  25.299  1.00  0.00    -0.079 N 
ATOM     31  H43 UNL     1      14.833  15.556  25.331  1.00  0.00     0.274 HD
ATOM     32  H42 UNL     1      13.389  15.085  25.625  1.00  0.00     0.274 HD
ATOM     33  H41 UNL     1      13.604  16.171  24.351  1.00  0.00     0.274 HD
ENDBRANCH  29  30
ENDBRANCH  28  29
ENDBRANCH  27  28
ENDBRANCH  26  27
ENDBRANCH  21  26
BRANCH   1  34
HETATM   34  C4  UNL     1      18.730  19.879  28.327  1.00  0.00     0.035 C 
BRANCH  34  35
HETATM   35  C3  UNL     1      19.805  20.834  27.972  1.00  0.00     0.002 C 
BRANCH  35  36
HETATM   36  C2  UNL     1      19.179  22.212  27.866  1.00  0.00    -0.004 C 
HETATM   37  C1  UNL     1      19.548  22.905  26.588  1.00  0.00     0.005 C 
ENDBRANCH  35  36
ENDBRANCH  34  35
ENDBRANCH   1  34
BRANCH  13  38
HETATM   38  C16 UNL     1      20.398  12.810  24.632  1.00  0.00     0.177 C 
BRANCH  38  39
HETATM   39  O3  UNL     1      19.081  12.527  24.196  1.00  0.00    -0.400 OA
ATOM     40  H3  UNL     1      18.632  13.345  24.016  1.00  0.00     0.209 HD
ENDBRANCH  38  39
ENDBRANCH  13  38
BRANCH  12  41
HETATM   41  C11 UNL     1      22.840  11.674  26.912  1.00  0.00     0.018 C 
BRANCH  41  42
HETATM   42  C12 UNL     1      24.138  11.703  26.234  1.00  0.00    -0.022 C 
HETATM   43  C13 UNL     1      25.177  11.963  27.358  1.00  0.00     0.009 C 
HETATM   44  C14 UNL     1      24.339  12.876  25.301  1.00  0.00     0.009 C 
ENDBRANCH  41  42
ENDBRANCH  12  41
TORSDOF 12
ENDMDL
MODEL 4
REMARK VINA RESULT: -6.594483778      2.776      6.085
REMARK  12 active torsions:
REMARK  status: ('A' for Active; 'I' for Inactive)
REMARK    1  A    between atoms: C2_2  and  C3_3 
REMARK    2  A    between atoms: C3_3  and  C4_4 
REMARK    3  A    between atoms: C4_4  and  C5_5 
REMARK    4  A    between atoms: C10_16  and  C11_17 
REMARK    5  A    between atoms: C11_17  and  C12_18 
REMARK    6  A    between atoms: C15_21  and  C16_22 
REMARK    7  A    between atoms: C16_22  and  O3_23 
REMARK    8  A    between atoms: C20_32  and  C21_33 
REMARK    9  A    between atoms: C21_33  and  C22_34 
REMARK   10  A    between atoms: C22_34  and  C23_35 
REMARK   11  A    between atoms: C23_35  and  C24_36 
REMARK   12  A    between atoms: C24_36  and  N4_37 
ROOT
HETATM    1  C5  UNL     1      18.633  14.114  28.114  1.00  0.00     0.176 C 
HETATM    2  N1  UNL     1      18.793  15.345  27.388  1.00  0.00    -0.346 N 
ATOM      3  H1  UNL     1      19.124  15.229  26.430  1.00  0.00     0.163 HD
HETATM    4  C6  UNL     1      18.574  16.671  27.766  1.00  0.00     0.240 C 
HETATM    5  O1  UNL     1      17.730  17.362  27.129  1.00  0.00    -0.271 OA
HETATM    6  C7  UNL     1      19.226  17.431  28.869  1.00  0.00     0.172 C 
HETATM    7  C8  UNL     1      20.411  18.208  28.261  1.00  0.00     0.042 C 
HETATM    8  N2  UNL     1      18.341  18.412  29.440  1.00  0.00    -0.348 N 
ATOM      9  H2  UNL     1      17.519  18.651  28.886  1.00  0.00     0.163 HD
HETATM   10  C9  UNL     1      18.474  19.076  30.663  1.00  0.00     0.223 C 
HETATM   11  O2  UNL     1      17.417  19.214  31.375  1.00  0.00    -0.273 OA
HETATM   12  C10 UNL     1      19.701  19.655  31.253  1.00  0.00     0.091 C 
HETATM   13  C15 UNL     1      20.326  19.008  32.386  1.00  0.00     0.093 C 
HETATM   14  C17 UNL     1      19.820  17.848  33.081  1.00  0.00     0.151 C 
HETATM   15  O4  UNL     1      20.062  17.879  34.314  1.00  0.00    -0.296 OA
HETATM   16  C18 UNL     1      19.096  16.642  32.719  1.00  0.00     0.201 C 
HETATM   17  N3  UNL     1      19.985  15.476  32.581  1.00  0.00    -0.352 N 
ATOM     18  H3  UNL     1      20.857  15.481  33.110  1.00  0.00     0.162 HD
HETATM   19  C19 UNL     1      19.718  14.358  31.774  1.00  0.00     0.240 C 
HETATM   20  O5  UNL     1      20.704  13.803  31.167  1.00  0.00    -0.271 OA
HETATM   21  C20 UNL     1      18.386  13.743  31.548  1.00  0.00     0.176 C 
HETATM   22  N5  UNL     1      17.620  14.345  30.494  1.00  0.00    -0.346 N 
ATOM     23  H5  UNL     1      16.989  15.080  30.813  1.00  0.00     0.163 HD
HETATM   24  C25 UNL     1      17.572  14.122  29.128  1.00  0.00     0.241 C 
HETATM   25  O6  UNL     1      16.394  13.877  28.650  1.00  0.00    -0.271 OA
ENDROOT
BRANCH  21  26
HETATM   26  C21 UNL     1      18.561  12.271  31.441  1.00  0.00     0.035 C 
BRANCH  26  27
HETATM   27  C22 UNL     1      17.407  11.567  32.102  1.00  0.00     0.004 C 
BRANCH  27  28
HETATM   28  C23 UNL     1      16.344  11.064  31.190  1.00  0.00     0.027 C 
BRANCH  28  29
HETATM   29  C24 UNL     1      17.079  10.574  29.926  1.00  0.00     0.229 C 
BRANCH  29  30
HETATM   30  N4  UNL     1      16.235  10.690  28.769  1.00  0.00    -0.079 N 
ATOM     31  H43 UNL     1      15.846   9.788  28.494  1.00  0.00     0.274 HD
ATOM     32  H42 UNL     1      15.363  11.174  28.985  1.00  0.00     0.274 HD
ATOM     33  H41 UNL     1      16.734  11.136  28.001  1.00  0.00     0.274 HD
ENDBRANCH  29  30
ENDBRANCH  28  29
ENDBRANCH  27  28
ENDBRANCH  26  27
ENDBRANCH  21  26
BRANCH   1  34
HETATM   34  C4  UNL     1      18.307  13.024  27.079  1.00  0.00     0.035 C 
BRANCH  34  35
HETATM   35  C3  UNL     1      19.368  12.001  26.925  1.00  0.00     0.002 C 
BRANCH  35  36
HETATM   36  C2  UNL     1      19.479  11.673  25.448  1.00  0.00    -0.004 C 
HETATM   37  C1  UNL     1      19.527  12.906  24.595  1.00  0.00     0.005 C 
ENDBRANCH  35  36
ENDBRANCH  34  35
ENDBRANCH   1  34
BRANCH  13  38
HETATM   38  C16 UNL     1      21.752  18.581  31.943  1.00  0.00     0.177 C 
BRANCH  38  39
HETATM   39  O3  UNL     1      22.694  19.502  32.464  1.00  0.00    -0.400 OA
ATOM     40  H3  UNL     1      23.570  19.163  32.325  1.00  0.00     0.209 HD
ENDBRANCH  38  39
ENDBRANCH  13  38
BRANCH  12  41
HETATM   41  C11 UNL     1      19.280  21.075  31.601  1.00  0.00     0.018 C 
BRANCH  41  42
HETATM   42  C12 UNL     1      20.321  22.057  31.914  1.00  0.00    -0.022 C 
HETATM   43  C13 UNL     1      19.928  22.636  33.300  1.00  0.00     0.009 C 
HETATM   44  C14 UNL     1      20.329  23.277  31.021  1.00  0.00     0.009 C 
ENDBRANCH  41  42
ENDBRANCH  12  41
TORSDOF 12
ENDMDL
MODEL 5
REMARK VINA RESULT: -6.510480386      3.562      6.510
REMARK  12 active torsions:
REMARK  status: ('A' for Active; 'I' for Inactive)
REMARK    1  A    between atoms: C2_2  and  C3_3 
REMARK    2  A    between atoms: C3_3  and  C4_4 
REMARK    3  A    between atoms: C4_4  and  C5_5 
REMARK    4  A    between atoms: C10_16  and  C11_17 
REMARK    5  A    between atoms: C11_17  and  C12_18 
REMARK    6  A    between atoms: C15_21  and  C16_22 
REMARK    7  A    between atoms: C16_22  and  O3_23 
REMARK    8  A    between atoms: C20_32  and  C21_33 
REMARK    9  A    between atoms: C21_33  and  C22_34 
REMARK   10  A    between atoms: C22_34  and  C23_35 
REMARK   11  A    between atoms: C23_35  and  C24_36 
REMARK   12  A    between atoms: C24_36  and  N4_37 
ROOT
HETATM    1  C5  UNL     1      21.035  14.223  27.025  1.00  0.00     0.176 C 
HETATM    2  N1  UNL     1      21.863  14.322  28.197  1.00  0.00    -0.346 N 
ATOM      3  H1  UNL     1      22.261  13.435  28.507  1.00  0.00     0.163 HD
HETATM    4  C6  UNL     1      22.217  15.419  28.983  1.00  0.00     0.240 C 
HETATM    5  O1  UNL     1      23.437  15.726  29.100  1.00  0.00    -0.271 OA
HETATM    6  C7  UNL     1      21.317  16.331  29.746  1.00  0.00     0.172 C 
HETATM    7  C8  UNL     1      21.247  15.808  31.195  1.00  0.00     0.042 C 
HETATM    8  N2  UNL     1      21.844  17.668  29.816  1.00  0.00    -0.348 N 
ATOM      9  H2  UNL     1      22.833  17.773  29.591  1.00  0.00     0.163 HD
HETATM   10  C9  UNL     1      21.162  18.840  30.157  1.00  0.00     0.223 C 
HETATM   11  O2  UNL     1      21.404  19.885  29.457  1.00  0.00    -0.273 OA
HETATM   12  C10 UNL     1      20.179  19.034  31.246  1.00  0.00     0.091 C 
HETATM   13  C15 UNL     1      18.778  19.198  30.926  1.00  0.00     0.093 C 
HETATM   14  C17 UNL     1      18.218  19.270  29.597  1.00  0.00     0.151 C 
HETATM   15  O4  UNL     1      17.235  20.050  29.528  1.00  0.00    -0.296 OA
HETATM   16  C18 UNL     1      18.502  18.667  28.307  1.00  0.00     0.201 C 
HETATM   17  N3  UNL     1      17.611  17.530  28.014  1.00  0.00    -0.352 N 
ATOM     18  H3  UNL     1      16.694  17.520  28.459  1.00  0.00     0.162 HD
HETATM   19  C19 UNL     1      17.935  16.459  27.164  1.00  0.00     0.240 C 
HETATM   20  O5  UNL     1      17.519  15.288  27.485  1.00  0.00    -0.271 OA
HETATM   21  C20 UNL     1      18.725  16.548  25.910  1.00  0.00     0.176 C 
HETATM   22  N5  UNL     1      20.147  16.477  26.093  1.00  0.00    -0.346 N 
ATOM     23  H5  UNL     1      20.595  17.388  26.187  1.00  0.00     0.163 HD
HETATM   24  C25 UNL     1      21.027  15.411  26.165  1.00  0.00     0.241 C 
HETATM   25  O6  UNL     1      22.021  15.459  25.336  1.00  0.00    -0.271 OA
ENDROOT
BRANCH  21  26
HETATM   26  C21 UNL     1      18.163  15.580  24.933  1.00  0.00     0.035 C 
BRANCH  26  27
HETATM   27  C22 UNL     1      17.351  16.309  23.896  1.00  0.00     0.004 C 
BRANCH  27  28
HETATM   28  C23 UNL     1      15.988  15.769  23.639  1.00  0.00     0.027 C 
BRANCH  28  29
HETATM   29  C24 UNL     1      15.139  16.190  24.856  1.00  0.00     0.229 C 
BRANCH  29  30
HETATM   30  N4  UNL     1      14.798  15.048  25.658  1.00  0.00    -0.079 N 
ATOM     31  H43 UNL     1      13.811  14.805  25.569  1.00  0.00     0.274 HD
ATOM     32  H42 UNL     1      15.202  14.189  25.284  1.00  0.00     0.274 HD
ATOM     33  H41 UNL     1      15.064  15.198  26.631  1.00  0.00     0.274 HD
ENDBRANCH  29  30
ENDBRANCH  28  29
ENDBRANCH  27  28
ENDBRANCH  26  27
ENDBRANCH  21  26
BRANCH   1  34
HETATM   34  C4  UNL     1      21.561  13.032  26.205  1.00  0.00     0.035 C 
BRANCH  34  35
HETATM   35  C3  UNL     1      20.899  11.745  26.516  1.00  0.00     0.002 C 
BRANCH  35  36
HETATM   36  C2  UNL     1      19.473  11.825  26.004  1.00  0.00    -0.004 C 
HETATM   37  C1  UNL     1      19.413  12.193  24.552  1.00  0.00     0.005 C 
ENDBRANCH  35  36
ENDBRANCH  34  35
ENDBRANCH   1  34
BRANCH  13  38
HETATM   38  C16 UNL     1      18.014  18.019  31.587  1.00  0.00     0.177 C 
BRANCH  38  39
HETATM   39  O3  UNL     1      16.715  18.453  31.948  1.00  0.00    -0.400 OA
ATOM     40  H3  UNL     1      16.309  17.795  32.499  1.00  0.00     0.209 HD
ENDBRANCH  38  39
ENDBRANCH  13  38
BRANCH  12  41
HETATM   41  C11 UNL     1      20.716  20.252  31.983  1.00  0.00     0.018 C 
BRANCH  41  42
HETATM   42  C12 UNL     1      19.826  21.398  32.183  1.00  0.00    -0.022 C 
HETATM   43  C13 UNL     1      20.317  22.474  31.176  1.00  0.00     0.009 C 
HETATM   44  C14 UNL     1      19.971  22.087  33.521  1.00  0.00     0.009 C 
ENDBRANCH  41  42
ENDBRANCH  12  41
TORSDOF 12
ENDMDL
