MODEL 1
REMARK VINA RESULT: -8.600745218      0.000      0.000
REMARK  5 active torsions:
REMARK  status: ('A' for Active; 'I' for Inactive)
REMARK    1  A    between atoms: S1_2  and  C2_3 
REMARK    2  A    between atoms: C5_9  and  N2_10 
REMARK    3  A    between atoms: N2_10  and  N3_12 
REMARK    4  A    between atoms: C7_17  and  N5_18 
REMARK       I    between atoms: N6_21  and  C8_22 
REMARK    5  A    between atoms: N10_29  and  N11_30 
ROOT
HETATM    1  N3  UNL     1      24.660  41.826  18.116  1.00  0.00    -0.282 N 
ATOM      2  H3  UNL     1      23.900  41.605  18.760  1.00  0.00     0.188 HD
HETATM    3  C6  UNL     1      25.589  42.580  18.543  1.00  0.00     0.163 A 
HETATM    4  N4  UNL     1      25.520  43.051  19.835  1.00  0.00    -0.173 N 
ATOM      5  H4  UNL     1      24.727  42.778  20.416  1.00  0.00     0.186 HD
HETATM    6  C7  UNL     1      26.449  43.847  20.354  1.00  0.00     0.689 A 
HETATM    7  N6  UNL     1      27.526  44.245  19.633  1.00  0.00    -0.084 N 
HETATM    8  C8  UNL     1      28.508  45.100  20.221  1.00  0.00     0.355 C 
HETATM    9  N7  UNL     1      29.647  45.547  19.521  1.00  0.00    -0.039 NA
HETATM   10  O2  UNL     1      28.332  45.457  21.408  1.00  0.00    -0.249 OA
HETATM   11  C9  UNL     1      27.662  43.829  18.367  1.00  0.00     0.172 A 
HETATM   12  N8  UNL     1      28.769  44.218  17.576  1.00  0.00    -0.079 NA
HETATM   13  C10 UNL     1      26.683  42.991  17.826  1.00  0.00     0.134 A 
HETATM   14  N9  UNL     1      26.819  42.548  16.473  1.00  0.00    -0.095 NA
ENDROOT
BRANCH   1  15
HETATM   15  N2  UNL     1      24.598  41.292  16.868  1.00  0.00    -0.282 N 
ATOM     16  H2  UNL     1      24.864  41.896  16.091  1.00  0.00     0.188 HD
BRANCH  15  17
HETATM   17  C5  UNL     1      24.191  39.951  16.541  1.00  0.00     0.148 A 
HETATM   18  C4  UNL     1      23.193  39.325  17.266  1.00  0.00     0.126 A 
HETATM   19  C3  UNL     1      22.822  38.058  16.933  1.00  0.00     0.251 A 
HETATM   20  N1  UNL     1      23.415  37.426  15.916  1.00  0.00    -0.302 N 
HETATM   21  O1  UNL     1      21.922  37.467  17.569  1.00  0.00    -0.268 OA
HETATM   22  C2  UNL     1      24.405  38.032  15.187  1.00  0.00     0.169 A 
ATOM     23  H1  UNL     1      23.127  36.478  15.678  1.00  0.00     0.171 HD
HETATM   24  N10 UNL     1      24.752  39.256  15.523  1.00  0.00    -0.222 N 
BRANCH  22  25
HETATM   25  S1  UNL     1      25.129  37.138  13.869  1.00  0.00    -0.096 SA
HETATM   26  C1  UNL     1      24.627  37.570  12.225  1.00  0.00     0.099 C 
ENDBRANCH  22  25
BRANCH  24  27
HETATM   27  N11 UNL     1      25.755  39.913  14.822  1.00  0.00    -0.335 N 
ATOM     28 2H11 UNL     1      26.624  40.068  15.332  1.00  0.00     0.177 HD
ATOM     29 1H11 UNL     1      25.598  40.205  13.857  1.00  0.00     0.177 HD
ENDBRANCH  24  27
ENDBRANCH  15  17
ENDBRANCH   1  15
BRANCH   6  30
HETATM   30  N5  UNL     1      26.344  44.271  21.592  1.00  0.00    -0.234 N 
ATOM     31  H52 UNL     1      25.709  45.046  21.781  1.00  0.00     0.174 HD
ATOM     32  H51 UNL     1      26.887  43.832  22.336  1.00  0.00     0.174 HD
ENDBRANCH   6  30
TORSDOF 5
ENDMDL
MODEL 2
REMARK VINA RESULT: -8.545064716      2.262      2.779
REMARK  5 active torsions:
REMARK  status: ('A' for Active; 'I' for Inactive)
REMARK    1  A    between atoms: S1_2  and  C2_3 
REMARK    2  A    between atoms: C5_9  and  N2_10 
REMARK    3  A    between atoms: N2_10  and  N3_12 
REMARK    4  A    between atoms: C7_17  and  N5_18 
REMARK       I    between atoms: N6_21  and  C8_22 
REMARK    5  A    between atoms: N10_29  and  N11_30 
ROOT
HETATM    1  N3  UNL     1      24.890  42.358  19.573  1.00  0.00    -0.282 N 
ATOM      2  H3  UNL     1      24.882  41.694  20.347  1.00  0.00     0.188 HD
HETATM    3  C6  UNL     1      25.708  43.328  19.641  1.00  0.00     0.163 A 
HETATM    4  N4  UNL     1      26.528  43.428  20.743  1.00  0.00    -0.173 N 
ATOM      5  H4  UNL     1      26.460  42.718  21.472  1.00  0.00     0.186 HD
HETATM    6  C7  UNL     1      27.406  44.415  20.891  1.00  0.00     0.689 A 
HETATM    7  N6  UNL     1      27.543  45.388  19.957  1.00  0.00    -0.084 N 
HETATM    8  C8  UNL     1      28.497  46.434  20.146  1.00  0.00     0.355 C 
HETATM    9  N7  UNL     1      28.685  47.473  19.211  1.00  0.00    -0.039 NA
HETATM   10  O2  UNL     1      29.186  46.411  21.191  1.00  0.00    -0.249 OA
HETATM   11  C9  UNL     1      26.779  45.360  18.858  1.00  0.00     0.172 A 
HETATM   12  N8  UNL     1      26.887  46.353  17.856  1.00  0.00    -0.079 NA
HETATM   13  C10 UNL     1      25.858  44.319  18.706  1.00  0.00     0.134 A 
HETATM   14  N9  UNL     1      25.035  44.285  17.537  1.00  0.00    -0.095 NA
ENDROOT
BRANCH   1  15
HETATM   15  N2  UNL     1      24.025  42.136  18.549  1.00  0.00    -0.282 N 
ATOM     16  H2  UNL     1      23.292  42.829  18.402  1.00  0.00     0.188 HD
BRANCH  15  17
HETATM   17  C5  UNL     1      24.047  41.012  17.651  1.00  0.00     0.148 A 
HETATM   18  C4  UNL     1      24.965  40.957  16.619  1.00  0.00     0.126 A 
HETATM   19  C3  UNL     1      24.971  39.879  15.787  1.00  0.00     0.251 A 
HETATM   20  N1  UNL     1      24.098  38.883  15.968  1.00  0.00    -0.302 N 
HETATM   21  O1  UNL     1      25.790  39.801  14.845  1.00  0.00    -0.268 OA
HETATM   22  C2  UNL     1      23.182  38.920  16.986  1.00  0.00     0.169 A 
ATOM     23  H1  UNL     1      24.114  38.082  15.337  1.00  0.00     0.171 HD
HETATM   24  N10 UNL     1      23.191  39.970  17.780  1.00  0.00    -0.222 N 
BRANCH  22  25
HETATM   25  S1  UNL     1      22.076  37.575  17.157  1.00  0.00    -0.096 SA
HETATM   26  C1  UNL     1      22.739  35.948  16.927  1.00  0.00     0.099 C 
ENDBRANCH  22  25
BRANCH  24  27
HETATM   27  N11 UNL     1      22.279  40.062  18.823  1.00  0.00    -0.335 N 
ATOM     28 2H11 UNL     1      21.318  39.807  18.597  1.00  0.00     0.177 HD
ATOM     29 1H11 UNL     1      22.588  40.366  19.747  1.00  0.00     0.177 HD
ENDBRANCH  24  27
ENDBRANCH  15  17
ENDBRANCH   1  15
BRANCH   6  30
HETATM   30  N5  UNL     1      28.169  44.470  21.958  1.00  0.00    -0.234 N 
ATOM     31  H52 UNL     1      28.900  43.767  22.061  1.00  0.00     0.174 HD
ATOM     32  H51 UNL     1      28.026  45.199  22.657  1.00  0.00     0.174 HD
ENDBRANCH   6  30
TORSDOF 5
ENDMDL
MODEL 3
REMARK VINA RESULT: -8.450817044      2.435      3.235
REMARK  5 active torsions:
REMARK  status: ('A' for Active; 'I' for Inactive)
REMARK    1  A    between atoms: S1_2  and  C2_3 
REMARK    2  A    between atoms: C5_9  and  N2_10 
REMARK    3  A    between atoms: N2_10  and  N3_12 
REMARK    4  A    between atoms: C7_17  and  N5_18 
REMARK       I    between atoms: N6_21  and  C8_22 
REMARK    5  A    between atoms: N10_29  and  N11_30 
ROOT
HETATM    1  N3  UNL     1      24.233  43.872  17.952  1.00  0.00    -0.282 N 
ATOM      2  H3  UNL     1      23.823  44.394  17.178  1.00  0.00     0.188 HD
HETATM    3  C6  UNL     1      25.226  44.394  18.549  1.00  0.00     0.163 A 
HETATM    4  N4  UNL     1      25.688  45.619  18.122  1.00  0.00    -0.173 N 
ATOM      5  H4  UNL     1      25.218  46.076  17.341  1.00  0.00     0.186 HD
HETATM    6  C7  UNL     1      26.724  46.227  18.689  1.00  0.00     0.689 A 
HETATM    7  N6  UNL     1      27.391  45.670  19.730  1.00  0.00    -0.084 N 
HETATM    8  C8  UNL     1      28.500  46.350  20.319  1.00  0.00     0.355 C 
HETATM    9  N7  UNL     1      29.232  45.821  21.402  1.00  0.00    -0.039 NA
HETATM   10  O2  UNL     1      28.821  47.461  19.841  1.00  0.00    -0.249 OA
HETATM   11  C9  UNL     1      27.001  44.478  20.201  1.00  0.00     0.172 A 
HETATM   12  N8  UNL     1      27.666  43.857  21.285  1.00  0.00    -0.079 NA
HETATM   13  C10 UNL     1      25.910  43.842  19.602  1.00  0.00     0.134 A 
HETATM   14  N9  UNL     1      25.491  42.567  20.095  1.00  0.00    -0.095 NA
ENDROOT
BRANCH   1  15
HETATM   15  N2  UNL     1      23.673  42.674  18.265  1.00  0.00    -0.282 N 
ATOM     16  H2  UNL     1      23.059  42.648  19.078  1.00  0.00     0.188 HD
BRANCH  15  17
HETATM   17  C5  UNL     1      23.869  41.438  17.555  1.00  0.00     0.148 A 
HETATM   18  C4  UNL     1      24.943  41.285  16.698  1.00  0.00     0.126 A 
HETATM   19  C3  UNL     1      25.110  40.103  16.042  1.00  0.00     0.251 A 
HETATM   20  N1  UNL     1      24.244  39.102  16.226  1.00  0.00    -0.302 N 
HETATM   21  O1  UNL     1      26.072  39.934  15.261  1.00  0.00    -0.268 OA
HETATM   22  C2  UNL     1      23.175  39.236  17.072  1.00  0.00     0.169 A 
ATOM     23  H1  UNL     1      24.382  38.222  15.728  1.00  0.00     0.171 HD
HETATM   24  N10 UNL     1      23.029  40.385  17.697  1.00  0.00    -0.222 N 
BRANCH  22  25
HETATM   25  S1  UNL     1      22.090  37.877  17.260  1.00  0.00    -0.096 SA
HETATM   26  C1  UNL     1      22.752  36.263  16.951  1.00  0.00     0.099 C 
ENDBRANCH  22  25
BRANCH  24  27
HETATM   27  N11 UNL     1      21.958  40.578  18.560  1.00  0.00    -0.335 N 
ATOM     28 2H11 UNL     1      21.128  41.004  18.149  1.00  0.00     0.177 HD
ATOM     29 1H11 UNL     1      22.032  40.294  19.538  1.00  0.00     0.177 HD
ENDBRANCH  24  27
ENDBRANCH  15  17
ENDBRANCH   1  15
BRANCH   6  30
HETATM   30  N5  UNL     1      27.131  47.395  18.251  1.00  0.00    -0.234 N 
ATOM     31  H52 UNL     1      26.799  47.707  17.338  1.00  0.00     0.174 HD
ATOM     32  H51 UNL     1      27.760  47.968  18.813  1.00  0.00     0.174 HD
ENDBRANCH   6  30
TORSDOF 5
ENDMDL
MODEL 4
REMARK VINA RESULT: -8.281298570      3.199      7.915
REMARK  5 active torsions:
REMARK  status: ('A' for Active; 'I' for Inactive)
REMARK    1  A    between atoms: S1_2  and  C2_3 
REMARK    2  A    between atoms: C5_9  and  N2_10 
REMARK    3  A    between atoms: N2_10  and  N3_12 
REMARK    4  A    between atoms: C7_17  and  N5_18 
REMARK       I    between atoms: N6_21  and  C8_22 
REMARK    5  A    between atoms: N10_29  and  N11_30 
ROOT
HETATM    1  N3  UNL     1      24.636  43.652  18.470  1.00  0.00    -0.282 N 
ATOM      2  H3  UNL     1      23.991  44.012  19.173  1.00  0.00     0.188 HD
HETATM    3  C6  UNL     1      24.390  42.505  17.981  1.00  0.00     0.163 A 
HETATM    4  N4  UNL     1      23.279  41.820  18.423  1.00  0.00    -0.173 N 
ATOM      5  H4  UNL     1      22.682  42.254  19.127  1.00  0.00     0.186 HD
HETATM    6  C7  UNL     1      22.956  40.615  17.965  1.00  0.00     0.689 A 
HETATM    7  N6  UNL     1      23.710  39.986  17.030  1.00  0.00    -0.084 N 
HETATM    8  C8  UNL     1      23.335  38.692  16.557  1.00  0.00     0.355 C 
HETATM    9  N7  UNL     1      24.078  37.989  15.587  1.00  0.00    -0.039 NA
HETATM   10  O2  UNL     1      22.299  38.176  17.036  1.00  0.00    -0.249 OA
HETATM   11  C9  UNL     1      24.807  40.589  16.552  1.00  0.00     0.172 A 
HETATM   12  N8  UNL     1      25.623  39.972  15.575  1.00  0.00    -0.079 NA
HETATM   13  C10 UNL     1      25.142  41.856  17.036  1.00  0.00     0.134 A 
HETATM   14  N9  UNL     1      26.314  42.504  16.534  1.00  0.00    -0.095 NA
ENDROOT
BRANCH   1  15
HETATM   15  N2  UNL     1      25.692  44.437  18.129  1.00  0.00    -0.282 N 
ATOM     16  H2  UNL     1      25.803  44.659  17.140  1.00  0.00     0.188 HD
BRANCH  15  17
HETATM   17  C5  UNL     1      26.667  44.983  19.035  1.00  0.00     0.148 A 
HETATM   18  C4  UNL     1      27.033  44.287  20.172  1.00  0.00     0.126 A 
HETATM   19  C3  UNL     1      27.963  44.822  21.011  1.00  0.00     0.251 A 
HETATM   20  N1  UNL     1      28.517  46.008  20.736  1.00  0.00    -0.302 N 
HETATM   21  O1  UNL     1      28.316  44.217  22.047  1.00  0.00    -0.268 OA
HETATM   22  C2  UNL     1      28.166  46.710  19.613  1.00  0.00     0.169 A 
ATOM     23  H1  UNL     1      29.212  46.396  21.373  1.00  0.00     0.171 HD
HETATM   24  N10 UNL     1      27.265  46.178  18.814  1.00  0.00    -0.222 N 
BRANCH  22  25
HETATM   25  S1  UNL     1      28.939  48.253  19.324  1.00  0.00    -0.096 SA
HETATM   26  C1  UNL     1      30.695  48.332  19.545  1.00  0.00     0.099 C 
ENDBRANCH  22  25
BRANCH  24  27
HETATM   27  N11 UNL     1      26.867  46.850  17.666  1.00  0.00    -0.335 N 
ATOM     28 2H11 UNL     1      27.103  47.842  17.629  1.00  0.00     0.177 HD
ATOM     29 1H11 UNL     1      26.376  46.351  16.925  1.00  0.00     0.177 HD
ENDBRANCH  24  27
ENDBRANCH  15  17
ENDBRANCH   1  15
BRANCH   6  30
HETATM   30  N5  UNL     1      21.887  39.999  18.413  1.00  0.00    -0.234 N 
ATOM     31  H52 UNL     1      21.055  39.993  17.824  1.00  0.00     0.174 HD
ATOM     32  H51 UNL     1      21.899  39.543  19.326  1.00  0.00     0.174 HD
ENDBRANCH   6  30
TORSDOF 5
ENDMDL
MODEL 5
REMARK VINA RESULT: -8.259324977      5.532      9.550
REMARK  5 active torsions:
REMARK  status: ('A' for Active; 'I' for Inactive)
REMARK    1  A    between atoms: S1_2  and  C2_3 
REMARK    2  A    between atoms: C5_9  and  N2_10 
REMARK    3  A    between atoms: N2_10  and  N3_12 
REMARK    4  A    between atoms: C7_17  and  N5_18 
REMARK       I    between atoms: N6_21  and  C8_22 
REMARK    5  A    between atoms: N10_29  and  N11_30 
ROOT
HETATM    1  N3  UNL     1      29.476  44.003  22.274  1.00  0.00    -0.282 N 
ATOM      2  H3  UNL     1      29.165  44.201  23.224  1.00  0.00     0.188 HD
HETATM    3  C6  UNL     1      28.623  44.126  21.340  1.00  0.00     0.163 A 
HETATM    4  N4  UNL     1      27.341  44.516  21.660  1.00  0.00    -0.173 N 
ATOM      5  H4  UNL     1      27.113  44.700  22.637  1.00  0.00     0.186 HD
HETATM    6  C7  UNL     1      26.391  44.662  20.742  1.00  0.00     0.689 A 
HETATM    7  N6  UNL     1      26.633  44.433  19.428  1.00  0.00    -0.084 N 
HETATM    8  C8  UNL     1      25.590  44.600  18.466  1.00  0.00     0.355 C 
HETATM    9  N7  UNL     1      25.780  44.376  17.088  1.00  0.00    -0.039 NA
HETATM   10  O2  UNL     1      24.467  44.963  18.885  1.00  0.00    -0.249 OA
HETATM   11  C9  UNL     1      27.856  44.048  19.039  1.00  0.00     0.172 A 
HETATM   12  N8  UNL     1      28.155  43.797  17.679  1.00  0.00    -0.079 NA
HETATM   13  C10 UNL     1      28.852  43.897  20.008  1.00  0.00     0.134 A 
HETATM   14  N9  UNL     1      30.158  43.482  19.601  1.00  0.00    -0.095 NA
ENDROOT
BRANCH   1  15
HETATM   15  N2  UNL     1      30.771  43.627  22.105  1.00  0.00    -0.282 N 
ATOM     16  H2  UNL     1      30.941  42.788  21.551  1.00  0.00     0.188 HD
BRANCH  15  17
HETATM   17  C5  UNL     1      31.924  44.303  22.637  1.00  0.00     0.148 A 
HETATM   18  C4  UNL     1      31.861  44.938  23.864  1.00  0.00     0.126 A 
HETATM   19  C3  UNL     1      32.968  45.565  24.348  1.00  0.00     0.251 A 
HETATM   20  N1  UNL     1      34.104  45.566  23.646  1.00  0.00    -0.302 N 
HETATM   21  O1  UNL     1      32.941  46.147  25.455  1.00  0.00    -0.268 OA
HETATM   22  C2  UNL     1      34.186  44.941  22.429  1.00  0.00     0.169 A 
ATOM     23  H1  UNL     1      34.926  46.040  24.021  1.00  0.00     0.171 HD
HETATM   24  N10 UNL     1      33.106  44.341  21.975  1.00  0.00    -0.222 N 
BRANCH  22  25
HETATM   25  S1  UNL     1      35.711  44.986  21.573  1.00  0.00    -0.096 SA
HETATM   26  C1  UNL     1      36.429  46.579  21.280  1.00  0.00     0.099 C 
ENDBRANCH  22  25
BRANCH  24  27
HETATM   27  N11 UNL     1      33.131  43.698  20.745  1.00  0.00    -0.335 N 
ATOM     28 2H11 UNL     1      32.234  43.345  20.410  1.00  0.00     0.177 HD
ATOM     29 1H11 UNL     1      34.008  43.608  20.233  1.00  0.00     0.177 HD
ENDBRANCH  24  27
ENDBRANCH  15  17
ENDBRANCH   1  15
BRANCH   6  30
HETATM   30  N5  UNL     1      25.183  45.038  21.092  1.00  0.00    -0.234 N 
ATOM     31  H52 UNL     1      25.092  45.736  21.829  1.00  0.00     0.174 HD
ATOM     32  H51 UNL     1      24.365  44.637  20.633  1.00  0.00     0.174 HD
ENDBRANCH   6  30
TORSDOF 5
ENDMDL
