MODEL 1
REMARK VINA RESULT: -9.740659123      0.000      0.000
REMARK  14 active torsions:
REMARK  status: ('A' for Active; 'I' for Inactive)
REMARK    1  A    between atoms: C2_2  and  N1_3 
REMARK    2  A    between atoms: C2_2  and  C38_53 
REMARK       I    between atoms: N1_3  and  C3_5 
REMARK    3  A    between atoms: C3_5  and  C4_7 
REMARK    4  A    between atoms: C4_7  and  C5_8 
REMARK    5  A    between atoms: C5_8  and  C6_9 
REMARK    6  A    between atoms: C7_10  and  C8_11 
REMARK    7  A    between atoms: N2_26  and  C23_28 
REMARK    8  A    between atoms: C23_28  and  C24_29 
REMARK    9  A    between atoms: C25_30  and  C26_31 
REMARK   10  A    between atoms: C26_31  and  S1_32 
REMARK   11  A    between atoms: S1_32  and  N3_35 
REMARK   12  A    between atoms: N3_35  and  C27_37 
REMARK   13  A    between atoms: C27_37  and  C28_38 
REMARK   14  A    between atoms: C28_38  and  N4_39 
ROOT
HETATM    1  C8  UNL     1      15.245  63.441  24.340  1.00  0.00    -0.008 A 
HETATM    2  C9  UNL     1      15.067  64.175  23.190  1.00  0.00     0.014 A 
HETATM    3  C10 UNL     1      14.029  65.100  23.065  1.00  0.00     0.015 A 
HETATM    4  C11 UNL     1      13.114  65.354  24.070  1.00  0.00     0.006 A 
HETATM    5  C12 UNL     1      13.305  64.609  25.197  1.00  0.00     0.028 A 
HETATM    6  C13 UNL     1      14.350  63.676  25.325  1.00  0.00     0.030 A 
HETATM    7  C14 UNL     1      12.316  64.681  26.258  1.00  0.00     0.194 A 
HETATM    8  O2  UNL     1      12.469  64.008  27.300  1.00  0.00    -0.287 OA
HETATM    9  C15 UNL     1      11.150  65.523  26.130  1.00  0.00     0.027 A 
HETATM   10  C16 UNL     1      10.221  65.552  27.174  1.00  0.00     0.016 A 
HETATM   11  C17 UNL     1       9.091  66.325  27.120  1.00  0.00     0.001 A 
HETATM   12  C18 UNL     1       8.874  67.087  26.008  1.00  0.00     0.001 A 
HETATM   13  C19 UNL     1       9.823  67.049  24.957  1.00  0.00     0.014 A 
HETATM   14  C20 UNL     1      10.949  66.289  24.997  1.00  0.00     0.005 A 
HETATM   15  C21 UNL     1      11.950  66.258  23.871  1.00  0.00     0.053 A 
HETATM   16  N2  UNL     1      12.023  67.242  23.080  1.00  0.00    -0.373 N 
HETATM   17  C22 UNL     1      13.274  67.592  22.359  1.00  0.00     0.150 C 
ENDROOT
BRANCH   1  18
HETATM   18  C7  UNL     1      16.344  62.457  24.383  1.00  0.00     0.050 A 
HETATM   19  C6  UNL     1      17.467  62.389  25.151  1.00  0.00    -0.018 A 
HETATM   20  C37 UNL     1      18.170  61.245  24.728  1.00  0.00    -0.001 A 
HETATM   21  C32 UNL     1      17.479  60.638  23.722  1.00  0.00     0.043 A 
HETATM   22  C36 UNL     1      19.365  60.692  25.147  1.00  0.00     0.014 A 
HETATM   23  N6  UNL     1      16.392  61.389  23.540  1.00  0.00    -0.354 N 
HETATM   24  C33 UNL     1      17.956  59.482  23.117  1.00  0.00     0.030 A 
ATOM     25  H6  UNL     1      15.674  61.185  22.844  1.00  0.00     0.166 HD
HETATM   26  C34 UNL     1      19.135  58.931  23.527  1.00  0.00     0.002 A 
HETATM   27  C35 UNL     1      19.824  59.552  24.542  1.00  0.00     0.001 A 
BRANCH  19  28
HETATM   28  C5  UNL     1      17.938  63.307  26.188  1.00  0.00     0.051 C 
BRANCH  28  29
HETATM   29  C4  UNL     1      18.479  64.599  25.605  1.00  0.00     0.107 C 
BRANCH  29  30
HETATM   30  C3  UNL     1      19.590  65.150  26.408  1.00  0.00     0.218 C 
HETATM   31  N1  UNL     1      20.592  65.984  25.860  1.00  0.00    -0.349 N 
ATOM     32  H1  UNL     1      20.559  66.218  24.867  1.00  0.00     0.163 HD
HETATM   33  O1  UNL     1      19.643  64.862  27.633  1.00  0.00    -0.274 OA
BRANCH  31  34
HETATM   34  C2  UNL     1      21.655  66.510  26.672  1.00  0.00     0.169 C 
HETATM   35  C1  UNL     1      21.507  67.979  26.937  1.00  0.00     0.042 C 
BRANCH  34  36
HETATM   36  C38 UNL     1      22.957  66.205  25.980  1.00  0.00     0.253 C 
HETATM   37  N7  UNL     1      23.980  67.209  25.958  1.00  0.00    -0.060 NA
HETATM   38  O5  UNL     1      23.114  65.093  25.445  1.00  0.00    -0.275 OA
ENDBRANCH  34  36
ENDBRANCH  31  34
ENDBRANCH  29  30
ENDBRANCH  28  29
ENDBRANCH  19  28
ENDBRANCH   1  18
BRANCH  16  39
HETATM   39  C23 UNL     1      10.986  68.103  22.498  1.00  0.00     0.216 C 
BRANCH  39  40
HETATM   40  C24 UNL     1      11.187  68.330  21.072  1.00  0.00    -0.086 C 
HETATM   41  C25 UNL     1      11.377  68.493  19.895  1.00  0.00    -0.088 C 
BRANCH  41  42
HETATM   42  C26 UNL     1      11.648  68.674  18.446  1.00  0.00     0.256 C 
BRANCH  42  43
HETATM   43  S1  UNL     1      13.215  67.934  18.048  1.00  0.00     0.237 S 
HETATM   44  O3  UNL     1      14.260  68.796  18.745  1.00  0.00    -0.205 OA
HETATM   45  O4  UNL     1      13.459  68.038  16.590  1.00  0.00    -0.205 OA
BRANCH  43  46
HETATM   46  N3  UNL     1      13.383  66.361  18.665  1.00  0.00    -0.317 N 
ATOM     47  H3  UNL     1      12.675  65.901  19.237  1.00  0.00     0.172 HD
BRANCH  46  48
HETATM   48  C27 UNL     1      14.638  65.743  18.295  1.00  0.00     0.152 C 
BRANCH  48  49
HETATM   49  C28 UNL     1      15.606  65.651  19.445  1.00  0.00     0.149 C 
BRANCH  49  50
HETATM   50  N4  UNL     1      16.949  66.011  19.058  1.00  0.00    -0.350 N 
HETATM   51  C29 UNL     1      17.424  67.244  18.778  1.00  0.00     0.108 A 
HETATM   52  C30 UNL     1      18.755  67.148  18.446  1.00  0.00     0.106 A 
HETATM   53  N5  UNL     1      19.108  65.854  18.520  1.00  0.00    -0.361 N 
HETATM   54  C31 UNL     1      18.007  65.177  18.891  1.00  0.00     0.182 A 
ATOM     55  H5  UNL     1      20.030  65.462  18.332  1.00  0.00     0.166 HD
ENDBRANCH  49  50
ENDBRANCH  48  49
ENDBRANCH  46  48
ENDBRANCH  43  46
ENDBRANCH  42  43
ENDBRANCH  41  42
ENDBRANCH  39  40
ENDBRANCH  16  39
TORSDOF 14
ENDMDL
MODEL 2
REMARK VINA RESULT: -9.439837318      3.462      9.760
REMARK  14 active torsions:
REMARK  status: ('A' for Active; 'I' for Inactive)
REMARK    1  A    between atoms: C2_2  and  N1_3 
REMARK    2  A    between atoms: C2_2  and  C38_53 
REMARK       I    between atoms: N1_3  and  C3_5 
REMARK    3  A    between atoms: C3_5  and  C4_7 
REMARK    4  A    between atoms: C4_7  and  C5_8 
REMARK    5  A    between atoms: C5_8  and  C6_9 
REMARK    6  A    between atoms: C7_10  and  C8_11 
REMARK    7  A    between atoms: N2_26  and  C23_28 
REMARK    8  A    between atoms: C23_28  and  C24_29 
REMARK    9  A    between atoms: C25_30  and  C26_31 
REMARK   10  A    between atoms: C26_31  and  S1_32 
REMARK   11  A    between atoms: S1_32  and  N3_35 
REMARK   12  A    between atoms: N3_35  and  C27_37 
REMARK   13  A    between atoms: C27_37  and  C28_38 
REMARK   14  A    between atoms: C28_38  and  N4_39 
ROOT
HETATM    1  C8  UNL     1      13.810  65.329  24.172  1.00  0.00    -0.008 A 
HETATM    2  C9  UNL     1      14.510  65.987  25.158  1.00  0.00     0.014 A 
HETATM    3  C10 UNL     1      15.747  65.525  25.610  1.00  0.00     0.015 A 
HETATM    4  C11 UNL     1      16.362  64.392  25.111  1.00  0.00     0.006 A 
HETATM    5  C12 UNL     1      15.647  63.752  24.141  1.00  0.00     0.028 A 
HETATM    6  C13 UNL     1      14.399  64.215  23.684  1.00  0.00     0.030 A 
HETATM    7  C14 UNL     1      16.123  62.470  23.652  1.00  0.00     0.194 A 
HETATM    8  O2  UNL     1      15.485  61.865  22.764  1.00  0.00    -0.287 OA
HETATM    9  C15 UNL     1      17.331  61.878  24.177  1.00  0.00     0.027 A 
HETATM   10  C16 UNL     1      17.745  60.638  23.682  1.00  0.00     0.016 A 
HETATM   11  C17 UNL     1      18.878  60.016  24.136  1.00  0.00     0.001 A 
HETATM   12  C18 UNL     1      19.620  60.633  25.102  1.00  0.00     0.001 A 
HETATM   13  C19 UNL     1      19.190  61.890  25.596  1.00  0.00     0.014 A 
HETATM   14  C20 UNL     1      18.069  62.520  25.154  1.00  0.00     0.005 A 
HETATM   15  C21 UNL     1      17.624  63.856  25.688  1.00  0.00     0.053 A 
HETATM   16  N2  UNL     1      18.478  64.632  26.208  1.00  0.00    -0.373 N 
HETATM   17  C22 UNL     1      18.310  66.108  26.218  1.00  0.00     0.150 C 
ENDROOT
BRANCH   1  18
HETATM   18  C7  UNL     1      12.492  65.859  23.773  1.00  0.00     0.050 A 
HETATM   19  C6  UNL     1      12.040  66.360  22.590  1.00  0.00    -0.018 A 
HETATM   20  C37 UNL     1      10.704  66.747  22.805  1.00  0.00    -0.001 A 
HETATM   21  C32 UNL     1      10.362  66.483  24.098  1.00  0.00     0.043 A 
HETATM   22  C36 UNL     1       9.763  67.315  21.967  1.00  0.00     0.014 A 
HETATM   23  N6  UNL     1      11.454  65.953  24.649  1.00  0.00    -0.354 N 
HETATM   24  C33 UNL     1       9.091  66.775  24.579  1.00  0.00     0.030 A 
ATOM     25  H6  UNL     1      11.506  65.650  25.622  1.00  0.00     0.166 HD
HETATM   26  C34 UNL     1       8.158  67.334  23.756  1.00  0.00     0.002 A 
HETATM   27  C35 UNL     1       8.514  67.597  22.454  1.00  0.00     0.001 A 
BRANCH  19  28
HETATM   28  C5  UNL     1      12.753  66.537  21.324  1.00  0.00     0.051 C 
BRANCH  28  29
HETATM   29  C4  UNL     1      13.753  67.677  21.386  1.00  0.00     0.107 C 
BRANCH  29  30
HETATM   30  C3  UNL     1      15.128  67.229  21.084  1.00  0.00     0.218 C 
HETATM   31  N1  UNL     1      15.551  66.877  19.782  1.00  0.00    -0.349 N 
ATOM     32  H1  UNL     1      14.885  66.925  19.011  1.00  0.00     0.163 HD
HETATM   33  O1  UNL     1      15.956  67.159  22.031  1.00  0.00    -0.274 OA
BRANCH  31  34
HETATM   34  C2  UNL     1      16.899  66.453  19.522  1.00  0.00     0.169 C 
HETATM   35  C1  UNL     1      17.443  67.008  18.238  1.00  0.00     0.042 C 
BRANCH  34  36
HETATM   36  C38 UNL     1      16.916  64.948  19.519  1.00  0.00     0.253 C 
HETATM   37  N7  UNL     1      18.113  64.268  19.921  1.00  0.00    -0.060 NA
HETATM   38  O5  UNL     1      15.894  64.329  19.170  1.00  0.00    -0.275 OA
ENDBRANCH  34  36
ENDBRANCH  31  34
ENDBRANCH  29  30
ENDBRANCH  28  29
ENDBRANCH  19  28
ENDBRANCH   1  18
BRANCH  16  39
HETATM   39  C23 UNL     1      19.636  64.367  27.070  1.00  0.00     0.216 C 
BRANCH  39  40
HETATM   40  C24 UNL     1      19.367  64.668  28.471  1.00  0.00    -0.086 C 
HETATM   41  C25 UNL     1      19.112  64.923  29.619  1.00  0.00    -0.088 C 
BRANCH  41  42
HETATM   42  C26 UNL     1      18.763  65.256  31.023  1.00  0.00     0.256 C 
BRANCH  42  43
HETATM   43  S1  UNL     1      17.063  64.829  31.319  1.00  0.00     0.237 S 
HETATM   44  O3  UNL     1      16.246  65.928  30.652  1.00  0.00    -0.205 OA
HETATM   45  O4  UNL     1      16.780  64.890  32.773  1.00  0.00    -0.205 OA
BRANCH  43  46
HETATM   46  N3  UNL     1      16.609  63.365  30.589  1.00  0.00    -0.317 N 
ATOM     47  H3  UNL     1      17.070  62.474  30.775  1.00  0.00     0.172 HD
BRANCH  46  48
HETATM   48  C27 UNL     1      15.498  63.514  29.674  1.00  0.00     0.152 C 
BRANCH  48  49
HETATM   49  C28 UNL     1      14.512  62.380  29.761  1.00  0.00     0.149 C 
BRANCH  49  50
HETATM   50  N4  UNL     1      13.603  62.359  28.640  1.00  0.00    -0.350 N 
HETATM   51  C29 UNL     1      12.349  61.857  28.605  1.00  0.00     0.108 A 
HETATM   52  C30 UNL     1      11.830  62.031  27.344  1.00  0.00     0.106 A 
HETATM   53  N5  UNL     1      12.763  62.642  26.594  1.00  0.00    -0.361 N 
HETATM   54  C31 UNL     1      13.829  62.834  27.389  1.00  0.00     0.182 A 
ATOM     55  H5  UNL     1      12.678  62.907  25.613  1.00  0.00     0.166 HD
ENDBRANCH  49  50
ENDBRANCH  48  49
ENDBRANCH  46  48
ENDBRANCH  43  46
ENDBRANCH  42  43
ENDBRANCH  41  42
ENDBRANCH  39  40
ENDBRANCH  16  39
TORSDOF 14
ENDMDL
MODEL 3
REMARK VINA RESULT: -9.403323075      2.766      6.409
REMARK  14 active torsions:
REMARK  status: ('A' for Active; 'I' for Inactive)
REMARK    1  A    between atoms: C2_2  and  N1_3 
REMARK    2  A    between atoms: C2_2  and  C38_53 
REMARK       I    between atoms: N1_3  and  C3_5 
REMARK    3  A    between atoms: C3_5  and  C4_7 
REMARK    4  A    between atoms: C4_7  and  C5_8 
REMARK    5  A    between atoms: C5_8  and  C6_9 
REMARK    6  A    between atoms: C7_10  and  C8_11 
REMARK    7  A    between atoms: N2_26  and  C23_28 
REMARK    8  A    between atoms: C23_28  and  C24_29 
REMARK    9  A    between atoms: C25_30  and  C26_31 
REMARK   10  A    between atoms: C26_31  and  S1_32 
REMARK   11  A    between atoms: S1_32  and  N3_35 
REMARK   12  A    between atoms: N3_35  and  C27_37 
REMARK   13  A    between atoms: C27_37  and  C28_38 
REMARK   14  A    between atoms: C28_38  and  N4_39 
ROOT
HETATM    1  C8  UNL     1      16.112  63.429  23.048  1.00  0.00    -0.008 A 
HETATM    2  C9  UNL     1      14.961  63.761  23.726  1.00  0.00     0.014 A 
HETATM    3  C10 UNL     1      14.117  64.779  23.280  1.00  0.00     0.015 A 
HETATM    4  C11 UNL     1      14.359  65.520  22.138  1.00  0.00     0.006 A 
HETATM    5  C12 UNL     1      15.508  65.180  21.487  1.00  0.00     0.028 A 
HETATM    6  C13 UNL     1      16.362  64.154  21.935  1.00  0.00     0.030 A 
HETATM    7  C14 UNL     1      15.942  65.990  20.363  1.00  0.00     0.194 A 
HETATM    8  O2  UNL     1      16.991  65.698  19.751  1.00  0.00    -0.287 OA
HETATM    9  C15 UNL     1      15.175  67.137  19.936  1.00  0.00     0.027 A 
HETATM   10  C16 UNL     1      15.637  67.893  18.855  1.00  0.00     0.016 A 
HETATM   11  C17 UNL     1      14.964  68.995  18.398  1.00  0.00     0.001 A 
HETATM   12  C18 UNL     1      13.806  69.359  19.024  1.00  0.00     0.001 A 
HETATM   13  C19 UNL     1      13.348  68.585  20.119  1.00  0.00     0.014 A 
HETATM   14  C20 UNL     1      14.005  67.488  20.582  1.00  0.00     0.005 A 
HETATM   15  C21 UNL     1      13.506  66.674  21.747  1.00  0.00     0.053 A 
HETATM   16  N2  UNL     1      12.274  66.695  22.037  1.00  0.00    -0.373 N 
HETATM   17  C22 UNL     1      11.596  65.562  22.716  1.00  0.00     0.150 C 
ENDROOT
BRANCH   1  18
HETATM   18  C7  UNL     1      16.972  62.366  23.601  1.00  0.00     0.050 A 
HETATM   19  C6  UNL     1      17.839  62.359  24.651  1.00  0.00    -0.018 A 
HETATM   20  C37 UNL     1      18.410  61.073  24.689  1.00  0.00    -0.001 A 
HETATM   21  C32 UNL     1      17.894  60.322  23.676  1.00  0.00     0.043 A 
HETATM   22  C36 UNL     1      19.346  60.506  25.533  1.00  0.00     0.014 A 
HETATM   23  N6  UNL     1      17.037  61.125  23.044  1.00  0.00    -0.354 N 
HETATM   24  C33 UNL     1      18.294  59.005  23.482  1.00  0.00     0.030 A 
ATOM     25  H6  UNL     1      16.490  60.840  22.231  1.00  0.00     0.166 HD
HETATM   26  C34 UNL     1      19.216  58.439  24.313  1.00  0.00     0.002 A 
HETATM   27  C35 UNL     1      19.731  59.207  25.331  1.00  0.00     0.001 A 
BRANCH  19  28
HETATM   28  C5  UNL     1      18.194  63.443  25.568  1.00  0.00     0.051 C 
BRANCH  28  29
HETATM   29  C4  UNL     1      19.187  64.411  24.952  1.00  0.00     0.107 C 
BRANCH  29  30
HETATM   30  C3  UNL     1      20.191  64.877  25.930  1.00  0.00     0.218 C 
HETATM   31  N1  UNL     1      20.837  66.130  25.828  1.00  0.00    -0.349 N 
ATOM     32  H1  UNL     1      20.614  66.745  25.045  1.00  0.00     0.163 HD
HETATM   33  O1  UNL     1      20.479  64.122  26.897  1.00  0.00    -0.274 OA
BRANCH  31  34
HETATM   34  C2  UNL     1      21.804  66.555  26.802  1.00  0.00     0.169 C 
HETATM   35  C1  UNL     1      21.410  67.830  27.489  1.00  0.00     0.042 C 
BRANCH  34  36
HETATM   36  C38 UNL     1      23.131  66.696  26.105  1.00  0.00     0.253 C 
HETATM   37  N7  UNL     1      23.906  65.517  25.849  1.00  0.00    -0.060 NA
HETATM   38  O5  UNL     1      23.523  67.827  25.766  1.00  0.00    -0.275 OA
ENDBRANCH  34  36
ENDBRANCH  31  34
ENDBRANCH  29  30
ENDBRANCH  28  29
ENDBRANCH  19  28
ENDBRANCH   1  18
BRANCH  16  39
HETATM   39  C23 UNL     1      11.290  67.785  22.025  1.00  0.00     0.216 C 
BRANCH  39  40
HETATM   40  C24 UNL     1      10.787  68.094  23.358  1.00  0.00    -0.086 C 
HETATM   41  C25 UNL     1      10.340  68.349  24.446  1.00  0.00    -0.088 C 
BRANCH  41  42
HETATM   42  C26 UNL     1       9.752  68.672  25.770  1.00  0.00     0.256 C 
BRANCH  42  43
HETATM   43  S1  UNL     1       8.554  67.430  26.197  1.00  0.00     0.237 S 
HETATM   44  O3  UNL     1       7.548  67.426  25.053  1.00  0.00    -0.205 OA
HETATM   45  O4  UNL     1       7.827  67.838  27.421  1.00  0.00    -0.205 OA
BRANCH  43  46
HETATM   46  N3  UNL     1       9.216  65.868  26.276  1.00  0.00    -0.317 N 
ATOM     47  H3  UNL     1       9.024  65.138  25.589  1.00  0.00     0.172 HD
BRANCH  46  48
HETATM   48  C27 UNL     1      10.082  65.681  27.420  1.00  0.00     0.152 C 
BRANCH  48  49
HETATM   49  C28 UNL     1       9.636  64.554  28.312  1.00  0.00     0.149 C 
BRANCH  49  50
HETATM   50  N4  UNL     1      10.414  63.355  28.110  1.00  0.00    -0.350 N 
HETATM   51  C29 UNL     1      10.150  62.113  28.571  1.00  0.00     0.108 A 
HETATM   52  C30 UNL     1      11.146  61.260  28.159  1.00  0.00     0.106 A 
HETATM   53  N5  UNL     1      12.030  61.972  27.441  1.00  0.00    -0.361 N 
HETATM   54  C31 UNL     1      11.576  63.237  27.419  1.00  0.00     0.182 A 
ATOM     55  H5  UNL     1      12.879  61.621  26.999  1.00  0.00     0.166 HD
ENDBRANCH  49  50
ENDBRANCH  48  49
ENDBRANCH  46  48
ENDBRANCH  43  46
ENDBRANCH  42  43
ENDBRANCH  41  42
ENDBRANCH  39  40
ENDBRANCH  16  39
TORSDOF 14
ENDMDL
MODEL 4
REMARK VINA RESULT: -9.354937552      3.316      6.318
REMARK  14 active torsions:
REMARK  status: ('A' for Active; 'I' for Inactive)
REMARK    1  A    between atoms: C2_2  and  N1_3 
REMARK    2  A    between atoms: C2_2  and  C38_53 
REMARK       I    between atoms: N1_3  and  C3_5 
REMARK    3  A    between atoms: C3_5  and  C4_7 
REMARK    4  A    between atoms: C4_7  and  C5_8 
REMARK    5  A    between atoms: C5_8  and  C6_9 
REMARK    6  A    between atoms: C7_10  and  C8_11 
REMARK    7  A    between atoms: N2_26  and  C23_28 
REMARK    8  A    between atoms: C23_28  and  C24_29 
REMARK    9  A    between atoms: C25_30  and  C26_31 
REMARK   10  A    between atoms: C26_31  and  S1_32 
REMARK   11  A    between atoms: S1_32  and  N3_35 
REMARK   12  A    between atoms: N3_35  and  C27_37 
REMARK   13  A    between atoms: C27_37  and  C28_38 
REMARK   14  A    between atoms: C28_38  and  N4_39 
ROOT
HETATM    1  C8  UNL     1      12.633  65.716  24.809  1.00  0.00    -0.008 A 
HETATM    2  C9  UNL     1      13.932  65.989  24.447  1.00  0.00     0.014 A 
HETATM    3  C10 UNL     1      14.235  66.918  23.450  1.00  0.00     0.015 A 
HETATM    4  C11 UNL     1      13.273  67.631  22.760  1.00  0.00     0.006 A 
HETATM    5  C12 UNL     1      11.993  67.339  23.129  1.00  0.00     0.028 A 
HETATM    6  C13 UNL     1      11.684  66.402  24.133  1.00  0.00     0.030 A 
HETATM    7  C14 UNL     1      10.896  67.913  22.369  1.00  0.00     0.194 A 
HETATM    8  O2  UNL     1       9.715  67.660  22.688  1.00  0.00    -0.287 OA
HETATM    9  C15 UNL     1      11.150  68.780  21.242  1.00  0.00     0.027 A 
HETATM   10  C16 UNL     1      10.063  69.303  20.535  1.00  0.00     0.016 A 
HETATM   11  C17 UNL     1      10.228  70.129  19.455  1.00  0.00     0.001 A 
HETATM   12  C18 UNL     1      11.498  70.446  19.063  1.00  0.00     0.001 A 
HETATM   13  C19 UNL     1      12.591  69.910  19.788  1.00  0.00     0.014 A 
HETATM   14  C20 UNL     1      12.442  69.092  20.863  1.00  0.00     0.005 A 
HETATM   15  C21 UNL     1      13.614  68.529  21.624  1.00  0.00     0.053 A 
HETATM   16  N2  UNL     1      14.724  69.135  21.591  1.00  0.00    -0.373 N 
HETATM   17  C22 UNL     1      15.715  69.044  22.693  1.00  0.00     0.150 C 
ENDROOT
BRANCH   1  18
HETATM   18  C7  UNL     1      12.391  64.695  25.846  1.00  0.00     0.050 A 
HETATM   19  C6  UNL     1      13.106  63.598  26.219  1.00  0.00    -0.018 A 
HETATM   20  C37 UNL     1      12.372  62.973  27.245  1.00  0.00    -0.001 A 
HETATM   21  C32 UNL     1      11.235  63.685  27.482  1.00  0.00     0.043 A 
HETATM   22  C36 UNL     1      12.614  61.832  27.985  1.00  0.00     0.014 A 
HETATM   23  N6  UNL     1      11.277  64.709  26.629  1.00  0.00    -0.354 N 
HETATM   24  C33 UNL     1      10.324  63.282  28.451  1.00  0.00     0.030 A 
ATOM     25  H6  UNL     1      10.552  65.425  26.569  1.00  0.00     0.166 HD
HETATM   26  C34 UNL     1      10.558  62.157  29.186  1.00  0.00     0.002 A 
HETATM   27  C35 UNL     1      11.708  61.446  28.937  1.00  0.00     0.001 A 
BRANCH  19  28
HETATM   28  C5  UNL     1      14.363  63.082  25.675  1.00  0.00     0.051 C 
BRANCH  28  29
HETATM   29  C4  UNL     1      14.202  62.555  24.262  1.00  0.00     0.107 C 
BRANCH  29  30
HETATM   30  C3  UNL     1      15.503  62.322  23.602  1.00  0.00     0.218 C 
HETATM   31  N1  UNL     1      16.545  61.578  24.202  1.00  0.00    -0.349 N 
ATOM     32  H1  UNL     1      16.406  61.186  25.133  1.00  0.00     0.163 HD
HETATM   33  O1  UNL     1      15.686  62.808  22.455  1.00  0.00    -0.274 OA
BRANCH  31  34
HETATM   34  C2  UNL     1      17.795  61.364  23.527  1.00  0.00     0.169 C 
HETATM   35  C1  UNL     1      18.243  59.933  23.579  1.00  0.00     0.042 C 
BRANCH  34  36
HETATM   36  C38 UNL     1      18.816  62.282  24.146  1.00  0.00     0.253 C 
HETATM   37  N7  UNL     1      18.682  63.696  23.955  1.00  0.00    -0.060 NA
HETATM   38  O5  UNL     1      19.749  61.793  24.809  1.00  0.00    -0.275 OA
ENDBRANCH  34  36
ENDBRANCH  31  34
ENDBRANCH  29  30
ENDBRANCH  28  29
ENDBRANCH  19  28
ENDBRANCH   1  18
BRANCH  16  39
HETATM   39  C23 UNL     1      15.418  69.836  20.503  1.00  0.00     0.216 C 
BRANCH  39  40
HETATM   40  C24 UNL     1      16.074  68.918  19.579  1.00  0.00    -0.086 C 
HETATM   41  C25 UNL     1      16.609  68.135  18.839  1.00  0.00    -0.088 C 
BRANCH  41  42
HETATM   42  C26 UNL     1      17.272  67.141  17.957  1.00  0.00     0.256 C 
BRANCH  42  43
HETATM   43  S1  UNL     1      18.969  66.958  18.456  1.00  0.00     0.237 S 
HETATM   44  O3  UNL     1      19.061  65.571  19.079  1.00  0.00    -0.205 OA
HETATM   45  O4  UNL     1      19.284  67.941  19.519  1.00  0.00    -0.205 OA
BRANCH  43  46
HETATM   46  N3  UNL     1      20.052  66.983  17.148  1.00  0.00    -0.317 N 
ATOM     47  H3  UNL     1      19.846  66.574  16.237  1.00  0.00     0.172 HD
BRANCH  46  48
HETATM   48  C27 UNL     1      21.298  67.646  17.464  1.00  0.00     0.152 C 
BRANCH  48  49
HETATM   49  C28 UNL     1      22.358  66.696  17.956  1.00  0.00     0.149 C 
BRANCH  49  50
HETATM   50  N4  UNL     1      23.494  66.637  17.068  1.00  0.00    -0.350 N 
HETATM   51  C29 UNL     1      24.300  65.579  16.829  1.00  0.00     0.108 A 
HETATM   52  C30 UNL     1      25.267  65.946  15.924  1.00  0.00     0.106 A 
HETATM   53  N5  UNL     1      25.063  67.234  15.600  1.00  0.00    -0.361 N 
HETATM   54  C31 UNL     1      23.988  67.639  16.298  1.00  0.00     0.182 A 
ATOM     55  H5  UNL     1      25.615  67.793  14.951  1.00  0.00     0.166 HD
ENDBRANCH  49  50
ENDBRANCH  48  49
ENDBRANCH  46  48
ENDBRANCH  43  46
ENDBRANCH  42  43
ENDBRANCH  41  42
ENDBRANCH  39  40
ENDBRANCH  16  39
TORSDOF 14
ENDMDL
MODEL 5
REMARK VINA RESULT: -9.283665026      4.146      7.583
REMARK  14 active torsions:
REMARK  status: ('A' for Active; 'I' for Inactive)
REMARK    1  A    between atoms: C2_2  and  N1_3 
REMARK    2  A    between atoms: C2_2  and  C38_53 
REMARK       I    between atoms: N1_3  and  C3_5 
REMARK    3  A    between atoms: C3_5  and  C4_7 
REMARK    4  A    between atoms: C4_7  and  C5_8 
REMARK    5  A    between atoms: C5_8  and  C6_9 
REMARK    6  A    between atoms: C7_10  and  C8_11 
REMARK    7  A    between atoms: N2_26  and  C23_28 
REMARK    8  A    between atoms: C23_28  and  C24_29 
REMARK    9  A    between atoms: C25_30  and  C26_31 
REMARK   10  A    between atoms: C26_31  and  S1_32 
REMARK   11  A    between atoms: S1_32  and  N3_35 
REMARK   12  A    between atoms: N3_35  and  C27_37 
REMARK   13  A    between atoms: C27_37  and  C28_38 
REMARK   14  A    between atoms: C28_38  and  N4_39 
ROOT
HETATM    1  C8  UNL     1      13.834  65.900  23.867  1.00  0.00    -0.008 A 
HETATM    2  C9  UNL     1      15.114  66.387  23.996  1.00  0.00     0.014 A 
HETATM    3  C10 UNL     1      15.725  67.119  22.976  1.00  0.00     0.015 A 
HETATM    4  C11 UNL     1      15.104  67.416  21.778  1.00  0.00     0.006 A 
HETATM    5  C12 UNL     1      13.839  66.917  21.669  1.00  0.00     0.028 A 
HETATM    6  C13 UNL     1      13.221  66.177  22.694  1.00  0.00     0.030 A 
HETATM    7  C14 UNL     1      13.147  67.035  20.397  1.00  0.00     0.194 A 
HETATM    8  O2  UNL     1      11.988  66.585  20.273  1.00  0.00    -0.287 OA
HETATM    9  C15 UNL     1      13.780  67.668  19.265  1.00  0.00     0.027 A 
HETATM   10  C16 UNL     1      13.079  67.751  18.058  1.00  0.00     0.016 A 
HETATM   11  C17 UNL     1      13.618  68.335  16.943  1.00  0.00     0.001 A 
HETATM   12  C18 UNL     1      14.880  68.850  17.020  1.00  0.00     0.001 A 
HETATM   13  C19 UNL     1      15.581  68.761  18.249  1.00  0.00     0.014 A 
HETATM   14  C20 UNL     1      15.058  68.186  19.364  1.00  0.00     0.005 A 
HETATM   15  C21 UNL     1      15.815  68.098  20.664  1.00  0.00     0.053 A 
HETATM   16  N2  UNL     1      16.741  68.927  20.900  1.00  0.00    -0.373 N 
HETATM   17  C22 UNL     1      17.129  69.317  22.280  1.00  0.00     0.150 C 
ENDROOT
BRANCH   1  18
HETATM   18  C7  UNL     1      13.269  65.104  24.973  1.00  0.00     0.050 A 
HETATM   19  C6  UNL     1      13.679  63.941  25.551  1.00  0.00    -0.018 A 
HETATM   20  C37 UNL     1      12.728  63.630  26.541  1.00  0.00    -0.001 A 
HETATM   21  C32 UNL     1      11.762  64.592  26.554  1.00  0.00     0.043 A 
HETATM   22  C36 UNL     1      12.634  62.575  27.429  1.00  0.00     0.014 A 
HETATM   23  N6  UNL     1      12.115  65.458  25.604  1.00  0.00    -0.354 N 
HETATM   24  C33 UNL     1      10.694  64.525  27.440  1.00  0.00     0.030 A 
ATOM     25  H6  UNL     1      11.580  66.296  25.375  1.00  0.00     0.166 HD
HETATM   26  C34 UNL     1      10.597  63.487  28.320  1.00  0.00     0.002 A 
HETATM   27  C35 UNL     1      11.576  62.522  28.297  1.00  0.00     0.001 A 
BRANCH  19  28
HETATM   28  C5  UNL     1      14.835  63.103  25.230  1.00  0.00     0.051 C 
BRANCH  28  29
HETATM   29  C4  UNL     1      14.987  62.887  23.736  1.00  0.00     0.107 C 
BRANCH  29  30
HETATM   30  C3  UNL     1      16.322  62.365  23.381  1.00  0.00     0.218 C 
HETATM   31  N1  UNL     1      16.835  61.154  23.900  1.00  0.00    -0.349 N 
ATOM     32  H1  UNL     1      16.270  60.612  24.554  1.00  0.00     0.163 HD
HETATM   33  O1  UNL     1      17.031  63.030  22.580  1.00  0.00    -0.274 OA
BRANCH  31  34
HETATM   34  C2  UNL     1      18.136  60.670  23.527  1.00  0.00     0.169 C 
HETATM   35  C1  UNL     1      18.109  59.249  23.047  1.00  0.00     0.042 C 
BRANCH  34  36
HETATM   36  C38 UNL     1      19.045  60.831  24.716  1.00  0.00     0.253 C 
HETATM   37  N7  UNL     1      19.814  62.034  24.842  1.00  0.00    -0.060 NA
HETATM   38  O5  UNL     1      19.108  59.918  25.560  1.00  0.00    -0.275 OA
ENDBRANCH  34  36
ENDBRANCH  31  34
ENDBRANCH  29  30
ENDBRANCH  28  29
ENDBRANCH  19  28
ENDBRANCH   1  18
BRANCH  16  39
HETATM   39  C23 UNL     1      17.765  69.517  20.028  1.00  0.00     0.216 C 
BRANCH  39  40
HETATM   40  C24 UNL     1      18.625  68.508  19.420  1.00  0.00    -0.086 C 
HETATM   41  C25 UNL     1      19.345  67.699  18.895  1.00  0.00    -0.088 C 
BRANCH  41  42
HETATM   42  C26 UNL     1      20.236  66.726  18.215  1.00  0.00     0.256 C 
BRANCH  42  43
HETATM   43  S1  UNL     1      21.871  67.414  18.096  1.00  0.00     0.237 S 
HETATM   44  O3  UNL     1      22.749  66.527  18.969  1.00  0.00    -0.205 OA
HETATM   45  O4  UNL     1      21.884  68.770  18.693  1.00  0.00    -0.205 OA
BRANCH  43  46
HETATM   46  N3  UNL     1      22.508  67.345  16.524  1.00  0.00    -0.317 N 
ATOM     47  H3  UNL     1      21.933  67.275  15.685  1.00  0.00     0.172 HD
BRANCH  46  48
HETATM   48  C27 UNL     1      23.954  67.395  16.501  1.00  0.00     0.152 C 
BRANCH  48  49
HETATM   49  C28 UNL     1      24.563  66.319  15.641  1.00  0.00     0.149 C 
BRANCH  49  50
HETATM   50  N4  UNL     1      25.248  66.861  14.492  1.00  0.00    -0.350 N 
HETATM   51  C29 UNL     1      24.962  67.999  13.823  1.00  0.00     0.108 A 
HETATM   52  C30 UNL     1      25.853  68.146  12.786  1.00  0.00     0.106 A 
HETATM   53  N5  UNL     1      26.694  67.098  12.811  1.00  0.00    -0.361 N 
HETATM   54  C31 UNL     1      26.317  66.329  13.847  1.00  0.00     0.182 A 
ATOM     55  H5  UNL     1      27.466  66.921  12.169  1.00  0.00     0.166 HD
ENDBRANCH  49  50
ENDBRANCH  48  49
ENDBRANCH  46  48
ENDBRANCH  43  46
ENDBRANCH  42  43
ENDBRANCH  41  42
ENDBRANCH  39  40
ENDBRANCH  16  39
TORSDOF 14
ENDMDL
