MODEL 1
REMARK VINA RESULT: -7.883801670      0.000      0.000
REMARK  10 active torsions:
REMARK  status: ('A' for Active; 'I' for Inactive)
REMARK    1  A    between atoms: C2_2  and  C3_3 
REMARK    2  A    between atoms: C3_3  and  C4_4 
REMARK    3  A    between atoms: C4_4  and  N1_5 
REMARK    4  A    between atoms: N1_5  and  C5_6 
REMARK    5  A    between atoms: N1_5  and  C11_13 
REMARK    6  A    between atoms: C5_6  and  C6_7 
REMARK    7  A    between atoms: C6_7  and  N2_8 
REMARK    8  A    between atoms: C11_13  and  O1_14 
REMARK    9  A    between atoms: C11_13  and  C12_16 
REMARK   10  A    between atoms: C23_27  and  N3_28 
ROOT
HETATM    1  N1  UNL     1       8.950  -3.963  47.567  1.00  0.00    -0.362 N 
ENDROOT
BRANCH   1   2
HETATM    2  C4  UNL     1      10.146  -4.058  48.341  1.00  0.00     0.136 C 
BRANCH   2   3
HETATM    3  C3  UNL     1      11.028  -2.823  48.280  1.00  0.00     0.006 A 
HETATM    4  C22 UNL     1      10.406  -1.512  48.594  1.00  0.00     0.047 A 
HETATM    5  C23 UNL     1      11.171  -2.179  49.669  1.00  0.00     0.196 A 
BRANCH   3   6
HETATM    6  C2  UNL     1      12.208  -2.910  47.383  1.00  0.00     0.009 C 
HETATM    7  C1  UNL     1      12.446  -1.725  46.492  1.00  0.00     0.006 C 
ENDBRANCH   3   6
BRANCH   5   8
HETATM    8  N3  UNL     1      12.450  -1.819  50.155  1.00  0.00    -0.074 N 
HETATM    9  C24 UNL     1      12.488  -0.413  50.477  1.00  0.00     0.267 C 
ATOM     10  H32 UNL     1      12.732  -2.399  50.945  1.00  0.00     0.277 HD
ATOM     11  H31 UNL     1      13.191  -2.079  49.504  1.00  0.00     0.277 HD
ENDBRANCH   5   8
ENDBRANCH   2   3
ENDBRANCH   1   2
BRANCH   1  12
HETATM   12  C5  UNL     1       9.202  -4.039  46.074  1.00  0.00     0.154 C 
BRANCH  12  13
HETATM   13  C6  UNL     1       9.800  -5.351  45.763  1.00  0.00     0.292 C 
BRANCH  13  14
HETATM   14  N2  UNL     1      10.522  -5.476  44.564  1.00  0.00     0.090 N 
HETATM   15  C7  UNL     1      11.701  -6.273  44.595  1.00  0.00     0.272 C 
HETATM   16  C8  UNL     1      11.172  -7.674  44.696  1.00  0.00     0.032 C 
HETATM   17  C9  UNL     1      10.074  -7.617  43.637  1.00  0.00     0.032 C 
HETATM   18  C10 UNL     1       9.697  -6.163  43.582  1.00  0.00     0.272 C 
ENDBRANCH  13  14
ENDBRANCH  12  13
ENDBRANCH   1  12
BRANCH   1  19
HETATM   19  C11 UNL     1       7.661  -3.800  48.016  1.00  0.00     0.122 C 
BRANCH  19  20
HETATM   20  O1  UNL     1       6.776  -4.508  47.310  1.00  0.00    -0.349 OA
ATOM     21  H1  UNL     1       6.269  -5.103  47.850  1.00  0.00     0.219 HD
ENDBRANCH  19  20
BRANCH  19  22
HETATM   22  C12 UNL     1       6.972  -3.050  49.063  1.00  0.00     0.026 C 
HETATM   23  C13 UNL     1       5.561  -3.584  49.165  1.00  0.00     0.022 C 
HETATM   24  C14 UNL     1       4.711  -2.719  50.047  1.00  0.00    -0.013 C 
HETATM   25  C15 UNL     1       5.327  -2.601  51.404  1.00  0.00     0.009 C 
HETATM   26  C19 UNL     1       4.632  -1.355  49.397  1.00  0.00     0.009 C 
HETATM   27  C16 UNL     1       6.728  -2.034  51.274  1.00  0.00    -0.013 C 
HETATM   28  C17 UNL     1       6.594  -0.647  50.694  1.00  0.00     0.009 C 
HETATM   29  C21 UNL     1       7.591  -2.945  50.396  1.00  0.00     0.022 C 
HETATM   30  C18 UNL     1       6.002  -0.774  49.290  1.00  0.00    -0.013 C 
HETATM   31  C20 UNL     1       6.928  -1.603  48.496  1.00  0.00     0.022 C 
ENDBRANCH  19  22
ENDBRANCH   1  19
TORSDOF 10
ENDMDL
MODEL 2
REMARK VINA RESULT: -7.883157330      1.185      2.305
REMARK  10 active torsions:
REMARK  status: ('A' for Active; 'I' for Inactive)
REMARK    1  A    between atoms: C2_2  and  C3_3 
REMARK    2  A    between atoms: C3_3  and  C4_4 
REMARK    3  A    between atoms: C4_4  and  N1_5 
REMARK    4  A    between atoms: N1_5  and  C5_6 
REMARK    5  A    between atoms: N1_5  and  C11_13 
REMARK    6  A    between atoms: C5_6  and  C6_7 
REMARK    7  A    between atoms: C6_7  and  N2_8 
REMARK    8  A    between atoms: C11_13  and  O1_14 
REMARK    9  A    between atoms: C11_13  and  C12_16 
REMARK   10  A    between atoms: C23_27  and  N3_28 
ROOT
HETATM    1  N1  UNL     1       8.671  -4.229  46.908  1.00  0.00    -0.362 N 
ENDROOT
BRANCH   1   2
HETATM    2  C4  UNL     1       9.564  -3.277  46.331  1.00  0.00     0.136 C 
BRANCH   2   3
HETATM    3  C3  UNL     1      10.543  -2.662  47.316  1.00  0.00     0.006 A 
HETATM    4  C22 UNL     1      11.447  -3.579  48.055  1.00  0.00     0.047 A 
HETATM    5  C23 UNL     1      11.995  -2.892  46.866  1.00  0.00     0.196 A 
BRANCH   3   6
HETATM    6  C2  UNL     1      10.149  -1.352  47.894  1.00  0.00     0.009 C 
HETATM    7  C1  UNL     1      10.433  -1.166  49.356  1.00  0.00     0.006 C 
ENDBRANCH   3   6
BRANCH   5   8
HETATM    8  N3  UNL     1      12.911  -1.815  46.849  1.00  0.00    -0.074 N 
HETATM    9  C24 UNL     1      13.771  -1.869  48.006  1.00  0.00     0.267 C 
ATOM     10  H32 UNL     1      13.445  -1.784  45.980  1.00  0.00     0.277 HD
ATOM     11  H31 UNL     1      12.438  -0.915  46.769  1.00  0.00     0.277 HD
ENDBRANCH   5   8
ENDBRANCH   2   3
ENDBRANCH   1   2
BRANCH   1  12
HETATM   12  C5  UNL     1       9.137  -5.661  46.735  1.00  0.00     0.154 C 
BRANCH  12  13
HETATM   13  C6  UNL     1       9.620  -5.835  45.353  1.00  0.00     0.292 C 
BRANCH  13  14
HETATM   14  N2  UNL     1       9.757  -7.146  44.865  1.00  0.00     0.090 N 
HETATM   15  C7  UNL     1       9.595  -7.339  43.464  1.00  0.00     0.272 C 
HETATM   16  C8  UNL     1      10.843  -6.742  42.883  1.00  0.00     0.032 C 
HETATM   17  C9  UNL     1      11.884  -7.343  43.825  1.00  0.00     0.032 C 
HETATM   18  C10 UNL     1      11.120  -7.599  45.094  1.00  0.00     0.272 C 
ENDBRANCH  13  14
ENDBRANCH  12  13
ENDBRANCH   1  12
BRANCH   1  19
HETATM   19  C11 UNL     1       7.483  -3.991  47.557  1.00  0.00     0.122 C 
BRANCH  19  20
HETATM   20  O1  UNL     1       6.462  -4.670  47.029  1.00  0.00    -0.349 OA
ATOM     21  H1  UNL     1       5.710  -4.711  47.608  1.00  0.00     0.219 HD
ENDBRANCH  19  20
BRANCH  19  22
HETATM   22  C12 UNL     1       7.011  -3.184  48.680  1.00  0.00     0.026 C 
HETATM   23  C13 UNL     1       7.918  -3.451  49.859  1.00  0.00     0.022 C 
HETATM   24  C14 UNL     1       7.371  -2.849  51.118  1.00  0.00    -0.013 C 
HETATM   25  C15 UNL     1       7.162  -1.380  50.940  1.00  0.00     0.009 C 
HETATM   26  C19 UNL     1       6.049  -3.527  51.403  1.00  0.00     0.009 C 
HETATM   27  C16 UNL     1       6.223  -1.142  49.772  1.00  0.00    -0.013 C 
HETATM   28  C17 UNL     1       4.898  -1.768  50.133  1.00  0.00     0.009 C 
HETATM   29  C21 UNL     1       6.811  -1.736  48.489  1.00  0.00     0.022 C 
HETATM   30  C18 UNL     1       5.107  -3.276  50.273  1.00  0.00    -0.013 C 
HETATM   31  C20 UNL     1       5.603  -3.775  48.977  1.00  0.00     0.022 C 
ENDBRANCH  19  22
ENDBRANCH   1  19
TORSDOF 10
ENDMDL
MODEL 3
REMARK VINA RESULT: -7.793219624      1.508      2.680
REMARK  10 active torsions:
REMARK  status: ('A' for Active; 'I' for Inactive)
REMARK    1  A    between atoms: C2_2  and  C3_3 
REMARK    2  A    between atoms: C3_3  and  C4_4 
REMARK    3  A    between atoms: C4_4  and  N1_5 
REMARK    4  A    between atoms: N1_5  and  C5_6 
REMARK    5  A    between atoms: N1_5  and  C11_13 
REMARK    6  A    between atoms: C5_6  and  C6_7 
REMARK    7  A    between atoms: C6_7  and  N2_8 
REMARK    8  A    between atoms: C11_13  and  O1_14 
REMARK    9  A    between atoms: C11_13  and  C12_16 
REMARK   10  A    between atoms: C23_27  and  N3_28 
ROOT
HETATM    1  N1  UNL     1       9.884  -2.577  48.218  1.00  0.00    -0.362 N 
ENDROOT
BRANCH   1   2
HETATM    2  C4  UNL     1      10.972  -1.674  48.410  1.00  0.00     0.136 C 
BRANCH   2   3
HETATM    3  C3  UNL     1      11.225  -1.301  49.861  1.00  0.00     0.006 A 
HETATM    4  C22 UNL     1      11.720  -2.364  50.772  1.00  0.00     0.047 A 
HETATM    5  C23 UNL     1      12.717  -1.428  50.211  1.00  0.00     0.196 A 
BRANCH   3   6
HETATM    6  C2  UNL     1      10.441  -0.155  50.384  1.00  0.00     0.009 C 
HETATM    7  C1  UNL     1       9.851  -0.331  51.754  1.00  0.00     0.006 C 
ENDBRANCH   3   6
BRANCH   5   8
HETATM    8  N3  UNL     1      13.378  -0.377  50.889  1.00  0.00    -0.074 N 
HETATM    9  C24 UNL     1      14.626  -0.065  50.236  1.00  0.00     0.267 C 
ATOM     10  H32 UNL     1      12.783   0.446  50.985  1.00  0.00     0.277 HD
ATOM     11  H31 UNL     1      13.509  -0.586  51.878  1.00  0.00     0.277 HD
ENDBRANCH   5   8
ENDBRANCH   2   3
ENDBRANCH   1   2
BRANCH   1  12
HETATM   12  C5  UNL     1      10.333  -4.003  47.963  1.00  0.00     0.154 C 
BRANCH  12  13
HETATM   13  C6  UNL     1      10.590  -4.164  46.520  1.00  0.00     0.292 C 
BRANCH  13  14
HETATM   14  N2  UNL     1       9.515  -4.550  45.700  1.00  0.00     0.090 N 
HETATM   15  C7  UNL     1       9.819  -5.355  44.566  1.00  0.00     0.272 C 
HETATM   16  C8  UNL     1      10.149  -6.691  45.164  1.00  0.00     0.032 C 
HETATM   17  C9  UNL     1       9.000  -6.823  46.160  1.00  0.00     0.032 C 
HETATM   18  C10 UNL     1       8.617  -5.402  46.465  1.00  0.00     0.272 C 
ENDBRANCH  13  14
ENDBRANCH  12  13
ENDBRANCH   1  12
BRANCH   1  19
HETATM   19  C11 UNL     1       8.539  -2.296  48.224  1.00  0.00     0.122 C 
BRANCH  19  20
HETATM   20  O1  UNL     1       8.148  -1.626  47.137  1.00  0.00    -0.349 OA
ATOM     21  H1  UNL     1       7.387  -1.080  47.297  1.00  0.00     0.219 HD
ENDBRANCH  19  20
BRANCH  19  22
HETATM   22  C12 UNL     1       7.394  -2.521  49.104  1.00  0.00     0.026 C 
HETATM   23  C13 UNL     1       6.741  -1.184  49.369  1.00  0.00     0.022 C 
HETATM   24  C14 UNL     1       5.705  -1.285  50.448  1.00  0.00    -0.013 C 
HETATM   25  C15 UNL     1       4.677  -2.308  50.083  1.00  0.00     0.009 C 
HETATM   26  C19 UNL     1       6.417  -1.699  51.717  1.00  0.00     0.009 C 
HETATM   27  C16 UNL     1       5.356  -3.645  49.855  1.00  0.00    -0.013 C 
HETATM   28  C17 UNL     1       5.986  -4.053  51.165  1.00  0.00     0.009 C 
HETATM   29  C21 UNL     1       6.389  -3.531  48.730  1.00  0.00     0.022 C 
HETATM   30  C18 UNL     1       7.065  -3.028  51.514  1.00  0.00    -0.013 C 
HETATM   31  C20 UNL     1       8.051  -3.036  50.417  1.00  0.00     0.022 C 
ENDBRANCH  19  22
ENDBRANCH   1  19
TORSDOF 10
ENDMDL
MODEL 4
REMARK VINA RESULT: -7.768220866      1.524      2.328
REMARK  10 active torsions:
REMARK  status: ('A' for Active; 'I' for Inactive)
REMARK    1  A    between atoms: C2_2  and  C3_3 
REMARK    2  A    between atoms: C3_3  and  C4_4 
REMARK    3  A    between atoms: C4_4  and  N1_5 
REMARK    4  A    between atoms: N1_5  and  C5_6 
REMARK    5  A    between atoms: N1_5  and  C11_13 
REMARK    6  A    between atoms: C5_6  and  C6_7 
REMARK    7  A    between atoms: C6_7  and  N2_8 
REMARK    8  A    between atoms: C11_13  and  O1_14 
REMARK    9  A    between atoms: C11_13  and  C12_16 
REMARK   10  A    between atoms: C23_27  and  N3_28 
ROOT
HETATM    1  N1  UNL     1       9.953  -2.586  48.231  1.00  0.00    -0.362 N 
ENDROOT
BRANCH   1   2
HETATM    2  C4  UNL     1      11.040  -1.669  48.363  1.00  0.00     0.136 C 
BRANCH   2   3
HETATM    3  C3  UNL     1      11.331  -1.249  49.794  1.00  0.00     0.006 A 
HETATM    4  C22 UNL     1      11.973  -2.243  50.690  1.00  0.00     0.047 A 
HETATM    5  C23 UNL     1      12.844  -1.225  50.064  1.00  0.00     0.196 A 
BRANCH   3   6
HETATM    6  C2  UNL     1      10.467  -0.175  50.345  1.00  0.00     0.009 C 
HETATM    7  C1  UNL     1       9.940  -0.401  51.732  1.00  0.00     0.006 C 
ENDBRANCH   3   6
BRANCH   5   8
HETATM    8  N3  UNL     1      13.434  -0.104  50.693  1.00  0.00    -0.074 N 
HETATM    9  C24 UNL     1      14.824   0.006  50.322  1.00  0.00     0.267 C 
ATOM     10  H32 UNL     1      12.920   0.755  50.499  1.00  0.00     0.277 HD
ATOM     11  H31 UNL     1      13.312  -0.128  51.705  1.00  0.00     0.277 HD
ENDBRANCH   5   8
ENDBRANCH   2   3
ENDBRANCH   1   2
BRANCH   1  12
HETATM   12  C5  UNL     1      10.402  -3.993  47.889  1.00  0.00     0.154 C 
BRANCH  12  13
HETATM   13  C6  UNL     1      10.600  -4.083  46.431  1.00  0.00     0.292 C 
BRANCH  13  14
HETATM   14  N2  UNL     1       9.519  -4.524  45.647  1.00  0.00     0.090 N 
HETATM   15  C7  UNL     1       9.822  -5.341  44.522  1.00  0.00     0.272 C 
HETATM   16  C8  UNL     1      10.214  -6.653  45.138  1.00  0.00     0.032 C 
HETATM   17  C9  UNL     1       9.096  -6.803  46.167  1.00  0.00     0.032 C 
HETATM   18  C10 UNL     1       8.671  -5.390  46.452  1.00  0.00     0.272 C 
ENDBRANCH  13  14
ENDBRANCH  12  13
ENDBRANCH   1  12
BRANCH   1  19
HETATM   19  C11 UNL     1       8.609  -2.329  48.357  1.00  0.00     0.122 C 
BRANCH  19  20
HETATM   20  O1  UNL     1       8.107  -1.675  47.307  1.00  0.00    -0.349 OA
ATOM     21  H1  UNL     1       8.594  -0.887  47.100  1.00  0.00     0.219 HD
ENDBRANCH  19  20
BRANCH  19  22
HETATM   22  C12 UNL     1       7.555  -2.570  49.340  1.00  0.00     0.026 C 
HETATM   23  C13 UNL     1       6.533  -3.489  48.711  1.00  0.00     0.022 C 
HETATM   24  C14 UNL     1       5.301  -3.600  49.557  1.00  0.00    -0.013 C 
HETATM   25  C15 UNL     1       5.658  -4.074  50.930  1.00  0.00     0.009 C 
HETATM   26  C19 UNL     1       4.682  -2.222  49.632  1.00  0.00     0.009 C 
HETATM   27  C16 UNL     1       6.658  -3.116  51.549  1.00  0.00    -0.013 C 
HETATM   28  C17 UNL     1       5.972  -1.777  51.674  1.00  0.00     0.009 C 
HETATM   29  C21 UNL     1       7.922  -3.037  50.688  1.00  0.00     0.022 C 
HETATM   30  C18 UNL     1       5.646  -1.276  50.267  1.00  0.00    -0.013 C 
HETATM   31  C20 UNL     1       6.921  -1.162  49.533  1.00  0.00     0.022 C 
ENDBRANCH  19  22
ENDBRANCH   1  19
TORSDOF 10
ENDMDL
MODEL 5
REMARK VINA RESULT: -7.668639489      0.241      1.422
REMARK  10 active torsions:
REMARK  status: ('A' for Active; 'I' for Inactive)
REMARK    1  A    between atoms: C2_2  and  C3_3 
REMARK    2  A    between atoms: C3_3  and  C4_4 
REMARK    3  A    between atoms: C4_4  and  N1_5 
REMARK    4  A    between atoms: N1_5  and  C5_6 
REMARK    5  A    between atoms: N1_5  and  C11_13 
REMARK    6  A    between atoms: C5_6  and  C6_7 
REMARK    7  A    between atoms: C6_7  and  N2_8 
REMARK    8  A    between atoms: C11_13  and  O1_14 
REMARK    9  A    between atoms: C11_13  and  C12_16 
REMARK   10  A    between atoms: C23_27  and  N3_28 
ROOT
HETATM    1  N1  UNL     1       8.934  -3.971  47.560  1.00  0.00    -0.362 N 
ENDROOT
BRANCH   1   2
HETATM    2  C4  UNL     1      10.080  -4.041  48.408  1.00  0.00     0.136 C 
BRANCH   2   3
HETATM    3  C3  UNL     1      10.973  -2.813  48.354  1.00  0.00     0.006 A 
HETATM    4  C22 UNL     1      10.350  -1.493  48.625  1.00  0.00     0.047 A 
HETATM    5  C23 UNL     1      11.077  -2.146  49.735  1.00  0.00     0.196 A 
BRANCH   3   6
HETATM    6  C2  UNL     1      12.180  -2.924  47.496  1.00  0.00     0.009 C 
HETATM    7  C1  UNL     1      12.402  -1.800  46.525  1.00  0.00     0.006 C 
ENDBRANCH   3   6
BRANCH   5   8
HETATM    8  N3  UNL     1      12.342  -1.786  50.255  1.00  0.00    -0.074 N 
HETATM    9  C24 UNL     1      12.352  -0.393  50.632  1.00  0.00     0.267 C 
ATOM     10  H32 UNL     1      12.621  -2.391  51.028  1.00  0.00     0.277 HD
ATOM     11  H31 UNL     1      13.097  -2.010  49.607  1.00  0.00     0.277 HD
ENDBRANCH   5   8
ENDBRANCH   2   3
ENDBRANCH   1   2
BRANCH   1  12
HETATM   12  C5  UNL     1       9.282  -4.017  46.086  1.00  0.00     0.154 C 
BRANCH  12  13
HETATM   13  C6  UNL     1       9.873  -5.333  45.782  1.00  0.00     0.292 C 
BRANCH  13  14
HETATM   14  N2  UNL     1      10.550  -5.483  44.559  1.00  0.00     0.090 N 
HETATM   15  C7  UNL     1      11.718  -6.297  44.558  1.00  0.00     0.272 C 
HETATM   16  C8  UNL     1      11.173  -7.689  44.695  1.00  0.00     0.032 C 
HETATM   17  C9  UNL     1      10.039  -7.628  43.675  1.00  0.00     0.032 C 
HETATM   18  C10 UNL     1       9.681  -6.170  43.616  1.00  0.00     0.272 C 
ENDBRANCH  13  14
ENDBRANCH  12  13
ENDBRANCH   1  12
BRANCH   1  19
HETATM   19  C11 UNL     1       7.615  -3.854  47.928  1.00  0.00     0.122 C 
BRANCH  19  20
HETATM   20  O1  UNL     1       6.812  -4.664  47.233  1.00  0.00    -0.349 OA
ATOM     21  H1  UNL     1       6.404  -5.328  47.775  1.00  0.00     0.219 HD
ENDBRANCH  19  20
BRANCH  19  22
HETATM   22  C12 UNL     1       6.826  -3.073  48.878  1.00  0.00     0.026 C 
HETATM   23  C13 UNL     1       6.887  -1.624  48.452  1.00  0.00     0.022 C 
HETATM   24  C14 UNL     1       6.305  -0.721  49.498  1.00  0.00    -0.013 C 
HETATM   25  C15 UNL     1       4.896  -1.120  49.800  1.00  0.00     0.009 C 
HETATM   26  C19 UNL     1       7.158  -0.863  50.739  1.00  0.00     0.009 C 
HETATM   27  C16 UNL     1       4.869  -2.568  50.255  1.00  0.00    -0.013 C 
HETATM   28  C17 UNL     1       5.667  -2.646  51.534  1.00  0.00     0.009 C 
HETATM   29  C21 UNL     1       5.439  -3.479  49.163  1.00  0.00     0.022 C 
HETATM   30  C18 UNL     1       7.116  -2.277  51.214  1.00  0.00    -0.013 C 
HETATM   31  C20 UNL     1       7.606  -3.244  50.213  1.00  0.00     0.022 C 
ENDBRANCH  19  22
ENDBRANCH   1  19
TORSDOF 10
ENDMDL
