MODEL 1
REMARK VINA RESULT: -7.887538817      0.000      0.000
REMARK  10 active torsions:
REMARK  status: ('A' for Active; 'I' for Inactive)
REMARK    1  A    between atoms: C2_2  and  C3_3 
REMARK    2  A    between atoms: C3_3  and  C4_4 
REMARK    3  A    between atoms: C4_4  and  N1_5 
REMARK    4  A    between atoms: N1_5  and  C5_6 
REMARK    5  A    between atoms: N1_5  and  C14_16 
REMARK    6  A    between atoms: C5_6  and  C6_7 
REMARK    7  A    between atoms: C6_7  and  C7_8 
REMARK    8  A    between atoms: C7_8  and  N2_9 
REMARK    9  A    between atoms: C14_16  and  N3_18 
REMARK   10  A    between atoms: N3_18  and  C15_20 
ROOT
HETATM    1  N1  UNL     1      10.347  -3.541  47.178  1.00  0.00    -0.358 N 
ENDROOT
BRANCH   1   2
HETATM    2  C4  UNL     1      11.824  -3.422  46.848  1.00  0.00     0.125 C 
BRANCH   2   3
HETATM    3  C3  UNL     1      12.282  -2.012  46.964  1.00  0.00     0.019 C 
BRANCH   3   4
HETATM    4  C2  UNL     1      13.493  -2.009  47.899  1.00  0.00    -0.003 C 
HETATM    5  C1  UNL     1      13.100  -1.288  49.162  1.00  0.00     0.005 C 
ENDBRANCH   3   4
ENDBRANCH   2   3
ENDBRANCH   1   2
BRANCH   1   6
HETATM    6  C5  UNL     1       9.651  -4.180  46.127  1.00  0.00     0.127 C 
BRANCH   6   7
HETATM    7  C6  UNL     1       8.787  -5.326  46.430  1.00  0.00     0.050 C 
BRANCH   7   8
HETATM    8  C7  UNL     1       9.378  -6.606  45.779  1.00  0.00     0.274 C 
BRANCH   8   9
HETATM    9  N2  UNL     1      10.251  -6.221  44.688  1.00  0.00     0.088 N 
HETATM   10  C8  UNL     1      11.542  -6.827  44.903  1.00  0.00     0.272 C 
HETATM   11  C9  UNL     1      12.279  -7.075  43.605  1.00  0.00     0.031 C 
HETATM   12  C10 UNL     1      11.516  -8.025  42.704  1.00  0.00     0.007 C 
HETATM   13  C11 UNL     1      10.097  -8.143  43.273  1.00  0.00     0.010 C 
HETATM   14  C12 UNL     1       9.198  -8.912  42.351  1.00  0.00     0.011 C 
HETATM   15  C13 UNL     1       9.623  -6.696  43.468  1.00  0.00     0.276 C 
ENDBRANCH   8   9
ENDBRANCH   7   8
ENDBRANCH   6   7
ENDBRANCH   1   6
BRANCH   1  16
HETATM   16  C14 UNL     1       9.897  -3.046  48.389  1.00  0.00     0.170 C 
HETATM   17  S1  UNL     1      10.417  -3.932  49.753  1.00  0.00    -0.041 SA
BRANCH  16  18
HETATM   18  N3  UNL     1       9.107  -1.948  48.737  1.00  0.00    -0.361 N 
ATOM     19  H3  UNL     1       9.383  -1.015  48.429  1.00  0.00     0.162 HD
BRANCH  18  20
HETATM   20  C15 UNL     1       7.894  -2.111  49.534  1.00  0.00     0.113 C 
HETATM   21  C16 UNL     1       7.237  -0.749  49.647  1.00  0.00     0.296 C 
HETATM   22  N4  UNL     1       5.962  -0.738  50.258  1.00  0.00     0.086 N 
HETATM   23  C17 UNL     1       5.359   0.562  50.027  1.00  0.00     0.310 C 
HETATM   24  C18 UNL     1       5.046  -1.741  49.789  1.00  0.00     0.280 C 
HETATM   25  C19 UNL     1       5.677  -3.096  49.636  1.00  0.00    -0.019 C 
HETATM   26  C20 UNL     1       4.692  -3.975  48.882  1.00  0.00     0.016 C 
HETATM   27  C21 UNL     1       5.991  -3.757  50.932  1.00  0.00     0.016 C 
HETATM   28  C22 UNL     1       6.889  -2.944  48.745  1.00  0.00     0.037 C 
ENDBRANCH  18  20
ENDBRANCH  16  18
ENDBRANCH   1  16
TORSDOF 10
ENDMDL
MODEL 2
REMARK VINA RESULT: -7.809099128     11.907     16.561
REMARK  10 active torsions:
REMARK  status: ('A' for Active; 'I' for Inactive)
REMARK    1  A    between atoms: C2_2  and  C3_3 
REMARK    2  A    between atoms: C3_3  and  C4_4 
REMARK    3  A    between atoms: C4_4  and  N1_5 
REMARK    4  A    between atoms: N1_5  and  C5_6 
REMARK    5  A    between atoms: N1_5  and  C14_16 
REMARK    6  A    between atoms: C5_6  and  C6_7 
REMARK    7  A    between atoms: C6_7  and  C7_8 
REMARK    8  A    between atoms: C7_8  and  N2_9 
REMARK    9  A    between atoms: C14_16  and  N3_18 
REMARK   10  A    between atoms: N3_18  and  C15_20 
ROOT
HETATM    1  N1  UNL     1       8.550 -10.960  35.778  1.00  0.00    -0.358 N 
ENDROOT
BRANCH   1   2
HETATM    2  C4  UNL     1       9.319 -10.772  37.073  1.00  0.00     0.125 C 
BRANCH   2   3
HETATM    3  C3  UNL     1      10.349  -9.709  36.930  1.00  0.00     0.019 C 
BRANCH   3   4
HETATM    4  C2  UNL     1      10.736  -9.267  38.342  1.00  0.00    -0.003 C 
HETATM    5  C1  UNL     1      11.999  -8.451  38.241  1.00  0.00     0.005 C 
ENDBRANCH   3   4
ENDBRANCH   2   3
ENDBRANCH   1   2
BRANCH   1   6
HETATM    6  C5  UNL     1       8.697  -9.830  34.942  1.00  0.00     0.127 C 
BRANCH   6   7
HETATM    7  C6  UNL     1       7.520  -9.014  34.625  1.00  0.00     0.050 C 
BRANCH   7   8
HETATM    8  C7  UNL     1       7.856  -8.055  33.451  1.00  0.00     0.274 C 
BRANCH   8   9
HETATM    9  N2  UNL     1       7.020  -8.389  32.314  1.00  0.00     0.088 N 
HETATM   10  C8  UNL     1       6.205  -9.525  32.667  1.00  0.00     0.272 C 
HETATM   11  C9  UNL     1       4.897  -9.545  31.906  1.00  0.00     0.031 C 
HETATM   12  C10 UNL     1       4.058  -8.320  32.209  1.00  0.00     0.007 C 
HETATM   13  C11 UNL     1       4.971  -7.313  32.918  1.00  0.00     0.010 C 
HETATM   14  C12 UNL     1       4.294  -5.987  33.095  1.00  0.00     0.011 C 
HETATM   15  C13 UNL     1       6.220  -7.210  32.031  1.00  0.00     0.276 C 
ENDBRANCH   8   9
ENDBRANCH   7   8
ENDBRANCH   6   7
ENDBRANCH   1   6
BRANCH   1  16
HETATM   16  C14 UNL     1       7.851 -12.139  35.587  1.00  0.00     0.170 C 
HETATM   17  S1  UNL     1       8.438 -13.463  36.492  1.00  0.00    -0.041 SA
BRANCH  16  18
HETATM   18  N3  UNL     1       6.740 -12.475  34.811  1.00  0.00    -0.361 N 
ATOM     19  H3  UNL     1       5.845 -12.020  34.995  1.00  0.00     0.162 HD
BRANCH  18  20
HETATM   20  C15 UNL     1       6.835 -13.466  33.743  1.00  0.00     0.113 C 
HETATM   21  C16 UNL     1       5.659 -13.246  32.811  1.00  0.00     0.296 C 
HETATM   22  N4  UNL     1       5.669 -14.019  31.627  1.00  0.00     0.086 N 
HETATM   23  C17 UNL     1       4.659 -13.488  30.730  1.00  0.00     0.310 C 
HETATM   24  C18 UNL     1       6.920 -14.046  30.920  1.00  0.00     0.280 C 
HETATM   25  C19 UNL     1       8.108 -14.230  31.822  1.00  0.00    -0.019 C 
HETATM   26  C20 UNL     1       9.355 -13.963  30.994  1.00  0.00     0.016 C 
HETATM   27  C21 UNL     1       8.215 -15.601  32.392  1.00  0.00     0.016 C 
HETATM   28  C22 UNL     1       8.055 -13.155  32.882  1.00  0.00     0.037 C 
ENDBRANCH  18  20
ENDBRANCH  16  18
ENDBRANCH   1  16
TORSDOF 10
ENDMDL
MODEL 3
REMARK VINA RESULT: -7.496632296     11.597     15.306
REMARK  10 active torsions:
REMARK  status: ('A' for Active; 'I' for Inactive)
REMARK    1  A    between atoms: C2_2  and  C3_3 
REMARK    2  A    between atoms: C3_3  and  C4_4 
REMARK    3  A    between atoms: C4_4  and  N1_5 
REMARK    4  A    between atoms: N1_5  and  C5_6 
REMARK    5  A    between atoms: N1_5  and  C14_16 
REMARK    6  A    between atoms: C5_6  and  C6_7 
REMARK    7  A    between atoms: C6_7  and  C7_8 
REMARK    8  A    between atoms: C7_8  and  N2_9 
REMARK    9  A    between atoms: C14_16  and  N3_18 
REMARK   10  A    between atoms: N3_18  and  C15_20 
ROOT
HETATM    1  N1  UNL     1       9.093 -10.202  35.903  1.00  0.00    -0.358 N 
ENDROOT
BRANCH   1   2
HETATM    2  C4  UNL     1      10.271  -9.608  36.654  1.00  0.00     0.125 C 
BRANCH   2   3
HETATM    3  C3  UNL     1      10.079  -9.729  38.124  1.00  0.00     0.019 C 
BRANCH   3   4
HETATM    4  C2  UNL     1      11.146  -8.857  38.788  1.00  0.00    -0.003 C 
HETATM    5  C1  UNL     1      12.157  -8.481  37.735  1.00  0.00     0.005 C 
ENDBRANCH   3   4
ENDBRANCH   2   3
ENDBRANCH   1   2
BRANCH   1   6
HETATM    6  C5  UNL     1       8.723 -11.448  36.459  1.00  0.00     0.127 C 
BRANCH   6   7
HETATM    7  C6  UNL     1       7.568 -12.165  35.909  1.00  0.00     0.050 C 
BRANCH   7   8
HETATM    8  C7  UNL     1       7.772 -13.693  36.093  1.00  0.00     0.274 C 
BRANCH   8   9
HETATM    9  N2  UNL     1       9.085 -14.057  35.597  1.00  0.00     0.088 N 
HETATM   10  C8  UNL     1       9.646 -15.049  36.480  1.00  0.00     0.272 C 
HETATM   11  C9  UNL     1      10.621 -15.961  35.767  1.00  0.00     0.031 C 
HETATM   12  C10 UNL     1       9.947 -16.731  34.649  1.00  0.00     0.007 C 
HETATM   13  C11 UNL     1       8.586 -16.069  34.403  1.00  0.00     0.010 C 
HETATM   14  C12 UNL     1       7.912 -16.632  33.188  1.00  0.00     0.011 C 
HETATM   15  C13 UNL     1       8.890 -14.572  34.252  1.00  0.00     0.276 C 
ENDBRANCH   8   9
ENDBRANCH   7   8
ENDBRANCH   6   7
ENDBRANCH   1   6
BRANCH   1  16
HETATM   16  C14 UNL     1       8.559  -9.493  34.841  1.00  0.00     0.170 C 
HETATM   17  S1  UNL     1       9.644  -9.231  33.549  1.00  0.00    -0.041 SA
BRANCH  16  18
HETATM   18  N3  UNL     1       7.296  -8.954  34.592  1.00  0.00    -0.361 N 
ATOM     19  H3  UNL     1       6.729  -8.625  35.374  1.00  0.00     0.162 HD
BRANCH  18  20
HETATM   20  C15 UNL     1       6.770  -8.851  33.233  1.00  0.00     0.113 C 
HETATM   21  C16 UNL     1       6.068 -10.157  32.917  1.00  0.00     0.296 C 
HETATM   22  N4  UNL     1       5.361 -10.185  31.692  1.00  0.00     0.086 N 
HETATM   23  C17 UNL     1       4.523 -11.370  31.679  1.00  0.00     0.310 C 
HETATM   24  C18 UNL     1       4.522  -9.046  31.439  1.00  0.00     0.280 C 
HETATM   25  C19 UNL     1       5.181  -7.738  31.775  1.00  0.00    -0.019 C 
HETATM   26  C20 UNL     1       4.107  -6.662  31.727  1.00  0.00     0.016 C 
HETATM   27  C21 UNL     1       6.263  -7.355  30.827  1.00  0.00     0.016 C 
HETATM   28  C22 UNL     1       5.654  -7.812  33.208  1.00  0.00     0.037 C 
ENDBRANCH  18  20
ENDBRANCH  16  18
ENDBRANCH   1  16
TORSDOF 10
ENDMDL
MODEL 4
REMARK VINA RESULT: -7.444060097     11.202     15.841
REMARK  10 active torsions:
REMARK  status: ('A' for Active; 'I' for Inactive)
REMARK    1  A    between atoms: C2_2  and  C3_3 
REMARK    2  A    between atoms: C3_3  and  C4_4 
REMARK    3  A    between atoms: C4_4  and  N1_5 
REMARK    4  A    between atoms: N1_5  and  C5_6 
REMARK    5  A    between atoms: N1_5  and  C14_16 
REMARK    6  A    between atoms: C5_6  and  C6_7 
REMARK    7  A    between atoms: C6_7  and  C7_8 
REMARK    8  A    between atoms: C7_8  and  N2_9 
REMARK    9  A    between atoms: C14_16  and  N3_18 
REMARK   10  A    between atoms: N3_18  and  C15_20 
ROOT
HETATM    1  N1  UNL     1       8.918 -10.709  35.769  1.00  0.00    -0.358 N 
ENDROOT
BRANCH   1   2
HETATM    2  C4  UNL     1      10.148  -9.962  36.254  1.00  0.00     0.125 C 
BRANCH   2   3
HETATM    3  C3  UNL     1      10.141  -9.834  37.736  1.00  0.00     0.019 C 
BRANCH   3   4
HETATM    4  C2  UNL     1      11.296  -8.903  38.110  1.00  0.00    -0.003 C 
HETATM    5  C1  UNL     1      11.309  -8.762  39.610  1.00  0.00     0.005 C 
ENDBRANCH   3   4
ENDBRANCH   2   3
ENDBRANCH   1   2
BRANCH   1   6
HETATM    6  C5  UNL     1       8.638 -11.808  36.612  1.00  0.00     0.127 C 
BRANCH   6   7
HETATM    7  C6  UNL     1       9.068 -13.151  36.207  1.00  0.00     0.050 C 
BRANCH   7   8
HETATM    8  C7  UNL     1       7.921 -13.848  35.425  1.00  0.00     0.274 C 
BRANCH   8   9
HETATM    9  N2  UNL     1       8.424 -14.284  34.137  1.00  0.00     0.088 N 
HETATM   10  C8  UNL     1       8.525 -15.722  34.152  1.00  0.00     0.272 C 
HETATM   11  C9  UNL     1       8.375 -16.319  32.769  1.00  0.00     0.031 C 
HETATM   12  C10 UNL     1       7.019 -16.003  32.172  1.00  0.00     0.007 C 
HETATM   13  C11 UNL     1       6.393 -14.898  33.033  1.00  0.00     0.010 C 
HETATM   14  C12 UNL     1       5.129 -14.374  32.421  1.00  0.00     0.011 C 
HETATM   15  C13 UNL     1       7.475 -13.815  33.143  1.00  0.00     0.276 C 
ENDBRANCH   8   9
ENDBRANCH   7   8
ENDBRANCH   6   7
ENDBRANCH   1   6
BRANCH   1  16
HETATM   16  C14 UNL     1       8.265 -10.247  34.640  1.00  0.00     0.170 C 
HETATM   17  S1  UNL     1       9.264  -9.407  33.539  1.00  0.00    -0.041 SA
BRANCH  16  18
HETATM   18  N3  UNL     1       6.944 -10.340  34.196  1.00  0.00    -0.361 N 
ATOM     19  H3  UNL     1       6.260 -10.841  34.763  1.00  0.00     0.162 HD
BRANCH  18  20
HETATM   20  C15 UNL     1       6.525  -9.732  32.936  1.00  0.00     0.113 C 
HETATM   21  C16 UNL     1       5.597 -10.712  32.244  1.00  0.00     0.296 C 
HETATM   22  N4  UNL     1       4.967 -10.230  31.074  1.00  0.00     0.086 N 
HETATM   23  C17 UNL     1       3.914 -11.159  30.709  1.00  0.00     0.310 C 
HETATM   24  C18 UNL     1       4.384  -8.920  31.184  1.00  0.00     0.280 C 
HETATM   25  C19 UNL     1       5.268  -7.935  31.895  1.00  0.00    -0.019 C 
HETATM   26  C20 UNL     1       4.432  -6.698  32.184  1.00  0.00     0.016 C 
HETATM   27  C21 UNL     1       6.454  -7.517  31.100  1.00  0.00     0.016 C 
HETATM   28  C22 UNL     1       5.638  -8.528  33.235  1.00  0.00     0.037 C 
ENDBRANCH  18  20
ENDBRANCH  16  18
ENDBRANCH   1  16
TORSDOF 10
ENDMDL
MODEL 5
REMARK VINA RESULT: -7.341535931     12.222     16.710
REMARK  10 active torsions:
REMARK  status: ('A' for Active; 'I' for Inactive)
REMARK    1  A    between atoms: C2_2  and  C3_3 
REMARK    2  A    between atoms: C3_3  and  C4_4 
REMARK    3  A    between atoms: C4_4  and  N1_5 
REMARK    4  A    between atoms: N1_5  and  C5_6 
REMARK    5  A    between atoms: N1_5  and  C14_16 
REMARK    6  A    between atoms: C5_6  and  C6_7 
REMARK    7  A    between atoms: C6_7  and  C7_8 
REMARK    8  A    between atoms: C7_8  and  N2_9 
REMARK    9  A    between atoms: C14_16  and  N3_18 
REMARK   10  A    between atoms: N3_18  and  C15_20 
ROOT
HETATM    1  N1  UNL     1       8.487 -10.959  35.748  1.00  0.00    -0.358 N 
ENDROOT
BRANCH   1   2
HETATM    2  C4  UNL     1       9.315 -10.572  36.960  1.00  0.00     0.125 C 
BRANCH   2   3
HETATM    3  C3  UNL     1      10.379  -9.602  36.589  1.00  0.00     0.019 C 
BRANCH   3   4
HETATM    4  C2  UNL     1      11.026  -9.127  37.891  1.00  0.00    -0.003 C 
HETATM    5  C1  UNL     1      12.245  -8.316  37.533  1.00  0.00     0.005 C 
ENDBRANCH   3   4
ENDBRANCH   2   3
ENDBRANCH   1   2
BRANCH   1   6
HETATM    6  C5  UNL     1       8.418  -9.887  34.829  1.00  0.00     0.127 C 
BRANCH   6   7
HETATM    7  C6  UNL     1       7.202  -9.067  34.772  1.00  0.00     0.050 C 
BRANCH   7   8
HETATM    8  C7  UNL     1       6.537  -9.225  33.378  1.00  0.00     0.274 C 
BRANCH   8   9
HETATM    9  N2  UNL     1       5.659  -8.095  33.143  1.00  0.00     0.088 N 
HETATM   10  C8  UNL     1       6.275  -7.238  32.161  1.00  0.00     0.272 C 
HETATM   11  C9  UNL     1       5.252  -6.459  31.363  1.00  0.00     0.031 C 
HETATM   12  C10 UNL     1       4.330  -7.381  30.591  1.00  0.00     0.007 C 
HETATM   13  C11 UNL     1       4.532  -8.793  31.152  1.00  0.00     0.010 C 
HETATM   14  C12 UNL     1       3.529  -9.756  30.590  1.00  0.00     0.011 C 
HETATM   15  C13 UNL     1       4.398  -8.643  32.674  1.00  0.00     0.276 C 
ENDBRANCH   8   9
ENDBRANCH   7   8
ENDBRANCH   6   7
ENDBRANCH   1   6
BRANCH   1  16
HETATM   16  C14 UNL     1       7.944 -12.230  35.695  1.00  0.00     0.170 C 
HETATM   17  S1  UNL     1       8.800 -13.404  36.592  1.00  0.00    -0.041 SA
BRANCH  16  18
HETATM   18  N3  UNL     1       6.815 -12.760  35.066  1.00  0.00    -0.361 N 
ATOM     19  H3  UNL     1       6.009 -13.033  35.630  1.00  0.00     0.162 HD
BRANCH  18  20
HETATM   20  C15 UNL     1       6.767 -12.932  33.616  1.00  0.00     0.113 C 
HETATM   21  C16 UNL     1       8.084 -13.547  33.187  1.00  0.00     0.296 C 
HETATM   22  N4  UNL     1       8.162 -13.929  31.828  1.00  0.00     0.086 N 
HETATM   23  C17 UNL     1       9.346 -14.751  31.654  1.00  0.00     0.310 C 
HETATM   24  C18 UNL     1       7.034 -14.668  31.330  1.00  0.00     0.280 C 
HETATM   25  C19 UNL     1       5.713 -14.100  31.767  1.00  0.00    -0.019 C 
HETATM   26  C20 UNL     1       4.640 -15.117  31.414  1.00  0.00     0.016 C 
HETATM   27  C21 UNL     1       5.369 -12.813  31.103  1.00  0.00     0.016 C 
HETATM   28  C22 UNL     1       5.730 -13.997  33.275  1.00  0.00     0.037 C 
ENDBRANCH  18  20
ENDBRANCH  16  18
ENDBRANCH   1  16
TORSDOF 10
ENDMDL
