MODEL 1
REMARK VINA RESULT: -9.370864446      0.000      0.000
REMARK  9 active torsions:
REMARK  status: ('A' for Active; 'I' for Inactive)
REMARK    1  A    between atoms: C2_2  and  C3_3 
REMARK    2  A    between atoms: C3_3  and  C4_4 
REMARK    3  A    between atoms: C4_4  and  C5_5 
REMARK    4  A    between atoms: C5_5  and  C6_6 
REMARK    5  A    between atoms: C6_6  and  C7_7 
REMARK    6  A    between atoms: C7_7  and  C8_8 
REMARK    7  A    between atoms: C8_8  and  N1_9 
REMARK       I    between atoms: N2_19  and  C17_21 
REMARK    8  A    between atoms: C17_21  and  C18_23 
REMARK    9  A    between atoms: C18_23  and  N3_24 
ROOT
HETATM    1  C1  UNL     1      10.045  -9.936  42.470  1.00  0.00     0.063 C 
HETATM    2  C2  UNL     1      10.519  -8.656  41.853  1.00  0.00    -0.014 C 
HETATM    3  N2  UNL     1      10.185  -7.533  42.379  1.00  0.00    -0.333 N 
ATOM      4  H2  UNL     1      10.513  -6.668  41.949  1.00  0.00     0.168 HD
HETATM    5  C17 UNL     1       9.384  -7.463  43.525  1.00  0.00     0.258 C 
HETATM    6  O2  UNL     1       8.198  -7.867  43.502  1.00  0.00    -0.270 OA
ENDROOT
BRANCH   2   7
HETATM    7  C3  UNL     1      11.362  -8.655  40.647  1.00  0.00     0.052 C 
BRANCH   7   8
HETATM    8  C4  UNL     1      10.645  -9.217  39.419  1.00  0.00     0.006 C 
BRANCH   8   9
HETATM    9  C5  UNL     1      11.489  -8.843  38.239  1.00  0.00     0.000 C 
BRANCH   9  10
HETATM   10  C6  UNL     1      10.933  -9.259  36.920  1.00  0.00     0.002 C 
BRANCH  10  11
HETATM   11  C7  UNL     1       9.615  -9.965  37.014  1.00  0.00     0.020 C 
BRANCH  11  12
HETATM   12  C8  UNL     1       9.510 -11.101  36.011  1.00  0.00     0.123 C 
BRANCH  12  13
HETATM   13  N1  UNL     1       8.448 -10.876  35.074  1.00  0.00    -0.382 N 
HETATM   14  C9  UNL     1       8.505 -10.098  34.075  1.00  0.00    -0.004 C 
HETATM   15  C10 UNL     1       9.366  -9.152  33.335  1.00  0.00     0.060 C 
HETATM   16  C13 UNL     1       7.216 -10.100  33.312  1.00  0.00     0.102 C 
HETATM   17  C11 UNL     1       8.381  -8.054  32.949  1.00  0.00     0.085 C 
HETATM   18  C12 UNL     1       7.031  -8.648  33.103  1.00  0.00     0.137 C 
HETATM   19  O1  UNL     1       5.978  -8.055  33.064  1.00  0.00    -0.297 OA
HETATM   20  C14 UNL     1       6.233 -10.712  34.279  1.00  0.00     0.042 C 
HETATM   21  C15 UNL     1       7.167 -11.511  35.164  1.00  0.00     0.081 C 
HETATM   22  C16 UNL     1       7.296 -12.887  34.546  1.00  0.00     0.032 C 
ENDBRANCH  12  13
ENDBRANCH  11  12
ENDBRANCH  10  11
ENDBRANCH   9  10
ENDBRANCH   8   9
ENDBRANCH   7   8
ENDBRANCH   2   7
BRANCH   5  23
HETATM   23  C18 UNL     1       9.855  -6.912  44.848  1.00  0.00     0.203 C 
HETATM   24  C19 UNL     1      10.188  -5.462  44.595  1.00  0.00     0.049 C 
HETATM   25  C20 UNL     1      10.408  -4.851  45.985  1.00  0.00     0.003 C 
HETATM   26  C21 UNL     1       9.017  -4.699  46.554  1.00  0.00     0.000 C 
HETATM   27  C22 UNL     1       8.209  -5.938  46.501  1.00  0.00     0.003 C 
HETATM   28  C23 UNL     1       8.862  -7.137  45.918  1.00  0.00     0.049 C 
BRANCH  23  29
HETATM   29  N3  UNL     1      11.123  -7.575  45.114  1.00  0.00    -0.061 N 
ATOM     30  H33 UNL     1      11.560  -7.973  44.283  1.00  0.00     0.275 HD
ATOM     31  H32 UNL     1      11.879  -6.934  45.352  1.00  0.00     0.275 HD
ATOM     32  H31 UNL     1      10.923  -8.261  45.841  1.00  0.00     0.275 HD
ENDBRANCH  23  29
ENDBRANCH   5  23
TORSDOF 9
ENDMDL
MODEL 2
REMARK VINA RESULT: -9.214819223      1.739      2.717
REMARK  9 active torsions:
REMARK  status: ('A' for Active; 'I' for Inactive)
REMARK    1  A    between atoms: C2_2  and  C3_3 
REMARK    2  A    between atoms: C3_3  and  C4_4 
REMARK    3  A    between atoms: C4_4  and  C5_5 
REMARK    4  A    between atoms: C5_5  and  C6_6 
REMARK    5  A    between atoms: C6_6  and  C7_7 
REMARK    6  A    between atoms: C7_7  and  C8_8 
REMARK    7  A    between atoms: C8_8  and  N1_9 
REMARK       I    between atoms: N2_19  and  C17_21 
REMARK    8  A    between atoms: C17_21  and  C18_23 
REMARK    9  A    between atoms: C18_23  and  N3_24 
ROOT
HETATM    1  C1  UNL     1      10.040  -9.963  42.446  1.00  0.00     0.063 C 
HETATM    2  C2  UNL     1      10.620  -8.712  41.864  1.00  0.00    -0.014 C 
HETATM    3  N2  UNL     1      10.308  -7.572  42.365  1.00  0.00    -0.333 N 
ATOM      4  H2  UNL     1      10.709  -6.726  41.960  1.00  0.00     0.168 HD
HETATM    5  C17 UNL     1       9.434  -7.456  43.452  1.00  0.00     0.258 C 
HETATM    6  O2  UNL     1       8.233  -7.800  43.346  1.00  0.00    -0.270 OA
ENDROOT
BRANCH   2   7
HETATM    7  C3  UNL     1      11.545  -8.758  40.720  1.00  0.00     0.052 C 
BRANCH   7   8
HETATM    8  C4  UNL     1      10.830  -8.963  39.384  1.00  0.00     0.006 C 
BRANCH   8   9
HETATM    9  C5  UNL     1      11.774  -8.476  38.329  1.00  0.00     0.000 C 
BRANCH   9  10
HETATM   10  C6  UNL     1      11.476  -8.964  36.953  1.00  0.00     0.002 C 
BRANCH  10  11
HETATM   11  C7  UNL     1      10.180  -9.709  36.843  1.00  0.00     0.020 C 
BRANCH  11  12
HETATM   12  C8  UNL     1       9.876 -10.103  35.408  1.00  0.00     0.123 C 
BRANCH  12  13
HETATM   13  N1  UNL     1       8.758 -10.999  35.337  1.00  0.00    -0.382 N 
HETATM   14  C9  UNL     1       8.639 -12.077  35.995  1.00  0.00    -0.004 C 
HETATM   15  C10 UNL     1       9.291 -12.958  36.986  1.00  0.00     0.060 C 
HETATM   16  C13 UNL     1       7.350 -12.768  35.675  1.00  0.00     0.102 C 
HETATM   17  C11 UNL     1       8.957 -14.346  36.451  1.00  0.00     0.085 C 
HETATM   18  C12 UNL     1       7.831 -14.156  35.506  1.00  0.00     0.137 C 
HETATM   19  O1  UNL     1       7.388 -14.982  34.742  1.00  0.00    -0.297 OA
HETATM   20  C14 UNL     1       6.904 -12.111  34.392  1.00  0.00     0.042 C 
HETATM   21  C15 UNL     1       7.623 -10.781  34.491  1.00  0.00     0.081 C 
HETATM   22  C16 UNL     1       6.694  -9.827  35.210  1.00  0.00     0.032 C 
ENDBRANCH  12  13
ENDBRANCH  11  12
ENDBRANCH  10  11
ENDBRANCH   9  10
ENDBRANCH   8   9
ENDBRANCH   7   8
ENDBRANCH   2   7
BRANCH   5  23
HETATM   23  C18 UNL     1       9.838  -6.926  44.805  1.00  0.00     0.203 C 
HETATM   24  C19 UNL     1      10.137  -5.460  44.600  1.00  0.00     0.049 C 
HETATM   25  C20 UNL     1      10.287  -4.879  46.012  1.00  0.00     0.003 C 
HETATM   26  C21 UNL     1       8.871  -4.781  46.530  1.00  0.00     0.000 C 
HETATM   27  C22 UNL     1       8.103  -6.041  46.417  1.00  0.00     0.003 C 
HETATM   28  C23 UNL     1       8.812  -7.205  45.830  1.00  0.00     0.049 C 
BRANCH  23  29
HETATM   29  N3  UNL     1      11.114  -7.558  45.104  1.00  0.00    -0.061 N 
ATOM     30  H33 UNL     1      11.041  -8.344  45.749  1.00  0.00     0.275 HD
ATOM     31  H32 UNL     1      11.505  -8.082  44.321  1.00  0.00     0.275 HD
ATOM     32  H31 UNL     1      11.718  -6.807  45.437  1.00  0.00     0.275 HD
ENDBRANCH  23  29
ENDBRANCH   5  23
TORSDOF 9
ENDMDL
MODEL 3
REMARK VINA RESULT: -8.878022566      1.621      2.377
REMARK  9 active torsions:
REMARK  status: ('A' for Active; 'I' for Inactive)
REMARK    1  A    between atoms: C2_2  and  C3_3 
REMARK    2  A    between atoms: C3_3  and  C4_4 
REMARK    3  A    between atoms: C4_4  and  C5_5 
REMARK    4  A    between atoms: C5_5  and  C6_6 
REMARK    5  A    between atoms: C6_6  and  C7_7 
REMARK    6  A    between atoms: C7_7  and  C8_8 
REMARK    7  A    between atoms: C8_8  and  N1_9 
REMARK       I    between atoms: N2_19  and  C17_21 
REMARK    8  A    between atoms: C17_21  and  C18_23 
REMARK    9  A    between atoms: C18_23  and  N3_24 
ROOT
HETATM    1  C1  UNL     1      11.348  -7.813  44.791  1.00  0.00     0.063 C 
HETATM    2  C2  UNL     1      10.739  -6.931  43.746  1.00  0.00    -0.014 C 
HETATM    3  N2  UNL     1       9.923  -6.002  44.092  1.00  0.00    -0.333 N 
ATOM      4  H2  UNL     1       9.514  -5.408  43.370  1.00  0.00     0.168 HD
HETATM    5  C17 UNL     1       9.578  -5.782  45.431  1.00  0.00     0.258 C 
HETATM    6  O2  UNL     1       8.951  -6.651  46.081  1.00  0.00    -0.270 OA
ENDROOT
BRANCH   2   7
HETATM    7  C3  UNL     1      11.055  -7.106  42.319  1.00  0.00     0.052 C 
BRANCH   7   8
HETATM    8  C4  UNL     1      11.492  -8.531  41.977  1.00  0.00     0.006 C 
BRANCH   8   9
HETATM    9  C5  UNL     1      10.470  -9.060  41.018  1.00  0.00     0.000 C 
BRANCH   9  10
HETATM   10  C6  UNL     1      10.879  -9.018  39.586  1.00  0.00     0.002 C 
BRANCH  10  11
HETATM   11  C7  UNL     1       9.933  -9.726  38.665  1.00  0.00     0.020 C 
BRANCH  11  12
HETATM   12  C8  UNL     1      10.461  -9.776  37.242  1.00  0.00     0.123 C 
BRANCH  12  13
HETATM   13  N1  UNL     1       9.463 -10.254  36.330  1.00  0.00    -0.382 N 
HETATM   14  C9  UNL     1       9.355  -9.909  35.114  1.00  0.00    -0.004 C 
HETATM   15  C10 UNL     1       9.936  -9.066  34.048  1.00  0.00     0.060 C 
HETATM   16  C13 UNL     1       8.199 -10.596  34.456  1.00  0.00     0.102 C 
HETATM   17  C11 UNL     1       8.693  -8.557  33.328  1.00  0.00     0.085 C 
HETATM   18  C12 UNL     1       7.588  -9.455  33.740  1.00  0.00     0.137 C 
HETATM   19  O1  UNL     1       6.409  -9.287  33.529  1.00  0.00    -0.297 OA
HETATM   20  C14 UNL     1       7.380 -11.104  35.617  1.00  0.00     0.042 C 
HETATM   21  C15 UNL     1       8.442 -11.190  36.694  1.00  0.00     0.081 C 
HETATM   22  C16 UNL     1       9.043 -12.576  36.615  1.00  0.00     0.032 C 
ENDBRANCH  12  13
ENDBRANCH  11  12
ENDBRANCH  10  11
ENDBRANCH   9  10
ENDBRANCH   8   9
ENDBRANCH   7   8
ENDBRANCH   2   7
BRANCH   5  23
HETATM   23  C18 UNL     1       9.915  -4.523  46.190  1.00  0.00     0.203 C 
HETATM   24  C19 UNL     1       9.265  -3.395  45.426  1.00  0.00     0.049 C 
HETATM   25  C20 UNL     1       9.387  -2.168  46.339  1.00  0.00     0.003 C 
HETATM   26  C21 UNL     1       8.342  -2.389  47.407  1.00  0.00     0.000 C 
HETATM   27  C22 UNL     1       8.430  -3.710  48.068  1.00  0.00     0.003 C 
HETATM   28  C23 UNL     1       9.512  -4.616  47.608  1.00  0.00     0.049 C 
BRANCH  23  29
HETATM   29  N3  UNL     1      11.350  -4.344  46.026  1.00  0.00    -0.061 N 
ATOM     30  H33 UNL     1      11.901  -5.144  46.339  1.00  0.00     0.275 HD
ATOM     31  H32 UNL     1      11.657  -4.360  45.054  1.00  0.00     0.275 HD
ATOM     32  H31 UNL     1      11.573  -3.477  46.513  1.00  0.00     0.275 HD
ENDBRANCH  23  29
ENDBRANCH   5  23
TORSDOF 9
ENDMDL
MODEL 4
REMARK VINA RESULT: -8.672957268      1.943      3.133
REMARK  9 active torsions:
REMARK  status: ('A' for Active; 'I' for Inactive)
REMARK    1  A    between atoms: C2_2  and  C3_3 
REMARK    2  A    between atoms: C3_3  and  C4_4 
REMARK    3  A    between atoms: C4_4  and  C5_5 
REMARK    4  A    between atoms: C5_5  and  C6_6 
REMARK    5  A    between atoms: C6_6  and  C7_7 
REMARK    6  A    between atoms: C7_7  and  C8_8 
REMARK    7  A    between atoms: C8_8  and  N1_9 
REMARK       I    between atoms: N2_19  and  C17_21 
REMARK    8  A    between atoms: C17_21  and  C18_23 
REMARK    9  A    between atoms: C18_23  and  N3_24 
ROOT
HETATM    1  C1  UNL     1      12.230  -7.829  43.157  1.00  0.00     0.063 C 
HETATM    2  C2  UNL     1      10.795  -8.163  42.891  1.00  0.00    -0.014 C 
HETATM    3  N2  UNL     1       9.893  -7.823  43.741  1.00  0.00    -0.333 N 
ATOM      4  H2  UNL     1       8.919  -8.057  43.549  1.00  0.00     0.168 HD
HETATM    5  C17 UNL     1      10.210  -7.142  44.922  1.00  0.00     0.258 C 
HETATM    6  O2  UNL     1      10.915  -7.686  45.804  1.00  0.00    -0.270 OA
ENDROOT
BRANCH   2   7
HETATM    7  C3  UNL     1      10.389  -8.878  41.671  1.00  0.00     0.052 C 
BRANCH   7   8
HETATM    8  C4  UNL     1      11.318  -8.609  40.487  1.00  0.00     0.006 C 
BRANCH   8   9
HETATM    9  C5  UNL     1      10.676  -9.257  39.299  1.00  0.00     0.000 C 
BRANCH   9  10
HETATM   10  C6  UNL     1      11.272  -8.881  37.986  1.00  0.00     0.002 C 
BRANCH  10  11
HETATM   11  C7  UNL     1      10.596  -9.518  36.810  1.00  0.00     0.020 C 
BRANCH  11  12
HETATM   12  C8  UNL     1       9.526 -10.506  37.240  1.00  0.00     0.123 C 
BRANCH  12  13
HETATM   13  N1  UNL     1       8.853 -11.074  36.108  1.00  0.00    -0.382 N 
HETATM   14  C9  UNL     1       8.489 -12.284  36.002  1.00  0.00    -0.004 C 
HETATM   15  C10 UNL     1       8.462 -13.595  36.684  1.00  0.00     0.060 C 
HETATM   16  C13 UNL     1       7.818 -12.535  34.687  1.00  0.00     0.102 C 
HETATM   17  C11 UNL     1       8.745 -14.558  35.537  1.00  0.00     0.085 C 
HETATM   18  C12 UNL     1       8.480 -13.798  34.292  1.00  0.00     0.137 C 
HETATM   19  O1  UNL     1       8.752 -14.146  33.167  1.00  0.00    -0.297 OA
HETATM   20  C14 UNL     1       8.218 -11.344  33.851  1.00  0.00     0.042 C 
HETATM   21  C15 UNL     1       8.513 -10.326  34.934  1.00  0.00     0.081 C 
HETATM   22  C16 UNL     1       7.220  -9.594  35.217  1.00  0.00     0.032 C 
ENDBRANCH  12  13
ENDBRANCH  11  12
ENDBRANCH  10  11
ENDBRANCH   9  10
ENDBRANCH   8   9
ENDBRANCH   7   8
ENDBRANCH   2   7
BRANCH   5  23
HETATM   23  C18 UNL     1       9.748  -5.741  45.235  1.00  0.00     0.203 C 
HETATM   24  C19 UNL     1       8.653  -5.888  46.263  1.00  0.00     0.049 C 
HETATM   25  C20 UNL     1       8.378  -4.464  46.765  1.00  0.00     0.003 C 
HETATM   26  C21 UNL     1       9.544  -4.155  47.675  1.00  0.00     0.000 C 
HETATM   27  C22 UNL     1      10.867  -4.388  47.055  1.00  0.00     0.003 C 
HETATM   28  C23 UNL     1      10.871  -4.877  45.653  1.00  0.00     0.049 C 
BRANCH  23  29
HETATM   29  N3  UNL     1       9.100  -5.267  44.022  1.00  0.00    -0.061 N 
ATOM     30  H33 UNL     1       8.379  -5.897  43.669  1.00  0.00     0.275 HD
ATOM     31  H32 UNL     1       8.492  -4.461  44.169  1.00  0.00     0.275 HD
ATOM     32  H31 UNL     1       9.855  -5.095  43.359  1.00  0.00     0.275 HD
ENDBRANCH  23  29
ENDBRANCH   5  23
TORSDOF 9
ENDMDL
MODEL 5
REMARK VINA RESULT: -8.671123153      9.262     13.837
REMARK  9 active torsions:
REMARK  status: ('A' for Active; 'I' for Inactive)
REMARK    1  A    between atoms: C2_2  and  C3_3 
REMARK    2  A    between atoms: C3_3  and  C4_4 
REMARK    3  A    between atoms: C4_4  and  C5_5 
REMARK    4  A    between atoms: C5_5  and  C6_6 
REMARK    5  A    between atoms: C6_6  and  C7_7 
REMARK    6  A    between atoms: C7_7  and  C8_8 
REMARK    7  A    between atoms: C8_8  and  N1_9 
REMARK       I    between atoms: N2_19  and  C17_21 
REMARK    8  A    between atoms: C17_21  and  C18_23 
REMARK    9  A    between atoms: C18_23  and  N3_24 
ROOT
HETATM    1  C1  UNL     1      12.286  -2.191  47.822  1.00  0.00     0.063 C 
HETATM    2  C2  UNL     1      11.117  -1.694  48.615  1.00  0.00    -0.014 C 
HETATM    3  N2  UNL     1       9.983  -1.520  48.038  1.00  0.00    -0.333 N 
ATOM      4  H2  UNL     1       9.194  -1.180  48.588  1.00  0.00     0.168 HD
HETATM    5  C17 UNL     1       9.799  -1.784  46.675  1.00  0.00     0.258 C 
HETATM    6  O2  UNL     1      10.406  -1.115  45.807  1.00  0.00    -0.270 OA
ENDROOT
BRANCH   2   7
HETATM    7  C3  UNL     1      11.239  -1.394  50.051  1.00  0.00     0.052 C 
BRANCH   7   8
HETATM    8  C4  UNL     1      11.331  -2.652  50.915  1.00  0.00     0.006 C 
BRANCH   8   9
HETATM    9  C5  UNL     1       9.935  -3.185  51.023  1.00  0.00     0.000 C 
BRANCH   9  10
HETATM   10  C6  UNL     1       9.347  -3.118  52.390  1.00  0.00     0.002 C 
BRANCH  10  11
HETATM   11  C7  UNL     1       7.859  -2.935  52.401  1.00  0.00     0.020 C 
BRANCH  11  12
HETATM   12  C8  UNL     1       7.220  -3.431  51.116  1.00  0.00     0.123 C 
BRANCH  12  13
HETATM   13  N1  UNL     1       6.275  -2.483  50.602  1.00  0.00    -0.382 N 
HETATM   14  C9  UNL     1       6.548  -1.299  50.237  1.00  0.00    -0.004 C 
HETATM   15  C10 UNL     1       7.633  -0.307  50.094  1.00  0.00     0.060 C 
HETATM   16  C13 UNL     1       5.324  -0.584  49.757  1.00  0.00     0.102 C 
HETATM   17  C11 UNL     1       6.945   0.985  50.522  1.00  0.00     0.085 C 
HETATM   18  C12 UNL     1       5.490   0.713  50.447  1.00  0.00     0.137 C 
HETATM   19  O1  UNL     1       4.606   1.421  50.871  1.00  0.00    -0.297 OA
HETATM   20  C14 UNL     1       4.190  -1.424  50.290  1.00  0.00     0.042 C 
HETATM   21  C15 UNL     1       4.879  -2.764  50.444  1.00  0.00     0.081 C 
HETATM   22  C16 UNL     1       4.708  -3.504  49.135  1.00  0.00     0.032 C 
ENDBRANCH  12  13
ENDBRANCH  11  12
ENDBRANCH  10  11
ENDBRANCH   9  10
ENDBRANCH   8   9
ENDBRANCH   7   8
ENDBRANCH   2   7
BRANCH   5  23
HETATM   23  C18 UNL     1       8.884  -2.860  46.143  1.00  0.00     0.203 C 
HETATM   24  C19 UNL     1       9.787  -3.987  45.704  1.00  0.00     0.049 C 
HETATM   25  C20 UNL     1       8.848  -5.166  45.416  1.00  0.00     0.003 C 
HETATM   26  C21 UNL     1       8.451  -5.673  46.783  1.00  0.00     0.000 C 
HETATM   27  C22 UNL     1       7.928  -4.621  47.683  1.00  0.00     0.003 C 
HETATM   28  C23 UNL     1       7.859  -3.244  47.134  1.00  0.00     0.049 C 
BRANCH  23  29
HETATM   29  N3  UNL     1       8.308  -2.310  44.925  1.00  0.00    -0.061 N 
ATOM     30  H33 UNL     1       7.584  -2.897  44.513  1.00  0.00     0.275 HD
ATOM     31  H32 UNL     1       7.721  -1.490  45.083  1.00  0.00     0.275 HD
ATOM     32  H31 UNL     1       9.098  -2.135  44.306  1.00  0.00     0.275 HD
ENDBRANCH  23  29
ENDBRANCH   5  23
TORSDOF 9
ENDMDL
