MODEL 1
REMARK VINA RESULT: -7.774297005      0.000      0.000
REMARK  7 active torsions:
REMARK  status: ('A' for Active; 'I' for Inactive)
REMARK    1  A    between atoms: O1_1  and  N1_3 
REMARK    2  A    between atoms: C1_4  and  N2_5 
REMARK    3  A    between atoms: N2_5  and  C2_7 
REMARK    4  A    between atoms: C2_7  and  C3_8 
REMARK    5  A    between atoms: C3_8  and  O2_9 
REMARK    6  A    between atoms: N5_20  and  O3_21 
REMARK    7  A    between atoms: N6_24  and  O4_25 
ROOT
HETATM    1  N1  UNL     1      -5.840   4.639  14.167  1.00  0.00    -0.204 N 
HETATM    2  C1  UNL     1      -5.335   3.400  14.215  1.00  0.00     0.160 C 
HETATM    3  C4  UNL     1      -4.904   2.704  13.085  1.00  0.00     0.128 A 
HETATM    4  N3  UNL     1      -4.583   1.444  13.429  1.00  0.00    -0.347 N 
ATOM      5  H3  UNL     1      -4.677   1.143  14.399  1.00  0.00     0.166 HD
HETATM    6  C5  UNL     1      -4.135   0.573  12.495  1.00  0.00     0.081 A 
HETATM    7  C6  UNL     1      -3.737  -0.757  12.552  1.00  0.00     0.050 A 
HETATM    8  C7  UNL     1      -3.381  -1.116  11.280  1.00  0.00     0.092 A 
HETATM    9  N4  UNL     1      -3.542  -0.073  10.450  1.00  0.00    -0.349 N 
ATOM     10  H4  UNL     1      -3.351  -0.066   9.447  1.00  0.00     0.167 HD
HETATM   11  C8  UNL     1      -4.004   0.970  11.182  1.00  0.00     0.162 A 
HETATM   12  N5  UNL     1      -4.327   2.240  10.834  1.00  0.00    -0.184 N 
HETATM   13  C9  UNL     1      -4.776   3.114  11.764  1.00  0.00     0.193 A 
HETATM   14  N6  UNL     1      -5.053   4.327  11.259  1.00  0.00    -0.201 N 
HETATM   15  C10 UNL     1      -5.808   5.313  11.777  1.00  0.00     0.094 A 
HETATM   16  C11 UNL     1      -6.225   6.231  10.840  1.00  0.00     0.034 A 
HETATM   17  C12 UNL     1      -7.002   7.296  11.206  1.00  0.00     0.002 A 
HETATM   18  C13 UNL     1      -7.351   7.420  12.543  1.00  0.00     0.002 A 
HETATM   19  C14 UNL     1      -6.938   6.507  13.492  1.00  0.00     0.034 A 
HETATM   20  C15 UNL     1      -6.148   5.424  13.115  1.00  0.00     0.094 A 
ENDROOT
BRANCH   2  21
HETATM   21  N2  UNL     1      -5.215   2.729  15.435  1.00  0.00    -0.370 N 
ATOM     22  H2  UNL     1      -4.280   2.722  15.845  1.00  0.00     0.161 HD
BRANCH  21  23
HETATM   23  C2  UNL     1      -6.226   2.052  16.185  1.00  0.00     0.147 C 
BRANCH  23  24
HETATM   24  C3  UNL     1      -5.646   0.820  16.909  1.00  0.00     0.183 C 
BRANCH  24  25
HETATM   25  O2  UNL     1      -5.101  -0.007  15.924  1.00  0.00    -0.399 OA
ATOM     26  H2  UNL     1      -5.831  -0.398  15.459  1.00  0.00     0.209 HD
ENDBRANCH  24  25
ENDBRANCH  23  24
ENDBRANCH  21  23
ENDBRANCH   2  21
BRANCH   1  27
HETATM   27  O1  UNL     1      -6.090   5.221  15.357  1.00  0.00    -0.281 OA
ATOM     28  H1  UNL     1      -6.168   6.167  15.349  1.00  0.00     0.245 HD
ENDBRANCH   1  27
BRANCH  12  29
HETATM   29  O3  UNL     1      -4.219   2.698   9.543  1.00  0.00    -0.279 OA
ATOM     30  H3  UNL     1      -4.791   3.371   9.193  1.00  0.00     0.245 HD
ENDBRANCH  12  29
BRANCH  14  31
HETATM   31  O4  UNL     1      -4.492   4.610  10.043  1.00  0.00    -0.281 OA
ATOM     32  H4  UNL     1      -5.084   4.956   9.385  1.00  0.00     0.245 HD
ENDBRANCH  14  31
TORSDOF 7
ENDMDL
MODEL 2
REMARK VINA RESULT: -7.732816083      1.695      5.407
REMARK  7 active torsions:
REMARK  status: ('A' for Active; 'I' for Inactive)
REMARK    1  A    between atoms: O1_1  and  N1_3 
REMARK    2  A    between atoms: C1_4  and  N2_5 
REMARK    3  A    between atoms: N2_5  and  C2_7 
REMARK    4  A    between atoms: C2_7  and  C3_8 
REMARK    5  A    between atoms: C3_8  and  O2_9 
REMARK    6  A    between atoms: N5_20  and  O3_21 
REMARK    7  A    between atoms: N6_24  and  O4_25 
ROOT
HETATM    1  N1  UNL     1      -4.377   1.214  14.560  1.00  0.00    -0.204 N 
HETATM    2  C1  UNL     1      -4.103   1.751  13.364  1.00  0.00     0.160 C 
HETATM    3  C4  UNL     1      -4.621   2.975  12.938  1.00  0.00     0.128 A 
HETATM    4  N3  UNL     1      -4.283   3.182  11.652  1.00  0.00    -0.347 N 
ATOM      5  H3  UNL     1      -3.729   2.485  11.155  1.00  0.00     0.166 HD
HETATM    6  C5  UNL     1      -4.674   4.310  11.016  1.00  0.00     0.081 A 
HETATM    7  C6  UNL     1      -4.482   4.785   9.724  1.00  0.00     0.050 A 
HETATM    8  C7  UNL     1      -5.116   5.996   9.652  1.00  0.00     0.092 A 
HETATM    9  N4  UNL     1      -5.686   6.283  10.834  1.00  0.00    -0.349 N 
ATOM     10  H4  UNL     1      -6.221   7.124  11.056  1.00  0.00     0.167 HD
HETATM   11  C8  UNL     1      -5.423   5.258  11.679  1.00  0.00     0.162 A 
HETATM   12  N5  UNL     1      -5.763   5.051  12.976  1.00  0.00    -0.184 N 
HETATM   13  C9  UNL     1      -5.375   3.925  13.616  1.00  0.00     0.193 A 
HETATM   14  N6  UNL     1      -5.792   3.870  14.891  1.00  0.00    -0.201 N 
HETATM   15  C10 UNL     1      -5.894   2.808  15.710  1.00  0.00     0.094 A 
HETATM   16  C11 UNL     1      -6.737   3.020  16.778  1.00  0.00     0.034 A 
HETATM   17  C12 UNL     1      -6.949   2.036  17.704  1.00  0.00     0.002 A 
HETATM   18  C13 UNL     1      -6.290   0.827  17.533  1.00  0.00     0.002 A 
HETATM   19  C14 UNL     1      -5.443   0.602  16.468  1.00  0.00     0.034 A 
HETATM   20  C15 UNL     1      -5.230   1.606  15.527  1.00  0.00     0.094 A 
ENDROOT
BRANCH   2  21
HETATM   21  N2  UNL     1      -3.261   1.091  12.465  1.00  0.00    -0.370 N 
ATOM     22  H2  UNL     1      -2.386   1.569  12.246  1.00  0.00     0.161 HD
BRANCH  21  23
HETATM   23  C2  UNL     1      -3.463  -0.163  11.811  1.00  0.00     0.147 C 
BRANCH  23  24
HETATM   24  C3  UNL     1      -4.685  -0.107  10.873  1.00  0.00     0.183 C 
BRANCH  24  25
HETATM   25  O2  UNL     1      -4.378   0.808   9.863  1.00  0.00    -0.399 OA
ATOM     26  H2  UNL     1      -4.272   0.309   9.063  1.00  0.00     0.209 HD
ENDBRANCH  24  25
ENDBRANCH  23  24
ENDBRANCH  21  23
ENDBRANCH   2  21
BRANCH   1  27
HETATM   27  O1  UNL     1      -3.697   0.092  14.872  1.00  0.00    -0.281 OA
ATOM     28  H1  UNL     1      -2.975  -0.129  14.296  1.00  0.00     0.245 HD
ENDBRANCH   1  27
BRANCH  12  29
HETATM   29  O3  UNL     1      -6.507   5.956  13.693  1.00  0.00    -0.279 OA
ATOM     30  H3  UNL     1      -6.558   5.934  14.642  1.00  0.00     0.245 HD
ENDBRANCH  12  29
BRANCH  14  31
HETATM   31  O4  UNL     1      -6.173   5.062  15.446  1.00  0.00    -0.281 OA
ATOM     32  H4  UNL     1      -5.526   5.488  15.997  1.00  0.00     0.245 HD
ENDBRANCH  14  31
TORSDOF 7
ENDMDL
MODEL 3
REMARK VINA RESULT: -7.694552381      2.389      5.247
REMARK  7 active torsions:
REMARK  status: ('A' for Active; 'I' for Inactive)
REMARK    1  A    between atoms: O1_1  and  N1_3 
REMARK    2  A    between atoms: C1_4  and  N2_5 
REMARK    3  A    between atoms: N2_5  and  C2_7 
REMARK    4  A    between atoms: C2_7  and  C3_8 
REMARK    5  A    between atoms: C3_8  and  O2_9 
REMARK    6  A    between atoms: N5_20  and  O3_21 
REMARK    7  A    between atoms: N6_24  and  O4_25 
ROOT
HETATM    1  N1  UNL     1      -4.252   0.558  13.922  1.00  0.00    -0.204 N 
HETATM    2  C1  UNL     1      -4.204   1.777  14.474  1.00  0.00     0.160 C 
HETATM    3  C4  UNL     1      -3.899   2.932  13.755  1.00  0.00     0.128 A 
HETATM    4  N3  UNL     1      -3.792   3.973  14.600  1.00  0.00    -0.347 N 
ATOM      5  H3  UNL     1      -3.931   3.831  15.600  1.00  0.00     0.166 HD
HETATM    6  C5  UNL     1      -3.499   5.208  14.131  1.00  0.00     0.081 A 
HETATM    7  C6  UNL     1      -3.329   6.441  14.748  1.00  0.00     0.050 A 
HETATM    8  C7  UNL     1      -3.043   7.341  13.756  1.00  0.00     0.092 A 
HETATM    9  N4  UNL     1      -3.031   6.719  12.566  1.00  0.00    -0.349 N 
ATOM     10  H4  UNL     1      -2.845   7.154  11.662  1.00  0.00     0.167 HD
HETATM   11  C8  UNL     1      -3.309   5.411  12.781  1.00  0.00     0.162 A 
HETATM   12  N5  UNL     1      -3.418   4.362  11.927  1.00  0.00    -0.184 N 
HETATM   13  C9  UNL     1      -3.709   3.126  12.392  1.00  0.00     0.193 A 
HETATM   14  N6  UNL     1      -3.780   2.200  11.422  1.00  0.00    -0.201 N 
HETATM   15  C10 UNL     1      -3.712   0.859  11.517  1.00  0.00     0.094 A 
HETATM   16  C11 UNL     1      -3.394   0.243  10.328  1.00  0.00     0.034 A 
HETATM   17  C12 UNL     1      -3.287  -1.119  10.257  1.00  0.00     0.002 A 
HETATM   18  C13 UNL     1      -3.507  -1.852  11.414  1.00  0.00     0.002 A 
HETATM   19  C14 UNL     1      -3.826  -1.246  12.612  1.00  0.00     0.034 A 
HETATM   20  C15 UNL     1      -3.935   0.141  12.680  1.00  0.00     0.094 A 
ENDROOT
BRANCH   2  21
HETATM   21  N2  UNL     1      -4.467   1.950  15.836  1.00  0.00    -0.370 N 
ATOM     22  H2  UNL     1      -3.649   2.095  16.429  1.00  0.00     0.161 HD
BRANCH  21  23
HETATM   23  C2  UNL     1      -5.728   1.953  16.508  1.00  0.00     0.147 C 
BRANCH  23  24
HETATM   24  C3  UNL     1      -5.699   1.028  17.742  1.00  0.00     0.183 C 
BRANCH  24  25
HETATM   25  O2  UNL     1      -5.855  -0.278  17.271  1.00  0.00    -0.399 OA
ATOM     26  H2  UNL     1      -6.473  -0.707  17.852  1.00  0.00     0.209 HD
ENDBRANCH  24  25
ENDBRANCH  23  24
ENDBRANCH  21  23
ENDBRANCH   2  21
BRANCH   1  27
HETATM   27  O1  UNL     1      -4.687  -0.436  14.723  1.00  0.00    -0.281 OA
ATOM     28  H1  UNL     1      -4.844  -1.272  14.300  1.00  0.00     0.245 HD
ENDBRANCH   1  27
BRANCH  12  29
HETATM   29  O3  UNL     1      -3.240   4.498  10.571  1.00  0.00    -0.279 OA
ATOM     30  H3  UNL     1      -3.186   3.749   9.989  1.00  0.00     0.245 HD
ENDBRANCH  12  29
BRANCH  14  31
HETATM   31  O4  UNL     1      -3.943   2.678  10.150  1.00  0.00    -0.281 OA
ATOM     32  H4  UNL     1      -4.394   2.101   9.545  1.00  0.00     0.245 HD
ENDBRANCH  14  31
TORSDOF 7
ENDMDL
MODEL 4
REMARK VINA RESULT: -7.159435073      1.798      4.620
REMARK  7 active torsions:
REMARK  status: ('A' for Active; 'I' for Inactive)
REMARK    1  A    between atoms: O1_1  and  N1_3 
REMARK    2  A    between atoms: C1_4  and  N2_5 
REMARK    3  A    between atoms: N2_5  and  C2_7 
REMARK    4  A    between atoms: C2_7  and  C3_8 
REMARK    5  A    between atoms: C3_8  and  O2_9 
REMARK    6  A    between atoms: N5_20  and  O3_21 
REMARK    7  A    between atoms: N6_24  and  O4_25 
ROOT
HETATM    1  N1  UNL     1      -3.585   3.030  11.431  1.00  0.00    -0.204 N 
HETATM    2  C1  UNL     1      -3.764   2.117  12.394  1.00  0.00     0.160 C 
HETATM    3  C4  UNL     1      -4.478   2.370  13.566  1.00  0.00     0.128 A 
HETATM    4  N3  UNL     1      -4.369   1.317  14.395  1.00  0.00    -0.347 N 
ATOM      5  H3  UNL     1      -3.821   0.504  14.113  1.00  0.00     0.166 HD
HETATM    6  C5  UNL     1      -4.981   1.330  15.601  1.00  0.00     0.081 A 
HETATM    7  C6  UNL     1      -5.045   0.412  16.642  1.00  0.00     0.050 A 
HETATM    8  C7  UNL     1      -5.819   0.978  17.619  1.00  0.00     0.092 A 
HETATM    9  N4  UNL     1      -6.230   2.195  17.227  1.00  0.00    -0.349 N 
ATOM     10  H4  UNL     1      -6.819   2.833  17.764  1.00  0.00     0.167 HD
HETATM   11  C8  UNL     1      -5.724   2.424  15.991  1.00  0.00     0.162 A 
HETATM   12  N5  UNL     1      -5.836   3.486  15.156  1.00  0.00    -0.184 N 
HETATM   13  C9  UNL     1      -5.225   3.478  13.949  1.00  0.00     0.193 A 
HETATM   14  N6  UNL     1      -5.432   4.602  13.244  1.00  0.00    -0.201 N 
HETATM   15  C10 UNL     1      -4.743   5.089  12.195  1.00  0.00     0.094 A 
HETATM   16  C11 UNL     1      -4.947   6.434  11.986  1.00  0.00     0.034 A 
HETATM   17  C12 UNL     1      -4.318   7.082  10.958  1.00  0.00     0.002 A 
HETATM   18  C13 UNL     1      -3.476   6.343  10.140  1.00  0.00     0.002 A 
HETATM   19  C14 UNL     1      -3.265   4.994  10.339  1.00  0.00     0.034 A 
HETATM   20  C15 UNL     1      -3.906   4.339  11.387  1.00  0.00     0.094 A 
ENDROOT
BRANCH   2  21
HETATM   21  N2  UNL     1      -3.229   0.833  12.264  1.00  0.00    -0.370 N 
ATOM     22  H2  UNL     1      -2.237   0.743  12.486  1.00  0.00     0.161 HD
BRANCH  21  23
HETATM   23  C2  UNL     1      -3.886  -0.370  11.861  1.00  0.00     0.147 C 
BRANCH  23  24
HETATM   24  C3  UNL     1      -3.531  -0.735  10.406  1.00  0.00     0.183 C 
BRANCH  24  25
HETATM   25  O2  UNL     1      -4.383   0.009   9.584  1.00  0.00    -0.399 OA
ATOM     26  H2  UNL     1      -4.640  -0.561   8.869  1.00  0.00     0.209 HD
ENDBRANCH  24  25
ENDBRANCH  23  24
ENDBRANCH  21  23
ENDBRANCH   2  21
BRANCH   1  27
HETATM   27  O1  UNL     1      -2.983   2.591  10.307  1.00  0.00    -0.281 OA
ATOM     28  H1  UNL     1      -3.507   2.624   9.515  1.00  0.00     0.245 HD
ENDBRANCH   1  27
BRANCH  12  29
HETATM   29  O3  UNL     1      -6.561   4.606  15.485  1.00  0.00    -0.279 OA
ATOM     30  H3  UNL     1      -7.352   4.854  15.019  1.00  0.00     0.245 HD
ENDBRANCH  12  29
BRANCH  14  31
HETATM   31  O4  UNL     1      -6.492   5.370  13.643  1.00  0.00    -0.281 OA
ATOM     32  H4  UNL     1      -7.277   5.300  13.111  1.00  0.00     0.245 HD
ENDBRANCH  14  31
TORSDOF 7
ENDMDL
MODEL 5
REMARK VINA RESULT: -7.077998260      2.288      2.438
REMARK  7 active torsions:
REMARK  status: ('A' for Active; 'I' for Inactive)
REMARK    1  A    between atoms: O1_1  and  N1_3 
REMARK    2  A    between atoms: C1_4  and  N2_5 
REMARK    3  A    between atoms: N2_5  and  C2_7 
REMARK    4  A    between atoms: C2_7  and  C3_8 
REMARK    5  A    between atoms: C3_8  and  O2_9 
REMARK    6  A    between atoms: N5_20  and  O3_21 
REMARK    7  A    between atoms: N6_24  and  O4_25 
ROOT
HETATM    1  N1  UNL     1      -4.160   4.651  13.811  1.00  0.00    -0.204 N 
HETATM    2  C1  UNL     1      -4.356   3.327  13.791  1.00  0.00     0.160 C 
HETATM    3  C4  UNL     1      -3.717   2.472  12.892  1.00  0.00     0.128 A 
HETATM    4  N3  UNL     1      -4.217   1.230  13.021  1.00  0.00    -0.347 N 
ATOM      5  H3  UNL     1      -4.952   1.047  13.704  1.00  0.00     0.166 HD
HETATM    6  C5  UNL     1      -3.750   0.222  12.249  1.00  0.00     0.081 A 
HETATM    7  C6  UNL     1      -4.065  -1.129  12.160  1.00  0.00     0.050 A 
HETATM    8  C7  UNL     1      -3.257  -1.659  11.190  1.00  0.00     0.092 A 
HETATM    9  N4  UNL     1      -2.465  -0.700  10.683  1.00  0.00    -0.349 N 
ATOM     10  H4  UNL     1      -1.769  -0.822   9.947  1.00  0.00     0.167 HD
HETATM   11  C8  UNL     1      -2.757   0.458  11.323  1.00  0.00     0.162 A 
HETATM   12  N5  UNL     1      -2.252   1.710  11.193  1.00  0.00    -0.184 N 
HETATM   13  C9  UNL     1      -2.716   2.721  11.961  1.00  0.00     0.193 A 
HETATM   14  N6  UNL     1      -2.115   3.895  11.710  1.00  0.00    -0.201 N 
HETATM   15  C10 UNL     1      -2.521   5.142  12.013  1.00  0.00     0.094 A 
HETATM   16  C11 UNL     1      -1.906   6.115  11.257  1.00  0.00     0.034 A 
HETATM   17  C12 UNL     1      -2.208   7.436  11.443  1.00  0.00     0.002 A 
HETATM   18  C13 UNL     1      -3.148   7.760  12.411  1.00  0.00     0.002 A 
HETATM   19  C14 UNL     1      -3.771   6.794  13.175  1.00  0.00     0.034 A 
HETATM   20  C15 UNL     1      -3.460   5.451  12.982  1.00  0.00     0.094 A 
ENDROOT
BRANCH   2  21
HETATM   21  N2  UNL     1      -5.235   2.724  14.695  1.00  0.00    -0.370 N 
ATOM     22  H2  UNL     1      -6.160   2.499  14.329  1.00  0.00     0.161 HD
BRANCH  21  23
HETATM   23  C2  UNL     1      -5.009   2.382  16.064  1.00  0.00     0.147 C 
BRANCH  23  24
HETATM   24  C3  UNL     1      -4.935   0.853  16.247  1.00  0.00     0.183 C 
BRANCH  24  25
HETATM   25  O2  UNL     1      -3.593   0.493  16.100  1.00  0.00    -0.399 OA
ATOM     26  H2  UNL     1      -3.539  -0.055  15.326  1.00  0.00     0.209 HD
ENDBRANCH  24  25
ENDBRANCH  23  24
ENDBRANCH  21  23
ENDBRANCH   2  21
BRANCH   1  27
HETATM   27  O1  UNL     1      -4.752   5.319  14.822  1.00  0.00    -0.281 OA
ATOM     28  H1  UNL     1      -4.961   6.230  14.652  1.00  0.00     0.245 HD
ENDBRANCH   1  27
BRANCH  12  29
HETATM   29  O3  UNL     1      -1.261   2.011  10.289  1.00  0.00    -0.279 OA
ATOM     30  H3  UNL     1      -1.431   2.504   9.494  1.00  0.00     0.245 HD
ENDBRANCH  12  29
BRANCH  14  31
HETATM   31  O4  UNL     1      -0.918   3.824  11.050  1.00  0.00    -0.281 OA
ATOM     32  H4  UNL     1      -0.894   3.246  10.296  1.00  0.00     0.245 HD
ENDBRANCH  14  31
TORSDOF 7
ENDMDL
