MODEL 1
REMARK VINA RESULT: -7.264230916      0.000      0.000
REMARK  6 active torsions:
REMARK  status: ('A' for Active; 'I' for Inactive)
REMARK    1  A    between atoms: N1_1  and  C1_5 
REMARK    2  A    between atoms: C4_8  and  C5_9 
REMARK    3  A    between atoms: C5_9  and  N2_10 
REMARK    4  A    between atoms: N2_10  and  C6_12 
REMARK    5  A    between atoms: N4_19  and  C10_21 
REMARK    6  A    between atoms: C16_27  and  N5_28 
ROOT
HETATM    1  C6  UNL     1      44.287  14.179  -0.683  1.00  0.00     0.105 A 
HETATM    2  C7  UNL     1      44.670  12.857  -0.680  1.00  0.00     0.160 A 
HETATM    3  F1  UNL     1      44.544  12.058  -1.765  1.00  0.00    -0.202 F 
HETATM    4  C8  UNL     1      45.195  12.363   0.491  1.00  0.00     0.134 A 
HETATM    5  N3  UNL     1      45.340  13.109   1.590  1.00  0.00    -0.347 N 
ATOM      6  H3  UNL     1      45.738  12.681   2.426  1.00  0.00     0.167 HD
HETATM    7  C9  UNL     1      44.968  14.442   1.633  1.00  0.00     0.137 A 
HETATM    8  N4  UNL     1      45.145  15.051   2.687  1.00  0.00    -0.370 N 
ATOM      9  H4  UNL     1      45.555  14.386   3.343  1.00  0.00     0.161 HD
HETATM   10  C16 UNL     1      44.445  14.950   0.483  1.00  0.00     0.175 A 
ENDROOT
BRANCH   1  11
HETATM   11  N2  UNL     1      43.715  14.694  -1.877  1.00  0.00    -0.385 N 
ATOM     12  H2  UNL     1      42.699  14.789  -1.901  1.00  0.00     0.159 HD
BRANCH  11  13
HETATM   13  C5  UNL     1      44.431  15.092  -3.046  1.00  0.00     0.124 C 
BRANCH  13  14
HETATM   14  C4  UNL     1      43.495  15.702  -4.077  1.00  0.00     0.003 C 
HETATM   15  C3  UNL     1      44.249  16.668  -4.979  1.00  0.00     0.008 C 
HETATM   16  C2  UNL     1      43.912  18.098  -4.647  1.00  0.00     0.033 C 
HETATM   17  C1  UNL     1      42.440  18.302  -4.941  1.00  0.00     0.183 C 
HETATM   18  C18 UNL     1      41.588  17.287  -4.261  1.00  0.00     0.033 C 
HETATM   19  C17 UNL     1      42.408  16.430  -3.337  1.00  0.00     0.008 C 
BRANCH  17  20
HETATM   20  N1  UNL     1      42.005  19.634  -4.569  1.00  0.00    -0.075 N 
ATOM     21  H13 UNL     1      42.315  19.879  -3.628  1.00  0.00     0.274 HD
ATOM     22  H12 UNL     1      42.508  20.350  -5.092  1.00  0.00     0.274 HD
ATOM     23  H11 UNL     1      40.995  19.737  -4.669  1.00  0.00     0.274 HD
ENDBRANCH  17  20
ENDBRANCH  13  14
ENDBRANCH  11  13
ENDBRANCH   1  11
BRANCH  10  24
HETATM   24  N5  UNL     1      43.995  16.284   0.424  1.00  0.00    -0.109 N 
HETATM   25  O1  UNL     1      43.000  16.630   1.067  1.00  0.00    -0.532 OA
HETATM   26  O2  UNL     1      44.666  17.185  -0.352  1.00  0.00    -0.532 OA
ENDBRANCH  10  24
BRANCH   8  27
HETATM   27  C10 UNL     1      45.028  16.236   3.358  1.00  0.00     0.083 C 
HETATM   28  C11 UNL     1      46.074  17.289   2.953  1.00  0.00     0.025 C 
HETATM   29  C12 UNL     1      47.435  16.647   3.175  1.00  0.00     0.002 C 
HETATM   30  C13 UNL     1      47.663  16.695   4.681  1.00  0.00     0.000 C 
HETATM   31  C14 UNL     1      46.365  16.811   5.429  1.00  0.00     0.002 C 
HETATM   32  C15 UNL     1      45.250  16.011   4.846  1.00  0.00     0.025 C 
ENDBRANCH   8  27
TORSDOF 6
ENDMDL
MODEL 2
REMARK VINA RESULT: -7.134584859      3.114      7.657
REMARK  6 active torsions:
REMARK  status: ('A' for Active; 'I' for Inactive)
REMARK    1  A    between atoms: N1_1  and  C1_5 
REMARK    2  A    between atoms: C4_8  and  C5_9 
REMARK    3  A    between atoms: C5_9  and  N2_10 
REMARK    4  A    between atoms: N2_10  and  C6_12 
REMARK    5  A    between atoms: N4_19  and  C10_21 
REMARK    6  A    between atoms: C16_27  and  N5_28 
ROOT
HETATM    1  C6  UNL     1      44.479  14.472  -0.414  1.00  0.00     0.105 A 
HETATM    2  C7  UNL     1      43.887  15.334  -1.309  1.00  0.00     0.160 A 
HETATM    3  F1  UNL     1      43.729  16.654  -1.056  1.00  0.00    -0.202 F 
HETATM    4  C8  UNL     1      43.449  14.796  -2.496  1.00  0.00     0.134 A 
HETATM    5  N3  UNL     1      43.581  13.501  -2.795  1.00  0.00    -0.347 N 
ATOM      6  H3  UNL     1      43.236  13.166  -3.694  1.00  0.00     0.167 HD
HETATM    7  C9  UNL     1      44.169  12.598  -1.926  1.00  0.00     0.137 A 
HETATM    8  N4  UNL     1      44.252  11.425  -2.290  1.00  0.00    -0.370 N 
ATOM      9  H4  UNL     1      43.835  11.378  -3.220  1.00  0.00     0.161 HD
HETATM   10  C16 UNL     1      44.609  13.110  -0.744  1.00  0.00     0.175 A 
ENDROOT
BRANCH   1  11
HETATM   11  N2  UNL     1      44.908  15.010   0.829  1.00  0.00    -0.385 N 
ATOM     12  H2  UNL     1      45.907  15.191   0.935  1.00  0.00     0.159 HD
BRANCH  11  13
HETATM   13  C5  UNL     1      44.071  15.319   1.943  1.00  0.00     0.124 C 
BRANCH  13  14
HETATM   14  C4  UNL     1      44.868  15.328   3.237  1.00  0.00     0.003 C 
HETATM   15  C3  UNL     1      45.195  16.753   3.656  1.00  0.00     0.008 C 
HETATM   16  C2  UNL     1      46.647  17.073   3.414  1.00  0.00     0.033 C 
HETATM   17  C1  UNL     1      47.470  16.168   4.306  1.00  0.00     0.183 C 
HETATM   18  C18 UNL     1      47.110  14.732   4.134  1.00  0.00     0.033 C 
HETATM   19  C17 UNL     1      46.136  14.556   3.002  1.00  0.00     0.008 C 
BRANCH  17  20
HETATM   20  N1  UNL     1      48.890  16.346   4.078  1.00  0.00    -0.075 N 
ATOM     21  H13 UNL     1      49.402  15.473   4.210  1.00  0.00     0.274 HD
ATOM     22  H12 UNL     1      49.093  16.500   3.090  1.00  0.00     0.274 HD
ATOM     23  H11 UNL     1      49.271  17.094   4.658  1.00  0.00     0.274 HD
ENDBRANCH  17  20
ENDBRANCH  13  14
ENDBRANCH  11  13
ENDBRANCH   1  11
BRANCH  10  24
HETATM   24  N5  UNL     1      45.186  12.277   0.234  1.00  0.00    -0.109 N 
HETATM   25  O1  UNL     1      46.369  11.939   0.139  1.00  0.00    -0.532 OA
HETATM   26  O2  UNL     1      44.425  11.846   1.283  1.00  0.00    -0.532 OA
ENDBRANCH  10  24
BRANCH   8  27
HETATM   27  C10 UNL     1      44.663  10.158  -1.983  1.00  0.00     0.083 C 
HETATM   28  C11 UNL     1      44.755   9.220  -3.199  1.00  0.00     0.025 C 
HETATM   29  C12 UNL     1      43.380   9.226  -3.849  1.00  0.00     0.002 C 
HETATM   30  C13 UNL     1      42.512   8.337  -2.966  1.00  0.00     0.000 C 
HETATM   31  C14 UNL     1      43.073   8.232  -1.575  1.00  0.00     0.002 C 
HETATM   32  C15 UNL     1      43.655   9.501  -1.053  1.00  0.00     0.025 C 
ENDBRANCH   8  27
TORSDOF 6
ENDMDL
MODEL 3
REMARK VINA RESULT: -7.097178701      4.084      4.898
REMARK  6 active torsions:
REMARK  status: ('A' for Active; 'I' for Inactive)
REMARK    1  A    between atoms: N1_1  and  C1_5 
REMARK    2  A    between atoms: C4_8  and  C5_9 
REMARK    3  A    between atoms: C5_9  and  N2_10 
REMARK    4  A    between atoms: N2_10  and  C6_12 
REMARK    5  A    between atoms: N4_19  and  C10_21 
REMARK    6  A    between atoms: C16_27  and  N5_28 
ROOT
HETATM    1  C6  UNL     1      45.486  11.772   0.833  1.00  0.00     0.105 A 
HETATM    2  C7  UNL     1      46.275  10.754   1.318  1.00  0.00     0.160 A 
HETATM    3  F1  UNL     1      46.322   9.530   0.742  1.00  0.00    -0.202 F 
HETATM    4  C8  UNL     1      47.031  11.029   2.433  1.00  0.00     0.134 A 
HETATM    5  N3  UNL     1      47.021  12.219   3.038  1.00  0.00    -0.347 N 
ATOM      6  H3  UNL     1      47.606  12.357   3.862  1.00  0.00     0.167 HD
HETATM    7  C9  UNL     1      46.243  13.271   2.586  1.00  0.00     0.137 A 
HETATM    8  N4  UNL     1      46.304  14.334   3.205  1.00  0.00    -0.370 N 
ATOM      9  H4  UNL     1      46.962  14.188   3.971  1.00  0.00     0.161 HD
HETATM   10  C16 UNL     1      45.486  13.021   1.483  1.00  0.00     0.175 A 
ENDROOT
BRANCH   1  11
HETATM   11  N2  UNL     1      44.677  11.493  -0.301  1.00  0.00    -0.385 N 
ATOM     12  H2  UNL     1      43.671  11.421  -0.146  1.00  0.00     0.159 HD
BRANCH  11  13
HETATM   13  C5  UNL     1      45.143  11.306  -1.638  1.00  0.00     0.124 C 
BRANCH  13  14
HETATM   14  C4  UNL     1      44.520  10.069  -2.263  1.00  0.00     0.003 C 
HETATM   15  C3  UNL     1      43.727  10.439  -3.508  1.00  0.00     0.008 C 
HETATM   16  C2  UNL     1      42.245  10.371  -3.250  1.00  0.00     0.033 C 
HETATM   17  C1  UNL     1      41.899   8.930  -2.939  1.00  0.00     0.183 C 
HETATM   18  C18 UNL     1      42.749   8.373  -1.848  1.00  0.00     0.033 C 
HETATM   19  C17 UNL     1      43.612   9.444  -1.241  1.00  0.00     0.008 C 
BRANCH  17  20
HETATM   20  N1  UNL     1      40.500   8.783  -2.592  1.00  0.00    -0.075 N 
ATOM     21  H13 UNL     1      40.022   9.684  -2.576  1.00  0.00     0.274 HD
ATOM     22  H12 UNL     1      39.973   8.339  -3.344  1.00  0.00     0.274 HD
ATOM     23  H11 UNL     1      40.384   8.283  -1.710  1.00  0.00     0.274 HD
ENDBRANCH  17  20
ENDBRANCH  13  14
ENDBRANCH  11  13
ENDBRANCH   1  11
BRANCH  10  24
HETATM   24  N5  UNL     1      44.625  14.005   0.960  1.00  0.00    -0.109 N 
HETATM   25  O1  UNL     1      44.730  14.355  -0.219  1.00  0.00    -0.532 OA
HETATM   26  O2  UNL     1      43.678  14.566   1.768  1.00  0.00    -0.532 OA
ENDBRANCH  10  24
BRANCH   8  27
HETATM   27  C10 UNL     1      45.868  15.626   3.307  1.00  0.00     0.083 C 
HETATM   28  C11 UNL     1      46.892  16.669   2.830  1.00  0.00     0.025 C 
HETATM   29  C12 UNL     1      48.154  16.434   3.645  1.00  0.00     0.002 C 
HETATM   30  C13 UNL     1      47.867  17.035   5.016  1.00  0.00     0.000 C 
HETATM   31  C14 UNL     1      46.389  17.128   5.275  1.00  0.00     0.002 C 
HETATM   32  C15 UNL     1      45.605  15.967   4.765  1.00  0.00     0.025 C 
ENDBRANCH   8  27
TORSDOF 6
ENDMDL
MODEL 4
REMARK VINA RESULT: -7.018291450      3.042      7.596
REMARK  6 active torsions:
REMARK  status: ('A' for Active; 'I' for Inactive)
REMARK    1  A    between atoms: N1_1  and  C1_5 
REMARK    2  A    between atoms: C4_8  and  C5_9 
REMARK    3  A    between atoms: C5_9  and  N2_10 
REMARK    4  A    between atoms: N2_10  and  C6_12 
REMARK    5  A    between atoms: N4_19  and  C10_21 
REMARK    6  A    between atoms: C16_27  and  N5_28 
ROOT
HETATM    1  C6  UNL     1      44.613  14.366   0.203  1.00  0.00     0.105 A 
HETATM    2  C7  UNL     1      44.085  15.334  -0.620  1.00  0.00     0.160 A 
HETATM    3  F1  UNL     1      43.939  16.622  -0.231  1.00  0.00    -0.202 F 
HETATM    4  C8  UNL     1      43.701  14.939  -1.880  1.00  0.00     0.134 A 
HETATM    5  N3  UNL     1      43.824  13.681  -2.312  1.00  0.00    -0.347 N 
ATOM      6  H3  UNL     1      43.520  13.454  -3.259  1.00  0.00     0.167 HD
HETATM    7  C9  UNL     1      44.348  12.675  -1.519  1.00  0.00     0.137 A 
HETATM    8  N4  UNL     1      44.429  11.547  -2.005  1.00  0.00    -0.370 N 
ATOM      9  H4  UNL     1      44.061  11.612  -2.954  1.00  0.00     0.161 HD
HETATM   10  C16 UNL     1      44.735  13.045  -0.267  1.00  0.00     0.175 A 
ENDROOT
BRANCH   1  11
HETATM   11  N2  UNL     1      44.986  14.754   1.518  1.00  0.00    -0.385 N 
ATOM     12  H2  UNL     1      45.985  14.832   1.712  1.00  0.00     0.159 HD
BRANCH  11  13
HETATM   13  C5  UNL     1      44.093  15.045   2.592  1.00  0.00     0.124 C 
BRANCH  13  14
HETATM   14  C4  UNL     1      44.639  16.159   3.469  1.00  0.00     0.003 C 
HETATM   15  C3  UNL     1      45.507  17.106   2.653  1.00  0.00     0.008 C 
HETATM   16  C2  UNL     1      46.968  16.907   2.961  1.00  0.00     0.033 C 
HETATM   17  C1  UNL     1      47.185  17.276   4.414  1.00  0.00     0.183 C 
HETATM   18  C18 UNL     1      46.251  16.551   5.321  1.00  0.00     0.033 C 
HETATM   19  C17 UNL     1      45.453  15.528   4.563  1.00  0.00     0.008 C 
BRANCH  17  20
HETATM   20  N1  UNL     1      48.553  17.034   4.825  1.00  0.00    -0.075 N 
ATOM     21  H13 UNL     1      48.801  16.048   4.734  1.00  0.00     0.274 HD
ATOM     22  H12 UNL     1      49.218  17.425   4.157  1.00  0.00     0.274 HD
ATOM     23  H11 UNL     1      48.726  17.377   5.770  1.00  0.00     0.274 HD
ENDBRANCH  17  20
ENDBRANCH  13  14
ENDBRANCH  11  13
ENDBRANCH   1  11
BRANCH  10  24
HETATM   24  N5  UNL     1      45.244  12.096   0.641  1.00  0.00    -0.109 N 
HETATM   25  O1  UNL     1      44.531  11.667   1.552  1.00  0.00    -0.532 OA
HETATM   26  O2  UNL     1      46.531  11.659   0.504  1.00  0.00    -0.532 OA
ENDBRANCH  10  24
BRANCH   8  27
HETATM   27  C10 UNL     1      44.799  10.244  -1.820  1.00  0.00     0.083 C 
HETATM   28  C11 UNL     1      44.854   9.420  -3.117  1.00  0.00     0.025 C 
HETATM   29  C12 UNL     1      43.477   9.529  -3.752  1.00  0.00     0.002 C 
HETATM   30  C13 UNL     1      42.584   8.592  -2.947  1.00  0.00     0.000 C 
HETATM   31  C14 UNL     1      43.149   8.341  -1.577  1.00  0.00     0.002 C 
HETATM   32  C15 UNL     1      43.775   9.537  -0.945  1.00  0.00     0.025 C 
ENDBRANCH   8  27
TORSDOF 6
ENDMDL
MODEL 5
REMARK VINA RESULT: -6.979928572      5.062      8.328
REMARK  6 active torsions:
REMARK  status: ('A' for Active; 'I' for Inactive)
REMARK    1  A    between atoms: N1_1  and  C1_5 
REMARK    2  A    between atoms: C4_8  and  C5_9 
REMARK    3  A    between atoms: C5_9  and  N2_10 
REMARK    4  A    between atoms: N2_10  and  C6_12 
REMARK    5  A    between atoms: N4_19  and  C10_21 
REMARK    6  A    between atoms: C16_27  and  N5_28 
ROOT
HETATM    1  C6  UNL     1      47.144  10.242   1.034  1.00  0.00     0.105 A 
HETATM    2  C7  UNL     1      47.716   9.083   1.505  1.00  0.00     0.160 A 
HETATM    3  F1  UNL     1      48.525   9.056   2.590  1.00  0.00    -0.202 F 
HETATM    4  C8  UNL     1      47.431   7.924   0.821  1.00  0.00     0.134 A 
HETATM    5  N3  UNL     1      46.639   7.896  -0.254  1.00  0.00    -0.347 N 
ATOM      6  H3  UNL     1      46.467   7.003  -0.715  1.00  0.00     0.167 HD
HETATM    7  C9  UNL     1      46.043   9.037  -0.764  1.00  0.00     0.137 A 
HETATM    8  N4  UNL     1      45.324   8.913  -1.755  1.00  0.00    -0.370 N 
ATOM      9  H4  UNL     1      45.331   7.922  -1.997  1.00  0.00     0.161 HD
HETATM   10  C16 UNL     1      46.313  10.195  -0.101  1.00  0.00     0.175 A 
ENDROOT
BRANCH   1  11
HETATM   11  N2  UNL     1      47.454  11.451   1.714  1.00  0.00    -0.385 N 
ATOM     12  H2  UNL     1      48.307  11.935   1.432  1.00  0.00     0.159 HD
BRANCH  11  13
HETATM   13  C5  UNL     1      46.681  12.050   2.754  1.00  0.00     0.124 C 
BRANCH  13  14
HETATM   14  C4  UNL     1      46.868  13.557   2.772  1.00  0.00     0.003 C 
HETATM   15  C3  UNL     1      47.218  14.037   4.173  1.00  0.00     0.008 C 
HETATM   16  C2  UNL     1      46.050  14.735   4.818  1.00  0.00     0.033 C 
HETATM   17  C1  UNL     1      45.753  15.978   4.005  1.00  0.00     0.183 C 
HETATM   18  C18 UNL     1      45.575  15.671   2.558  1.00  0.00     0.033 C 
HETATM   19  C17 UNL     1      45.580  14.186   2.320  1.00  0.00     0.008 C 
BRANCH  17  20
HETATM   20  N1  UNL     1      44.583  16.672   4.505  1.00  0.00    -0.075 N 
ATOM     21  H13 UNL     1      43.920  16.025   4.935  1.00  0.00     0.274 HD
ATOM     22  H12 UNL     1      44.806  17.236   5.325  1.00  0.00     0.274 HD
ATOM     23  H11 UNL     1      44.140  17.230   3.776  1.00  0.00     0.274 HD
ENDBRANCH  17  20
ENDBRANCH  13  14
ENDBRANCH  11  13
ENDBRANCH   1  11
BRANCH  10  24
HETATM   24  N5  UNL     1      45.794  11.423  -0.555  1.00  0.00    -0.109 N 
HETATM   25  O1  UNL     1      44.706  11.828  -0.138  1.00  0.00    -0.532 OA
HETATM   26  O2  UNL     1      46.505  12.159  -1.459  1.00  0.00    -0.532 OA
ENDBRANCH  10  24
BRANCH   8  27
HETATM   27  C10 UNL     1      44.520   9.532  -2.670  1.00  0.00     0.083 C 
HETATM   28  C11 UNL     1      43.047   9.638  -2.238  1.00  0.00     0.025 C 
HETATM   29  C12 UNL     1      42.584   8.219  -1.948  1.00  0.00     0.002 C 
HETATM   30  C13 UNL     1      42.354   7.582  -3.313  1.00  0.00     0.000 C 
HETATM   31  C14 UNL     1      43.136   8.288  -4.385  1.00  0.00     0.002 C 
HETATM   32  C15 UNL     1      44.495   8.728  -3.961  1.00  0.00     0.025 C 
ENDBRANCH   8  27
TORSDOF 6
ENDMDL
