MODEL 1
REMARK VINA RESULT: -7.305050505      0.000      0.000
REMARK  6 active torsions:
REMARK  status: ('A' for Active; 'I' for Inactive)
REMARK    1  A    between atoms: C2_2  and  O1_4 
REMARK    2  A    between atoms: C2_2  and  C4_6 
REMARK    3  A    between atoms: C4_6  and  C5_7 
REMARK    4  A    between atoms: C5_7  and  C6_8 
REMARK    5  A    between atoms: C7_9  and  C8_10 
REMARK    6  A    between atoms: N4_22  and  C13_24 
ROOT
HETATM    1  C6  UNL     1      45.466  13.774   2.062  1.00  0.00    -0.007 A 
HETATM    2  C7  UNL     1      44.616  14.344   1.150  1.00  0.00     0.055 A 
HETATM    3  N2  UNL     1      44.273  13.702  -0.006  1.00  0.00    -0.354 N 
ATOM      4  H2  UNL     1      43.639  14.152  -0.666  1.00  0.00     0.166 HD
HETATM    5  C9  UNL     1      44.770  12.473  -0.281  1.00  0.00     0.049 A 
HETATM    6  C10 UNL     1      44.411  11.828  -1.467  1.00  0.00     0.047 A 
HETATM    7  C11 UNL     1      44.935  10.581  -1.712  1.00  0.00     0.092 A 
HETATM    8  N3  UNL     1      45.771  10.016  -0.823  1.00  0.00    -0.352 N 
ATOM      9  H3  UNL     1      46.145   9.090  -1.035  1.00  0.00     0.166 HD
HETATM   10  C12 UNL     1      46.141  10.597   0.326  1.00  0.00     0.115 A 
HETATM   11  N4  UNL     1      46.950  10.028   1.179  1.00  0.00    -0.371 N 
ATOM     12  H4  UNL     1      47.201  10.516   2.039  1.00  0.00     0.161 HD
HETATM   13  C18 UNL     1      45.625  11.859   0.600  1.00  0.00     0.057 A 
HETATM   14  C19 UNL     1      45.975  12.510   1.776  1.00  0.00     0.058 A 
HETATM   15 CL1  UNL     1      47.048  11.774   2.911  1.00  0.00    -0.083 Cl
ENDROOT
BRANCH   1  16
HETATM   16  C5  UNL     1      45.830  14.448   3.304  1.00  0.00     0.045 C 
BRANCH  16  17
HETATM   17  C4  UNL     1      47.189  15.086   3.311  1.00  0.00     0.042 C 
BRANCH  17  18
HETATM   18  C2  UNL     1      47.043  16.521   3.812  1.00  0.00     0.051 C 
HETATM   19  C1  UNL     1      48.258  16.968   4.600  1.00  0.00     0.045 C 
HETATM   20  C3  UNL     1      45.840  16.609   4.727  1.00  0.00     0.045 C 
BRANCH  18  21
HETATM   21  O1  UNL     1      46.820  17.312   2.686  1.00  0.00    -0.391 OA
ATOM     22  H1  UNL     1      45.938  17.665   2.660  1.00  0.00     0.210 HD
ENDBRANCH  18  21
ENDBRANCH  17  18
ENDBRANCH  16  17
ENDBRANCH   1  16
BRANCH   2  23
HETATM   23  C8  UNL     1      44.096  15.674   1.452  1.00  0.00     0.111 C 
HETATM   24  N1  UNL     1      44.612  16.666   0.766  1.00  0.00    -0.406 N 
ATOM     25  H12 UNL     1      45.335  16.500   0.066  1.00  0.00     0.155 HD
ATOM     26  H11 UNL     1      44.249  17.595   0.977  1.00  0.00     0.155 HD
ENDBRANCH   2  23
BRANCH  11  27
HETATM   27  C13 UNL     1      47.484   8.734   0.920  1.00  0.00     0.083 C 
HETATM   28  C14 UNL     1      47.274   7.777   2.093  1.00  0.00     0.025 C 
HETATM   29  C15 UNL     1      48.173   6.625   1.695  1.00  0.00     0.002 C 
HETATM   30  C16 UNL     1      49.386   7.298   1.105  1.00  0.00     0.002 C 
HETATM   31  C17 UNL     1      49.003   8.733   0.852  1.00  0.00     0.025 C 
ENDBRANCH  11  27
TORSDOF 6
ENDMDL
MODEL 2
REMARK VINA RESULT: -7.244478899      0.819      1.037
REMARK  6 active torsions:
REMARK  status: ('A' for Active; 'I' for Inactive)
REMARK    1  A    between atoms: C2_2  and  O1_4 
REMARK    2  A    between atoms: C2_2  and  C4_6 
REMARK    3  A    between atoms: C4_6  and  C5_7 
REMARK    4  A    between atoms: C5_7  and  C6_8 
REMARK    5  A    between atoms: C7_9  and  C8_10 
REMARK    6  A    between atoms: N4_22  and  C13_24 
ROOT
HETATM    1  C6  UNL     1      45.443  13.633   1.900  1.00  0.00    -0.007 A 
HETATM    2  C7  UNL     1      44.658  14.142   0.897  1.00  0.00     0.055 A 
HETATM    3  N2  UNL     1      44.380  13.421  -0.229  1.00  0.00    -0.354 N 
ATOM      4  H2  UNL     1      43.794  13.826  -0.958  1.00  0.00     0.166 HD
HETATM    5  C9  UNL     1      44.879  12.171  -0.384  1.00  0.00     0.049 A 
HETATM    6  C10 UNL     1      44.587  11.445  -1.540  1.00  0.00     0.047 A 
HETATM    7  C11 UNL     1      45.111  10.180  -1.661  1.00  0.00     0.092 A 
HETATM    8  N3  UNL     1      45.883   9.674  -0.682  1.00  0.00    -0.352 N 
ATOM      9  H3  UNL     1      46.258   8.733  -0.804  1.00  0.00     0.166 HD
HETATM   10  C12 UNL     1      46.187  10.334   0.442  1.00  0.00     0.115 A 
HETATM   11  N4  UNL     1      46.934   9.823   1.384  1.00  0.00    -0.371 N 
ATOM     12  H4  UNL     1      47.137  10.370   2.221  1.00  0.00     0.161 HD
HETATM   13  C18 UNL     1      45.670  11.617   0.592  1.00  0.00     0.057 A 
HETATM   14  C19 UNL     1      45.954  12.349   1.738  1.00  0.00     0.058 A 
HETATM   15 CL1  UNL     1      46.945  11.689   2.989  1.00  0.00    -0.083 Cl
ENDROOT
BRANCH   1  16
HETATM   16  C5  UNL     1      45.736  14.393   3.111  1.00  0.00     0.045 C 
BRANCH  16  17
HETATM   17  C4  UNL     1      47.146  14.896   3.224  1.00  0.00     0.042 C 
BRANCH  17  18
HETATM   18  C2  UNL     1      47.137  16.163   4.076  1.00  0.00     0.051 C 
HETATM   19  C1  UNL     1      46.366  17.284   3.407  1.00  0.00     0.045 C 
HETATM   20  C3  UNL     1      48.561  16.637   4.277  1.00  0.00     0.045 C 
BRANCH  18  21
HETATM   21  O1  UNL     1      46.594  15.807   5.309  1.00  0.00    -0.391 OA
ATOM     22  H1  UNL     1      46.967  15.003   5.650  1.00  0.00     0.210 HD
ENDBRANCH  18  21
ENDBRANCH  17  18
ENDBRANCH  16  17
ENDBRANCH   1  16
BRANCH   2  23
HETATM   23  C8  UNL     1      44.136  15.494   1.069  1.00  0.00     0.111 C 
HETATM   24  N1  UNL     1      43.429  15.972   0.073  1.00  0.00    -0.406 N 
ATOM     25  H12 UNL     1      43.263  15.418  -0.766  1.00  0.00     0.155 HD
ATOM     26  H11 UNL     1      43.064  16.917   0.194  1.00  0.00     0.155 HD
ENDBRANCH   2  23
BRANCH  11  27
HETATM   27  C13 UNL     1      47.468   8.510   1.253  1.00  0.00     0.083 C 
HETATM   28  C14 UNL     1      47.504   7.765   2.587  1.00  0.00     0.025 C 
HETATM   29  C15 UNL     1      48.367   6.572   2.233  1.00  0.00     0.002 C 
HETATM   30  C16 UNL     1      49.430   7.147   1.333  1.00  0.00     0.002 C 
HETATM   31  C17 UNL     1      48.951   8.513   0.918  1.00  0.00     0.025 C 
ENDBRANCH  11  27
TORSDOF 6
ENDMDL
MODEL 3
REMARK VINA RESULT: -6.976511681      3.125      6.129
REMARK  6 active torsions:
REMARK  status: ('A' for Active; 'I' for Inactive)
REMARK    1  A    between atoms: C2_2  and  O1_4 
REMARK    2  A    between atoms: C2_2  and  C4_6 
REMARK    3  A    between atoms: C4_6  and  C5_7 
REMARK    4  A    between atoms: C5_7  and  C6_8 
REMARK    5  A    between atoms: C7_9  and  C8_10 
REMARK    6  A    between atoms: N4_22  and  C13_24 
ROOT
HETATM    1  C6  UNL     1      45.103  14.196   1.619  1.00  0.00    -0.007 A 
HETATM    2  C7  UNL     1      45.752  12.990   1.691  1.00  0.00     0.055 A 
HETATM    3  N2  UNL     1      45.726  12.102   0.654  1.00  0.00    -0.354 N 
ATOM      4  H2  UNL     1      46.217  11.213   0.736  1.00  0.00     0.166 HD
HETATM    5  C9  UNL     1      45.051  12.395  -0.483  1.00  0.00     0.049 A 
HETATM    6  C10 UNL     1      45.032  11.477  -1.537  1.00  0.00     0.047 A 
HETATM    7  C11 UNL     1      44.337  11.809  -2.674  1.00  0.00     0.092 A 
HETATM    8  N3  UNL     1      43.696  12.990  -2.752  1.00  0.00    -0.352 N 
ATOM      9  H3  UNL     1      43.187  13.206  -3.609  1.00  0.00     0.166 HD
HETATM   10  C12 UNL     1      43.688  13.899  -1.768  1.00  0.00     0.115 A 
HETATM   11  N4  UNL     1      43.065  15.042  -1.865  1.00  0.00    -0.371 N 
ATOM     12  H4  UNL     1      43.089  15.699  -1.084  1.00  0.00     0.161 HD
HETATM   13  C18 UNL     1      44.384  13.589  -0.605  1.00  0.00     0.057 A 
HETATM   14  C19 UNL     1      44.410  14.494   0.450  1.00  0.00     0.058 A 
HETATM   15 CL1  UNL     1      43.585  16.007   0.338  1.00  0.00    -0.083 Cl
ENDROOT
BRANCH   1  16
HETATM   16  C5  UNL     1      45.134  15.155   2.719  1.00  0.00     0.045 C 
BRANCH  16  17
HETATM   17  C4  UNL     1      46.036  16.337   2.510  1.00  0.00     0.042 C 
BRANCH  17  18
HETATM   18  C2  UNL     1      46.790  16.603   3.811  1.00  0.00     0.051 C 
HETATM   19  C1  UNL     1      48.229  16.134   3.732  1.00  0.00     0.045 C 
HETATM   20  C3  UNL     1      46.118  15.846   4.938  1.00  0.00     0.045 C 
BRANCH  18  21
HETATM   21  O1  UNL     1      46.689  17.971   4.055  1.00  0.00    -0.391 OA
ATOM     22  H1  UNL     1      46.357  18.449   3.304  1.00  0.00     0.210 HD
ENDBRANCH  18  21
ENDBRANCH  17  18
ENDBRANCH  16  17
ENDBRANCH   1  16
BRANCH   2  23
HETATM   23  C8  UNL     1      46.466  12.681   2.925  1.00  0.00     0.111 C 
HETATM   24  N1  UNL     1      47.187  11.586   2.917  1.00  0.00    -0.406 N 
ATOM     25  H12 UNL     1      47.236  10.995   2.087  1.00  0.00     0.155 HD
ATOM     26  H11 UNL     1      47.686  11.369   3.780  1.00  0.00     0.155 HD
ENDBRANCH   2  23
BRANCH  11  27
HETATM   27  C13 UNL     1      42.351  15.381  -3.050  1.00  0.00     0.083 C 
HETATM   28  C14 UNL     1      42.609  16.823  -3.487  1.00  0.00     0.025 C 
HETATM   29  C15 UNL     1      41.534  17.006  -4.538  1.00  0.00     0.002 C 
HETATM   30  C16 UNL     1      40.338  16.290  -3.964  1.00  0.00     0.002 C 
HETATM   31  C17 UNL     1      40.848  15.441  -2.829  1.00  0.00     0.025 C 
ENDBRANCH  11  27
TORSDOF 6
ENDMDL
MODEL 4
REMARK VINA RESULT: -6.924239444      2.279      6.668
REMARK  6 active torsions:
REMARK  status: ('A' for Active; 'I' for Inactive)
REMARK    1  A    between atoms: C2_2  and  O1_4 
REMARK    2  A    between atoms: C2_2  and  C4_6 
REMARK    3  A    between atoms: C4_6  and  C5_7 
REMARK    4  A    between atoms: C5_7  and  C6_8 
REMARK    5  A    between atoms: C7_9  and  C8_10 
REMARK    6  A    between atoms: N4_22  and  C13_24 
ROOT
HETATM    1  C6  UNL     1      45.917  10.724   0.498  1.00  0.00    -0.007 A 
HETATM    2  C7  UNL     1      45.239  10.662  -0.693  1.00  0.00     0.055 A 
HETATM    3  N2  UNL     1      44.583  11.748  -1.199  1.00  0.00    -0.354 N 
ATOM      4  H2  UNL     1      44.086  11.672  -2.086  1.00  0.00     0.166 HD
HETATM    5  C9  UNL     1      44.588  12.926  -0.530  1.00  0.00     0.049 A 
HETATM    6  C10 UNL     1      43.913  14.029  -1.059  1.00  0.00     0.047 A 
HETATM    7  C11 UNL     1      43.940  15.206  -0.351  1.00  0.00     0.092 A 
HETATM    8  N3  UNL     1      44.602  15.275   0.818  1.00  0.00    -0.352 N 
ATOM      9  H3  UNL     1      44.601  16.163   1.319  1.00  0.00     0.166 HD
HETATM   10  C12 UNL     1      45.263  14.245   1.361  1.00  0.00     0.115 A 
HETATM   11  N4  UNL     1      45.905  14.333   2.495  1.00  0.00    -0.371 N 
ATOM     12  H4  UNL     1      46.391  13.516   2.865  1.00  0.00     0.161 HD
HETATM   13  C18 UNL     1      45.252  13.040   0.666  1.00  0.00     0.057 A 
HETATM   14  C19 UNL     1      45.920  11.936   1.183  1.00  0.00     0.058 A 
HETATM   15 CL1  UNL     1      46.768  12.036   2.684  1.00  0.00    -0.083 Cl
ENDROOT
BRANCH   1  16
HETATM   16  C5  UNL     1      46.630   9.572   1.040  1.00  0.00     0.045 C 
BRANCH  16  17
HETATM   17  C4  UNL     1      48.104   9.541   0.759  1.00  0.00     0.042 C 
BRANCH  17  18
HETATM   18  C2  UNL     1      48.690   8.289   1.405  1.00  0.00     0.051 C 
HETATM   19  C1  UNL     1      48.695   7.113   0.448  1.00  0.00     0.045 C 
HETATM   20  C3  UNL     1      47.848   7.907   2.604  1.00  0.00     0.045 C 
BRANCH  18  21
HETATM   21  O1  UNL     1      49.972   8.629   1.835  1.00  0.00    -0.391 OA
ATOM     22  H1  UNL     1      50.090   9.568   1.914  1.00  0.00     0.210 HD
ENDBRANCH  18  21
ENDBRANCH  17  18
ENDBRANCH  16  17
ENDBRANCH   1  16
BRANCH   2  23
HETATM   23  C8  UNL     1      45.231   9.386  -1.398  1.00  0.00     0.111 C 
HETATM   24  N1  UNL     1      44.079   8.762  -1.452  1.00  0.00    -0.406 N 
ATOM     25  H12 UNL     1      43.245   9.160  -1.019  1.00  0.00     0.155 HD
ATOM     26  H11 UNL     1      44.073   7.869  -1.946  1.00  0.00     0.155 HD
ENDBRANCH   2  23
BRANCH  11  27
HETATM   27  C13 UNL     1      45.933  15.559   3.219  1.00  0.00     0.083 C 
HETATM   28  C14 UNL     1      47.328  16.180   3.249  1.00  0.00     0.025 C 
HETATM   29  C15 UNL     1      47.147  17.257   4.299  1.00  0.00     0.002 C 
HETATM   30  C16 UNL     1      46.275  16.604   5.341  1.00  0.00     0.002 C 
HETATM   31  C17 UNL     1      45.703  15.362   4.709  1.00  0.00     0.025 C 
ENDBRANCH  11  27
TORSDOF 6
ENDMDL
MODEL 5
REMARK VINA RESULT: -6.795632539      2.925      6.392
REMARK  6 active torsions:
REMARK  status: ('A' for Active; 'I' for Inactive)
REMARK    1  A    between atoms: C2_2  and  O1_4 
REMARK    2  A    between atoms: C2_2  and  C4_6 
REMARK    3  A    between atoms: C4_6  and  C5_7 
REMARK    4  A    between atoms: C5_7  and  C6_8 
REMARK    5  A    between atoms: C7_9  and  C8_10 
REMARK    6  A    between atoms: N4_22  and  C13_24 
ROOT
HETATM    1  C6  UNL     1      44.241  13.062  -1.250  1.00  0.00    -0.007 A 
HETATM    2  C7  UNL     1      44.470  11.738  -1.523  1.00  0.00     0.055 A 
HETATM    3  N2  UNL     1      45.162  10.940  -0.657  1.00  0.00    -0.354 N 
ATOM      4  H2  UNL     1      45.318   9.959  -0.887  1.00  0.00     0.166 HD
HETATM    5  C9  UNL     1      45.643  11.443   0.505  1.00  0.00     0.049 A 
HETATM    6  C10 UNL     1      46.348  10.615   1.382  1.00  0.00     0.047 A 
HETATM    7  C11 UNL     1      46.821  11.161   2.551  1.00  0.00     0.092 A 
HETATM    8  N3  UNL     1      46.601  12.460   2.825  1.00  0.00    -0.352 N 
ATOM      9  H3  UNL     1      46.966  12.835   3.700  1.00  0.00     0.166 HD
HETATM   10  C12 UNL     1      45.929  13.289   2.015  1.00  0.00     0.115 A 
HETATM   11  N4  UNL     1      45.721  14.546   2.302  1.00  0.00    -0.371 N 
ATOM     12  H4  UNL     1      45.204  15.135   1.648  1.00  0.00     0.161 HD
HETATM   13  C18 UNL     1      45.440  12.763   0.824  1.00  0.00     0.057 A 
HETATM   14  C19 UNL     1      44.736  13.576  -0.056  1.00  0.00     0.058 A 
HETATM   15 CL1  UNL     1      44.458  15.242   0.307  1.00  0.00    -0.083 Cl
ENDROOT
BRANCH   1  16
HETATM   16  C5  UNL     1      43.494  13.920  -2.165  1.00  0.00     0.045 C 
BRANCH  16  17
HETATM   17  C4  UNL     1      44.334  14.769  -3.075  1.00  0.00     0.042 C 
BRANCH  17  18
HETATM   18  C2  UNL     1      43.594  16.080  -3.326  1.00  0.00     0.051 C 
HETATM   19  C1  UNL     1      44.310  17.258  -2.695  1.00  0.00     0.045 C 
HETATM   20  C3  UNL     1      42.212  15.997  -2.715  1.00  0.00     0.045 C 
BRANCH  18  21
HETATM   21  O1  UNL     1      43.477  16.210  -4.709  1.00  0.00    -0.391 OA
ATOM     22  H1  UNL     1      43.152  15.417  -5.121  1.00  0.00     0.210 HD
ENDBRANCH  18  21
ENDBRANCH  17  18
ENDBRANCH  16  17
ENDBRANCH   1  16
BRANCH   2  23
HETATM   23  C8  UNL     1      43.958  11.210  -2.783  1.00  0.00     0.111 C 
HETATM   24  N1  UNL     1      43.421  10.015  -2.734  1.00  0.00    -0.406 N 
ATOM     25  H12 UNL     1      43.372   9.497  -1.856  1.00  0.00     0.155 HD
ATOM     26  H11 UNL     1      43.063   9.646  -3.615  1.00  0.00     0.155 HD
ENDBRANCH   2  23
BRANCH  11  27
HETATM   27  C13 UNL     1      46.209  15.102   3.518  1.00  0.00     0.083 C 
HETATM   28  C14 UNL     1      45.258  16.150   4.096  1.00  0.00     0.025 C 
HETATM   29  C15 UNL     1      46.129  16.776   5.166  1.00  0.00     0.002 C 
HETATM   30  C16 UNL     1      47.493  16.847   4.529  1.00  0.00     0.002 C 
HETATM   31  C17 UNL     1      47.447  15.961   3.312  1.00  0.00     0.025 C 
ENDBRANCH  11  27
TORSDOF 6
ENDMDL
