MODEL 1
REMARK VINA RESULT: -8.100639143      0.000      0.000
REMARK  5 active torsions:
REMARK  status: ('A' for Active; 'I' for Inactive)
REMARK    1  A    between atoms: C2_2  and  C3_3 
REMARK    2  A    between atoms: C8_11  and  C9_12 
REMARK    3  A    between atoms: N2_14  and  C11_15 
REMARK    4  A    between atoms: C11_15  and  C12_16 
REMARK    5  A    between atoms: C12_16  and  C13_17 
ROOT
HETATM    1  C3  UNL     1      42.090   8.450  -3.188  1.00  0.00    -0.018 C 
HETATM    2  C4  UNL     1      42.768   7.347  -4.014  1.00  0.00     0.049 C 
HETATM    3  C5  UNL     1      44.194   7.922  -4.042  1.00  0.00     0.217 C 
HETATM    4  N1  UNL     1      44.752   7.564  -2.747  1.00  0.00    -0.062 N 
ATOM      5  H11 UNL     1      45.771   7.519  -2.737  1.00  0.00     0.278 HD
ATOM      6  H12 UNL     1      44.588   6.592  -2.484  1.00  0.00     0.278 HD
HETATM    7  C6  UNL     1      44.197   8.532  -1.802  1.00  0.00     0.224 C 
HETATM    8  C7  UNL     1      42.722   8.624  -1.847  1.00  0.00     0.049 C 
HETATM    9  C8  UNL     1      44.936   9.817  -2.070  1.00  0.00     0.267 C 
HETATM   10  N4  UNL     1      44.708  10.270  -3.424  1.00  0.00    -0.057 N 
ATOM     11  H41 UNL     1      45.594  10.501  -3.874  1.00  0.00     0.278 HD
ATOM     12  H42 UNL     1      44.267  11.190  -3.420  1.00  0.00     0.278 HD
HETATM   13  C20 UNL     1      43.966   9.373  -4.234  1.00  0.00     0.218 C 
HETATM   14  C21 UNL     1      42.492   9.659  -4.041  1.00  0.00     0.049 C 
ENDROOT
BRANCH   9  15
HETATM   15  C9  UNL     1      44.763  10.850  -1.050  1.00  0.00     0.058 A 
HETATM   16  C10 UNL     1      44.678  12.225  -1.162  1.00  0.00     0.119 A 
HETATM   17  N2  UNL     1      44.513  12.769   0.079  1.00  0.00    -0.351 N 
HETATM   18  C19 UNL     1      44.496  11.751   0.948  1.00  0.00     0.183 A 
HETATM   19  N3  UNL     1      44.644  10.601   0.287  1.00  0.00    -0.353 N 
ATOM     20  H3  UNL     1      44.666   9.676   0.716  1.00  0.00     0.166 HD
BRANCH  17  21
HETATM   21  C11 UNL     1      44.388  14.166   0.344  1.00  0.00     0.134 C 
BRANCH  21  22
HETATM   22  C12 UNL     1      44.179  14.469   1.812  1.00  0.00     0.058 C 
BRANCH  22  23
HETATM   23  C13 UNL     1      45.393  15.067   2.423  1.00  0.00    -0.056 A 
HETATM   24  C14 UNL     1      46.343  14.234   2.978  1.00  0.00     0.010 A 
HETATM   25  C15 UNL     1      47.470  14.793   3.545  1.00  0.00     0.043 A 
HETATM   26  C16 UNL     1      47.664  16.173   3.565  1.00  0.00     0.116 A 
HETATM   27  F1  UNL     1      48.749  16.739   4.110  1.00  0.00    -0.206 F 
HETATM   28  C17 UNL     1      46.706  17.001   3.006  1.00  0.00     0.043 A 
HETATM   29  C18 UNL     1      45.583  16.440   2.442  1.00  0.00     0.010 A 
ENDBRANCH  22  23
ENDBRANCH  21  22
ENDBRANCH  17  21
ENDBRANCH   9  15
BRANCH   1  30
HETATM   30  C2  UNL     1      40.644   8.278  -3.096  1.00  0.00    -0.027 C 
HETATM   31  C1  UNL     1      39.829   9.333  -3.109  1.00  0.00     0.007 C 
ENDBRANCH   1  30
TORSDOF 5
ENDMDL
MODEL 2
REMARK VINA RESULT: -7.887497183      2.483      3.909
REMARK  5 active torsions:
REMARK  status: ('A' for Active; 'I' for Inactive)
REMARK    1  A    between atoms: C2_2  and  C3_3 
REMARK    2  A    between atoms: C8_11  and  C9_12 
REMARK    3  A    between atoms: N2_14  and  C11_15 
REMARK    4  A    between atoms: C11_15  and  C12_16 
REMARK    5  A    between atoms: C12_16  and  C13_17 
ROOT
HETATM    1  C3  UNL     1      46.469  10.267   0.201  1.00  0.00    -0.018 C 
HETATM    2  C4  UNL     1      46.890   9.173  -0.790  1.00  0.00     0.049 C 
HETATM    3  C5  UNL     1      46.030   9.604  -1.990  1.00  0.00     0.217 C 
HETATM    4  N1  UNL     1      46.773  10.702  -2.590  1.00  0.00    -0.062 N 
ATOM      5  H11 UNL     1      46.565  10.849  -3.577  1.00  0.00     0.278 HD
ATOM      6  H12 UNL     1      47.768  10.510  -2.705  1.00  0.00     0.278 HD
HETATM    7  C6  UNL     1      46.491  11.867  -1.750  1.00  0.00     0.224 C 
HETATM    8  C7  UNL     1      46.755  11.639  -0.314  1.00  0.00     0.049 C 
HETATM    9  C8  UNL     1      45.082  12.273  -2.096  1.00  0.00     0.267 C 
HETATM   10  N4  UNL     1      44.149  11.211  -1.788  1.00  0.00    -0.057 N 
ATOM     11  H41 UNL     1      43.533  11.039  -2.583  1.00  0.00     0.278 HD
ATOM     12  H42 UNL     1      43.466  11.529  -1.100  1.00  0.00     0.278 HD
HETATM   13  C20 UNL     1      44.749   9.999  -1.360  1.00  0.00     0.218 C 
HETATM   14  C21 UNL     1      44.950  10.065   0.139  1.00  0.00     0.049 C 
ENDROOT
BRANCH   9  15
HETATM   15  C9  UNL     1      44.683  13.589  -1.602  1.00  0.00     0.058 A 
HETATM   16  C10 UNL     1      44.435  14.035  -0.317  1.00  0.00     0.119 A 
HETATM   17  N2  UNL     1      44.093  15.356  -0.356  1.00  0.00    -0.351 N 
HETATM   18  C19 UNL     1      44.127  15.726  -1.642  1.00  0.00     0.183 A 
HETATM   19  N3  UNL     1      44.478  14.681  -2.395  1.00  0.00    -0.353 N 
ATOM     20  H3  UNL     1      44.577  14.696  -3.410  1.00  0.00     0.166 HD
BRANCH  17  21
HETATM   21  C11 UNL     1      43.770  16.146   0.787  1.00  0.00     0.134 C 
BRANCH  21  22
HETATM   22  C12 UNL     1      43.991  15.411   2.091  1.00  0.00     0.058 C 
BRANCH  22  23
HETATM   23  C13 UNL     1      45.346  15.673   2.641  1.00  0.00    -0.056 A 
HETATM   24  C14 UNL     1      46.160  14.603   2.953  1.00  0.00     0.010 A 
HETATM   25  C15 UNL     1      47.417  14.851   3.464  1.00  0.00     0.043 A 
HETATM   26  C16 UNL     1      47.875  16.151   3.668  1.00  0.00     0.116 A 
HETATM   27  F1  UNL     1      49.092  16.416   4.163  1.00  0.00    -0.206 F 
HETATM   28  C17 UNL     1      47.052  17.218   3.353  1.00  0.00     0.043 A 
HETATM   29  C18 UNL     1      45.798  16.967   2.844  1.00  0.00     0.010 A 
ENDBRANCH  22  23
ENDBRANCH  21  22
ENDBRANCH  17  21
ENDBRANCH   9  15
BRANCH   1  30
HETATM   30  C2  UNL     1      47.014  10.058   1.538  1.00  0.00    -0.027 C 
HETATM   31  C1  UNL     1      46.862  10.979   2.489  1.00  0.00     0.007 C 
ENDBRANCH   1  30
TORSDOF 5
ENDMDL
MODEL 3
REMARK VINA RESULT: -7.804991627      3.516      8.552
REMARK  5 active torsions:
REMARK  status: ('A' for Active; 'I' for Inactive)
REMARK    1  A    between atoms: C2_2  and  C3_3 
REMARK    2  A    between atoms: C8_11  and  C9_12 
REMARK    3  A    between atoms: N2_14  and  C11_15 
REMARK    4  A    between atoms: C11_15  and  C12_16 
REMARK    5  A    between atoms: C12_16  and  C13_17 
ROOT
HETATM    1  C3  UNL     1      46.991  16.127   3.583  1.00  0.00    -0.018 C 
HETATM    2  C4  UNL     1      46.327  16.752   4.818  1.00  0.00     0.049 C 
HETATM    3  C5  UNL     1      44.866  16.714   4.341  1.00  0.00     0.217 C 
HETATM    4  N1  UNL     1      44.447  15.340   4.573  1.00  0.00    -0.062 N 
ATOM      5  H11 UNL     1      43.439  15.230   4.678  1.00  0.00     0.278 HD
ATOM      6  H12 UNL     1      44.703  14.982   5.493  1.00  0.00     0.278 HD
HETATM    7  C6  UNL     1      45.010  14.569   3.463  1.00  0.00     0.224 C 
HETATM    8  C7  UNL     1      46.465  14.762   3.286  1.00  0.00     0.049 C 
HETATM    9  C8  UNL     1      44.158  14.914   2.269  1.00  0.00     0.267 C 
HETATM   10  N4  UNL     1      44.237  16.328   1.972  1.00  0.00    -0.057 N 
ATOM     11  H41 UNL     1      43.301  16.716   1.852  1.00  0.00     0.278 HD
ATOM     12  H42 UNL     1      44.608  16.471   1.032  1.00  0.00     0.278 HD
HETATM   13  C20 UNL     1      44.970  17.093   2.913  1.00  0.00     0.218 C 
HETATM   14  C21 UNL     1      46.430  17.074   2.514  1.00  0.00     0.049 C 
ENDROOT
BRANCH   9  15
HETATM   15  C9  UNL     1      44.342  14.042   1.111  1.00  0.00     0.058 A 
HETATM   16  C10 UNL     1      44.354  12.662   1.012  1.00  0.00     0.119 A 
HETATM   17  N2  UNL     1      44.559  12.306  -0.290  1.00  0.00    -0.351 N 
HETATM   18  C19 UNL     1      44.673  13.443  -0.988  1.00  0.00     0.183 A 
HETATM   19  N3  UNL     1      44.545  14.485  -0.164  1.00  0.00    -0.353 N 
ATOM     20  H3  UNL     1      44.593  15.464  -0.444  1.00  0.00     0.166 HD
BRANCH  17  21
HETATM   21  C11 UNL     1      44.630  10.962  -0.764  1.00  0.00     0.134 C 
BRANCH  21  22
HETATM   22  C12 UNL     1      46.047  10.513  -1.048  1.00  0.00     0.058 C 
BRANCH  22  23
HETATM   23  C13 UNL     1      46.579   9.662   0.047  1.00  0.00    -0.056 A 
HETATM   24  C14 UNL     1      46.435   8.292  -0.040  1.00  0.00     0.010 A 
HETATM   25  C15 UNL     1      46.930   7.504   0.978  1.00  0.00     0.043 A 
HETATM   26  C16 UNL     1      47.567   8.064   2.085  1.00  0.00     0.116 A 
HETATM   27  F1  UNL     1      48.055   7.319   3.086  1.00  0.00    -0.206 F 
HETATM   28  C17 UNL     1      47.707   9.439   2.164  1.00  0.00     0.043 A 
HETATM   29  C18 UNL     1      47.211  10.221   1.146  1.00  0.00     0.010 A 
ENDBRANCH  22  23
ENDBRANCH  21  22
ENDBRANCH  17  21
ENDBRANCH   9  15
BRANCH   1  30
HETATM   30  C2  UNL     1      48.449  16.151   3.652  1.00  0.00    -0.027 C 
HETATM   31  C1  UNL     1      49.076  16.872   4.580  1.00  0.00     0.007 C 
ENDBRANCH   1  30
TORSDOF 5
ENDMDL
MODEL 4
REMARK VINA RESULT: -7.712904560      4.451      7.080
REMARK  5 active torsions:
REMARK  status: ('A' for Active; 'I' for Inactive)
REMARK    1  A    between atoms: C2_2  and  C3_3 
REMARK    2  A    between atoms: C8_11  and  C9_12 
REMARK    3  A    between atoms: N2_14  and  C11_15 
REMARK    4  A    between atoms: C11_15  and  C12_16 
REMARK    5  A    between atoms: C12_16  and  C13_17 
ROOT
HETATM    1  C3  UNL     1      46.326  17.960  -4.616  1.00  0.00    -0.018 C 
HETATM    2  C4  UNL     1      45.556  19.142  -5.223  1.00  0.00     0.049 C 
HETATM    3  C5  UNL     1      44.124  18.631  -4.988  1.00  0.00     0.217 C 
HETATM    4  N1  UNL     1      43.860  18.928  -3.589  1.00  0.00    -0.062 N 
ATOM      5  H11 UNL     1      42.869  19.015  -3.367  1.00  0.00     0.278 HD
ATOM      6  H12 UNL     1      44.128  19.873  -3.312  1.00  0.00     0.278 HD
HETATM    7  C6  UNL     1      44.543  17.878  -2.832  1.00  0.00     0.224 C 
HETATM    8  C7  UNL     1      45.970  17.727  -3.186  1.00  0.00     0.049 C 
HETATM    9  C8  UNL     1      43.695  16.646  -3.012  1.00  0.00     0.267 C 
HETATM   10  N4  UNL     1      43.618  16.272  -4.408  1.00  0.00    -0.057 N 
ATOM     11  H41 UNL     1      42.648  16.108  -4.677  1.00  0.00     0.278 HD
ATOM     12  H42 UNL     1      43.999  15.336  -4.545  1.00  0.00     0.278 HD
HETATM   13  C20 UNL     1      44.228  17.187  -5.302  1.00  0.00     0.218 C 
HETATM   14  C21 UNL     1      45.693  16.827  -5.433  1.00  0.00     0.049 C 
ENDROOT
BRANCH   9  15
HETATM   15  C9  UNL     1      44.014  15.543  -2.108  1.00  0.00     0.058 A 
HETATM   16  C10 UNL     1      43.875  15.429  -0.737  1.00  0.00     0.119 A 
HETATM   17  N2  UNL     1      44.311  14.198  -0.340  1.00  0.00    -0.351 N 
HETATM   18  C19 UNL     1      44.714  13.557  -1.444  1.00  0.00     0.183 A 
HETATM   19  N3  UNL     1      44.543  14.349  -2.504  1.00  0.00    -0.353 N 
ATOM     20  H3  UNL     1      44.772  14.099  -3.466  1.00  0.00     0.166 HD
BRANCH  17  21
HETATM   21  C11 UNL     1      44.313  13.732   1.009  1.00  0.00     0.134 C 
BRANCH  21  22
HETATM   22  C12 UNL     1      44.107  14.844   2.015  1.00  0.00     0.058 C 
BRANCH  22  23
HETATM   23  C13 UNL     1      45.398  15.326   2.567  1.00  0.00    -0.056 A 
HETATM   24  C14 UNL     1      45.635  16.685   2.628  1.00  0.00     0.010 A 
HETATM   25  C15 UNL     1      46.835  17.129   3.142  1.00  0.00     0.043 A 
HETATM   26  C16 UNL     1      47.805  16.236   3.597  1.00  0.00     0.116 A 
HETATM   27  F1  UNL     1      48.978  16.644   4.100  1.00  0.00    -0.206 F 
HETATM   28  C17 UNL     1      47.559  14.876   3.532  1.00  0.00     0.043 A 
HETATM   29  C18 UNL     1      46.360  14.437   3.018  1.00  0.00     0.010 A 
ENDBRANCH  22  23
ENDBRANCH  21  22
ENDBRANCH  17  21
ENDBRANCH   9  15
BRANCH   1  30
HETATM   30  C2  UNL     1      47.768  18.064  -4.814  1.00  0.00    -0.027 C 
HETATM   31  C1  UNL     1      48.567  18.441  -3.818  1.00  0.00     0.007 C 
ENDBRANCH   1  30
TORSDOF 5
ENDMDL
MODEL 5
REMARK VINA RESULT: -7.703367019      3.353      4.902
REMARK  5 active torsions:
REMARK  status: ('A' for Active; 'I' for Inactive)
REMARK    1  A    between atoms: C2_2  and  C3_3 
REMARK    2  A    between atoms: C8_11  and  C9_12 
REMARK    3  A    between atoms: N2_14  and  C11_15 
REMARK    4  A    between atoms: C11_15  and  C12_16 
REMARK    5  A    between atoms: C12_16  and  C13_17 
ROOT
HETATM    1  C3  UNL     1      48.007   7.729   1.881  1.00  0.00    -0.018 C 
HETATM    2  C4  UNL     1      49.196   7.152   1.099  1.00  0.00     0.049 C 
HETATM    3  C5  UNL     1      48.868   7.735  -0.285  1.00  0.00     0.217 C 
HETATM    4  N1  UNL     1      49.334   9.112  -0.216  1.00  0.00    -0.062 N 
ATOM      5  H11 UNL     1      49.548   9.519  -1.126  1.00  0.00     0.278 HD
ATOM      6  H12 UNL     1      50.268   9.210   0.182  1.00  0.00     0.278 HD
HETATM    7  C6  UNL     1      48.300   9.836   0.524  1.00  0.00     0.224 C 
HETATM    8  C7  UNL     1      47.961   9.219   1.824  1.00  0.00     0.049 C 
HETATM    9  C8  UNL     1      47.153   9.986  -0.442  1.00  0.00     0.267 C 
HETATM   10  N4  UNL     1      46.648   8.692  -0.848  1.00  0.00    -0.057 N 
ATOM     11  H41 UNL     1      46.562   8.649  -1.864  1.00  0.00     0.278 HD
ATOM     12  H42 UNL     1      45.668   8.597  -0.584  1.00  0.00     0.278 HD
HETATM   13  C20 UNL     1      47.397   7.586  -0.371  1.00  0.00     0.218 C 
HETATM   14  C21 UNL     1      46.870   7.204   0.996  1.00  0.00     0.049 C 
ENDROOT
BRANCH   9  15
HETATM   15  C9  UNL     1      46.121  10.934  -0.027  1.00  0.00     0.058 A 
HETATM   16  C10 UNL     1      46.049  12.309  -0.163  1.00  0.00     0.119 A 
HETATM   17  N2  UNL     1      44.880  12.755   0.381  1.00  0.00    -0.351 N 
HETATM   18  C19 UNL     1      44.236  11.678   0.848  1.00  0.00     0.183 A 
HETATM   19  N3  UNL     1      44.966  10.587   0.611  1.00  0.00    -0.353 N 
ATOM     20  H3  UNL     1      44.700   9.636   0.867  1.00  0.00     0.166 HD
BRANCH  17  21
HETATM   21  C11 UNL     1      44.471  14.122   0.420  1.00  0.00     0.134 C 
BRANCH  21  22
HETATM   22  C12 UNL     1      44.198  14.614   1.824  1.00  0.00     0.058 C 
BRANCH  22  23
HETATM   23  C13 UNL     1      45.421  15.181   2.449  1.00  0.00    -0.056 A 
HETATM   24  C14 UNL     1      45.604  16.549   2.441  1.00  0.00     0.010 A 
HETATM   25  C15 UNL     1      46.740  17.072   3.023  1.00  0.00     0.043 A 
HETATM   26  C16 UNL     1      47.698  16.249   3.613  1.00  0.00     0.116 A 
HETATM   27  F1  UNL     1      48.810  16.733   4.184  1.00  0.00    -0.206 F 
HETATM   28  C17 UNL     1      47.506  14.878   3.616  1.00  0.00     0.043 A 
HETATM   29  C18 UNL     1      46.371  14.360   3.035  1.00  0.00     0.010 A 
ENDBRANCH  22  23
ENDBRANCH  21  22
ENDBRANCH  17  21
ENDBRANCH   9  15
BRANCH   1  30
HETATM   30  C2  UNL     1      47.936   7.229   3.250  1.00  0.00    -0.027 C 
HETATM   31  C1  UNL     1      49.041   7.071   3.978  1.00  0.00     0.007 C 
ENDBRANCH   1  30
TORSDOF 5
ENDMDL
