MODEL 1
REMARK VINA RESULT: -5.820731361      0.000      0.000
REMARK  2 active torsions:
REMARK  status: ('A' for Active; 'I' for Inactive)
REMARK    1  A    between atoms: C2_2  and  N1_4 
REMARK    2  A    between atoms: C8_10  and  O1_11 
ROOT
HETATM    1  N1  UNL     1      60.909  83.753  13.304  1.00  0.00    -0.392 N 
ATOM      2  H1  UNL     1      60.460  83.042  12.727  1.00  0.00     0.159 HD
HETATM    3  C4  UNL     1      62.132  83.447  13.829  1.00  0.00    -0.005 C 
HETATM    4  C5  UNL     1      63.297  84.367  13.310  1.00  0.00     0.132 C 
HETATM    5  C6  UNL     1      64.341  84.195  14.240  1.00  0.00    -0.175 C 
HETATM    6  C7  UNL     1      65.333  83.988  15.207  1.00  0.00     0.114 C 
HETATM    7  C8  UNL     1      64.667  83.105  16.321  1.00  0.00     0.162 C 
HETATM    8  C9  UNL     1      63.404  82.428  15.836  1.00  0.00     0.205 C 
HETATM    9  F1  UNL     1      62.964  81.792  17.027  1.00  0.00    -0.246 F 
HETATM   10  C10 UNL     1      62.262  83.166  15.313  1.00  0.00     0.092 C 
ENDROOT
BRANCH   1  11
HETATM   11  C2  UNL     1      60.221  84.950  13.487  1.00  0.00     0.073 C 
HETATM   12  C1  UNL     1      60.434  85.908  12.344  1.00  0.00     0.031 C 
HETATM   13  C3  UNL     1      60.792  85.646  14.733  1.00  0.00     0.031 C 
ENDBRANCH   1  11
BRANCH   7  14
HETATM   14  O1  UNL     1      64.270  84.008  17.329  1.00  0.00    -0.392 OA
ATOM     15  H1  UNL     1      63.716  83.506  17.915  1.00  0.00     0.210 HD
ENDBRANCH   7  14
TORSDOF 2
ENDMDL
MODEL 2
REMARK VINA RESULT: -5.272384448      1.721      2.142
REMARK  2 active torsions:
REMARK  status: ('A' for Active; 'I' for Inactive)
REMARK    1  A    between atoms: C2_2  and  N1_4 
REMARK    2  A    between atoms: C8_10  and  O1_11 
ROOT
HETATM    1  N1  UNL     1      62.466  84.863  12.830  1.00  0.00    -0.392 N 
ATOM      2  H1  UNL     1      63.038  85.109  12.023  1.00  0.00     0.159 HD
HETATM    3  C4  UNL     1      63.071  84.892  14.054  1.00  0.00    -0.005 C 
HETATM    4  C5  UNL     1      62.468  85.959  15.038  1.00  0.00     0.132 C 
HETATM    5  C6  UNL     1      62.902  85.562  16.319  1.00  0.00    -0.175 C 
HETATM    6  C7  UNL     1      63.355  85.105  17.562  1.00  0.00     0.114 C 
HETATM    7  C8  UNL     1      64.050  83.726  17.284  1.00  0.00     0.162 C 
HETATM    8  C9  UNL     1      64.387  83.539  15.822  1.00  0.00     0.205 C 
HETATM    9  F1  UNL     1      64.900  82.215  15.829  1.00  0.00    -0.246 F 
HETATM   10  C10 UNL     1      63.385  83.590  14.766  1.00  0.00     0.092 C 
ENDROOT
BRANCH   1  11
HETATM   11  C2  UNL     1      61.136  84.528  12.587  1.00  0.00     0.073 C 
HETATM   12  C1  UNL     1      60.187  85.295  13.472  1.00  0.00     0.031 C 
HETATM   13  C3  UNL     1      60.941  83.046  12.944  1.00  0.00     0.031 C 
ENDBRANCH   1  11
BRANCH   7  14
HETATM   14  O1  UNL     1      63.083  82.748  17.595  1.00  0.00    -0.392 OA
ATOM     15  H1  UNL     1      63.439  82.265  18.332  1.00  0.00     0.210 HD
ENDBRANCH   7  14
TORSDOF 2
ENDMDL
MODEL 3
REMARK VINA RESULT: -5.251353192      2.854      4.408
REMARK  2 active torsions:
REMARK  status: ('A' for Active; 'I' for Inactive)
REMARK    1  A    between atoms: C2_2  and  N1_4 
REMARK    2  A    between atoms: C8_10  and  O1_11 
ROOT
HETATM    1  N1  UNL     1      63.303  83.973  17.079  1.00  0.00    -0.392 N 
ATOM      2  H1  UNL     1      63.440  84.645  17.834  1.00  0.00     0.159 HD
HETATM    3  C4  UNL     1      63.050  84.478  15.835  1.00  0.00    -0.005 C 
HETATM    4  C5  UNL     1      64.158  84.141  14.772  1.00  0.00     0.132 C 
HETATM    5  C6  UNL     1      63.544  84.356  13.522  1.00  0.00    -0.175 C 
HETATM    6  C7  UNL     1      62.871  84.576  12.314  1.00  0.00     0.114 C 
HETATM    7  C8  UNL     1      61.378  84.866  12.703  1.00  0.00     0.162 C 
HETATM    8  C9  UNL     1      61.227  85.232  14.163  1.00  0.00     0.205 C 
HETATM    9  F1  UNL     1      59.815  85.344  14.270  1.00  0.00    -0.246 F 
HETATM   10  C10 UNL     1      61.658  84.359  15.246  1.00  0.00     0.092 C 
ENDROOT
BRANCH   1  11
HETATM   11  C2  UNL     1      63.392  82.622  17.406  1.00  0.00     0.073 C 
HETATM   12  C1  UNL     1      63.145  81.732  16.215  1.00  0.00     0.031 C 
HETATM   13  C3  UNL     1      62.277  82.298  18.413  1.00  0.00     0.031 C 
ENDBRANCH   1  11
BRANCH   7  14
HETATM   14  O1  UNL     1      60.700  83.641  12.531  1.00  0.00    -0.392 OA
ATOM     15  H1  UNL     1      61.347  83.040  12.181  1.00  0.00     0.210 HD
ENDBRANCH   7  14
TORSDOF 2
ENDMDL
MODEL 4
REMARK VINA RESULT: -4.772290594      2.915      4.407
REMARK  2 active torsions:
REMARK  status: ('A' for Active; 'I' for Inactive)
REMARK    1  A    between atoms: C2_2  and  N1_4 
REMARK    2  A    between atoms: C8_10  and  O1_11 
ROOT
HETATM    1  N1  UNL     1      62.844  83.378  17.611  1.00  0.00    -0.392 N 
ATOM      2  H1  UNL     1      62.673  83.955  18.434  1.00  0.00     0.159 HD
HETATM    3  C4  UNL     1      63.109  84.029  16.439  1.00  0.00    -0.005 C 
HETATM    4  C5  UNL     1      64.546  83.750  15.867  1.00  0.00     0.132 C 
HETATM    5  C6  UNL     1      64.482  84.133  14.512  1.00  0.00    -0.175 C 
HETATM    6  C7  UNL     1      64.345  84.519  13.173  1.00  0.00     0.114 C 
HETATM    7  C8  UNL     1      62.823  84.844  12.974  1.00  0.00     0.162 C 
HETATM    8  C9  UNL     1      62.106  85.057  14.289  1.00  0.00     0.205 C 
HETATM    9  F1  UNL     1      60.769  85.233  13.844  1.00  0.00    -0.246 F 
HETATM   10  C10 UNL     1      62.065  84.049  15.340  1.00  0.00     0.092 C 
ENDROOT
BRANCH   1  11
HETATM   11  C2  UNL     1      62.786  81.997  17.780  1.00  0.00     0.073 C 
HETATM   12  C1  UNL     1      61.397  81.456  17.565  1.00  0.00     0.031 C 
HETATM   13  C3  UNL     1      63.143  81.676  19.240  1.00  0.00     0.031 C 
ENDBRANCH   1  11
BRANCH   7  14
HETATM   14  O1  UNL     1      62.262  83.684  12.402  1.00  0.00    -0.392 OA
ATOM     15  H1  UNL     1      62.821  82.968  12.680  1.00  0.00     0.210 HD
ENDBRANCH   7  14
TORSDOF 2
ENDMDL
MODEL 5
REMARK VINA RESULT: -4.770537222      1.865      2.581
REMARK  2 active torsions:
REMARK  status: ('A' for Active; 'I' for Inactive)
REMARK    1  A    between atoms: C2_2  and  N1_4 
REMARK    2  A    between atoms: C8_10  and  O1_11 
ROOT
HETATM    1  N1  UNL     1      61.142  85.015  13.817  1.00  0.00    -0.392 N 
ATOM      2  H1  UNL     1      60.346  85.652  13.853  1.00  0.00     0.159 HD
HETATM    3  C4  UNL     1      61.502  84.403  14.983  1.00  0.00    -0.005 C 
HETATM    4  C5  UNL     1      61.351  82.838  14.954  1.00  0.00     0.132 C 
HETATM    5  C6  UNL     1      62.138  82.374  16.026  1.00  0.00    -0.175 C 
HETATM    6  C7  UNL     1      62.948  81.980  17.099  1.00  0.00     0.114 C 
HETATM    7  C8  UNL     1      63.659  83.286  17.601  1.00  0.00     0.162 C 
HETATM    8  C9  UNL     1      62.971  84.539  17.107  1.00  0.00     0.205 C 
HETATM    9  F1  UNL     1      63.844  85.542  17.606  1.00  0.00    -0.246 F 
HETATM   10  C10 UNL     1      62.773  84.827  15.692  1.00  0.00     0.092 C 
ENDROOT
BRANCH   1  11
HETATM   11  C2  UNL     1      61.766  84.847  12.583  1.00  0.00     0.073 C 
HETATM   12  C1  UNL     1      61.270  83.623  11.858  1.00  0.00     0.031 C 
HETATM   13  C3  UNL     1      63.265  84.613  12.830  1.00  0.00     0.031 C 
ENDBRANCH   1  11
BRANCH   7  14
HETATM   14  O1  UNL     1      64.936  83.273  17.001  1.00  0.00    -0.392 OA
ATOM     15  H1  UNL     1      65.462  82.690  17.535  1.00  0.00     0.210 HD
ENDBRANCH   7  14
TORSDOF 2
ENDMDL
