MODEL 1
REMARK VINA RESULT: -5.287240280      0.000      0.000
REMARK  3 active torsions:
REMARK  status: ('A' for Active; 'I' for Inactive)
REMARK    1  A    between atoms: C2_2  and  N1_3 
REMARK    2  A    between atoms: N1_3  and  C3_5 
REMARK    3  A    between atoms: C6_8  and  O1_9 
ROOT
HETATM    1  C1  UNL     1      63.535  84.262  13.502  1.00  0.00     0.043 C 
HETATM    2  C2  UNL     1      62.255  84.330  14.345  1.00  0.00     0.079 C 
HETATM    3  C6  UNL     1      61.717  82.890  14.277  1.00  0.00     0.148 C 
HETATM    4  C7  UNL     1      61.584  82.437  12.867  1.00  0.00     0.034 C 
HETATM    5  C8  UNL     1      61.350  83.492  11.852  1.00  0.00     0.006 C 
HETATM    6  C9  UNL     1      60.821  84.794  12.332  1.00  0.00     0.040 C 
HETATM    7  C10 UNL     1      61.308  85.264  13.671  1.00  0.00     0.200 C 
HETATM    8  F1  UNL     1      60.137  85.429  14.437  1.00  0.00    -0.247 F 
ENDROOT
BRANCH   2   9
HETATM    9  N1  UNL     1      62.513  84.683  15.673  1.00  0.00    -0.404 N 
ATOM     10  H1  UNL     1      62.340  83.984  16.396  1.00  0.00     0.154 HD
BRANCH   9  11
HETATM   11  C3  UNL     1      62.991  85.928  16.073  1.00  0.00     0.077 A 
HETATM   12  C4  UNL     1      62.311  87.203  16.229  1.00  0.00     0.027 A 
HETATM   13  C5  UNL     1      62.512  86.396  17.465  1.00  0.00     0.027 A 
ENDBRANCH   9  11
ENDBRANCH   2   9
BRANCH   3  14
HETATM   14  O1  UNL     1      60.542  82.718  14.943  1.00  0.00    -0.393 OA
ATOM     15  H1  UNL     1      60.546  83.085  15.818  1.00  0.00     0.210 HD
ENDBRANCH   3  14
TORSDOF 3
ENDMDL
MODEL 2
REMARK VINA RESULT: -5.177499595      1.355      1.826
REMARK  3 active torsions:
REMARK  status: ('A' for Active; 'I' for Inactive)
REMARK    1  A    between atoms: C2_2  and  N1_3 
REMARK    2  A    between atoms: N1_3  and  C3_5 
REMARK    3  A    between atoms: C6_8  and  O1_9 
ROOT
HETATM    1  C1  UNL     1      63.527  84.318  13.518  1.00  0.00     0.043 C 
HETATM    2  C2  UNL     1      62.289  84.412  14.419  1.00  0.00     0.079 C 
HETATM    3  C6  UNL     1      61.655  83.016  14.286  1.00  0.00     0.148 C 
HETATM    4  C7  UNL     1      61.436  82.665  12.859  1.00  0.00     0.034 C 
HETATM    5  C8  UNL     1      61.232  83.796  11.922  1.00  0.00     0.006 C 
HETATM    6  C9  UNL     1      60.810  85.095  12.504  1.00  0.00     0.040 C 
HETATM    7  C10 UNL     1      61.380  85.446  13.846  1.00  0.00     0.200 C 
HETATM    8  F1  UNL     1      60.254  85.635  14.672  1.00  0.00    -0.247 F 
ENDROOT
BRANCH   2   9
HETATM    9  N1  UNL     1      62.623  84.662  15.754  1.00  0.00    -0.404 N 
ATOM     10  H1  UNL     1      62.562  85.623  16.090  1.00  0.00     0.154 HD
BRANCH   9  11
HETATM   11  C3  UNL     1      63.032  83.682  16.654  1.00  0.00     0.077 A 
HETATM   12  C4  UNL     1      63.722  82.421  16.439  1.00  0.00     0.027 A 
HETATM   13  C5  UNL     1      64.560  83.579  16.857  1.00  0.00     0.027 A 
ENDBRANCH   9  11
ENDBRANCH   2   9
BRANCH   3  14
HETATM   14  O1  UNL     1      60.498  82.877  14.991  1.00  0.00    -0.393 OA
ATOM     15  H1  UNL     1      59.753  83.301  14.583  1.00  0.00     0.210 HD
ENDBRANCH   3  14
TORSDOF 3
ENDMDL
MODEL 3
REMARK VINA RESULT: -5.103129146      2.380      3.095
REMARK  3 active torsions:
REMARK  status: ('A' for Active; 'I' for Inactive)
REMARK    1  A    between atoms: C2_2  and  N1_3 
REMARK    2  A    between atoms: N1_3  and  C3_5 
REMARK    3  A    between atoms: C6_8  and  O1_9 
ROOT
HETATM    1  C1  UNL     1      60.736  82.965  14.873  1.00  0.00     0.043 C 
HETATM    2  C2  UNL     1      62.143  83.438  14.483  1.00  0.00     0.079 C 
HETATM    3  C6  UNL     1      62.158  84.905  14.950  1.00  0.00     0.148 C 
HETATM    4  C7  UNL     1      61.005  85.654  14.387  1.00  0.00     0.034 C 
HETATM    5  C8  UNL     1      60.466  85.168  13.095  1.00  0.00     0.006 C 
HETATM    6  C9  UNL     1      61.353  84.317  12.264  1.00  0.00     0.040 C 
HETATM    7  C10 UNL     1      62.257  83.371  12.998  1.00  0.00     0.200 C 
HETATM    8  F1  UNL     1      63.556  83.722  12.579  1.00  0.00    -0.247 F 
ENDROOT
BRANCH   2   9
HETATM    9  N1  UNL     1      63.146  82.716  15.139  1.00  0.00    -0.404 N 
ATOM     10  H1  UNL     1      63.629  81.987  14.614  1.00  0.00     0.154 HD
BRANCH   9  11
HETATM   11  C3  UNL     1      63.526  82.929  16.460  1.00  0.00     0.077 A 
HETATM   12  C4  UNL     1      62.775  83.436  17.597  1.00  0.00     0.027 A 
HETATM   13  C5  UNL     1      62.901  81.956  17.485  1.00  0.00     0.027 A 
ENDBRANCH   9  11
ENDBRANCH   2   9
BRANCH   3  14
HETATM   14  O1  UNL     1      63.324  85.550  14.671  1.00  0.00    -0.393 OA
ATOM     15  H1  UNL     1      63.956  85.512  15.380  1.00  0.00     0.210 HD
ENDBRANCH   3  14
TORSDOF 3
ENDMDL
MODEL 4
REMARK VINA RESULT: -5.073117500      1.747      2.131
REMARK  3 active torsions:
REMARK  status: ('A' for Active; 'I' for Inactive)
REMARK    1  A    between atoms: C2_2  and  N1_3 
REMARK    2  A    between atoms: N1_3  and  C3_5 
REMARK    3  A    between atoms: C6_8  and  O1_9 
ROOT
HETATM    1  C1  UNL     1      63.460  84.863  13.515  1.00  0.00     0.043 C 
HETATM    2  C2  UNL     1      62.558  83.772  14.107  1.00  0.00     0.079 C 
HETATM    3  C6  UNL     1      62.098  82.988  12.864  1.00  0.00     0.148 C 
HETATM    4  C7  UNL     1      61.498  83.897  11.854  1.00  0.00     0.034 C 
HETATM    5  C8  UNL     1      60.871  85.139  12.369  1.00  0.00     0.006 C 
HETATM    6  C9  UNL     1      60.486  85.163  13.802  1.00  0.00     0.040 C 
HETATM    7  C10 UNL     1      61.391  84.438  14.753  1.00  0.00     0.200 C 
HETATM    8  F1  UNL     1      60.560  83.491  15.385  1.00  0.00    -0.247 F 
ENDROOT
BRANCH   2   9
HETATM    9  N1  UNL     1      63.252  82.925  14.978  1.00  0.00    -0.404 N 
ATOM     10  H1  UNL     1      63.299  81.934  14.744  1.00  0.00     0.154 HD
BRANCH   9  11
HETATM   11  C3  UNL     1      63.882  83.350  16.144  1.00  0.00     0.077 A 
HETATM   12  C4  UNL     1      63.427  84.236  17.203  1.00  0.00     0.027 A 
HETATM   13  C5  UNL     1      63.295  82.773  17.452  1.00  0.00     0.027 A 
ENDBRANCH   9  11
ENDBRANCH   2   9
BRANCH   3  14
HETATM   14  O1  UNL     1      61.244  81.968  13.152  1.00  0.00    -0.393 OA
ATOM     15  H1  UNL     1      61.681  81.138  13.300  1.00  0.00     0.210 HD
ENDBRANCH   3  14
TORSDOF 3
ENDMDL
MODEL 5
REMARK VINA RESULT: -5.021687040      2.322      4.261
REMARK  3 active torsions:
REMARK  status: ('A' for Active; 'I' for Inactive)
REMARK    1  A    between atoms: C2_2  and  N1_3 
REMARK    2  A    between atoms: N1_3  and  C3_5 
REMARK    3  A    between atoms: C6_8  and  O1_9 
ROOT
HETATM    1  C1  UNL     1      62.135  82.960  15.316  1.00  0.00     0.043 C 
HETATM    2  C2  UNL     1      63.095  83.995  14.715  1.00  0.00     0.079 C 
HETATM    3  C6  UNL     1      64.459  83.582  15.296  1.00  0.00     0.148 C 
HETATM    4  C7  UNL     1      64.400  83.485  16.777  1.00  0.00     0.034 C 
HETATM    5  C8  UNL     1      63.398  84.340  17.458  1.00  0.00     0.006 C 
HETATM    6  C9  UNL     1      62.883  85.513  16.708  1.00  0.00     0.040 C 
HETATM    7  C10 UNL     1      62.704  85.339  15.229  1.00  0.00     0.200 C 
HETATM    8  F1  UNL     1      63.503  86.347  14.652  1.00  0.00    -0.247 F 
ENDROOT
BRANCH   2   9
HETATM    9  N1  UNL     1      63.130  83.936  13.318  1.00  0.00    -0.404 N 
ATOM     10  H1  UNL     1      63.971  84.272  12.847  1.00  0.00     0.154 HD
BRANCH   9  11
HETATM   11  C3  UNL     1      62.093  83.448  12.529  1.00  0.00     0.077 A 
HETATM   12  C4  UNL     1      60.669  83.325  12.798  1.00  0.00     0.027 A 
HETATM   13  C5  UNL     1      61.102  84.518  12.017  1.00  0.00     0.027 A 
ENDBRANCH   9  11
ENDBRANCH   2   9
BRANCH   3  14
HETATM   14  O1  UNL     1      65.480  84.399  14.915  1.00  0.00    -0.393 OA
ATOM     15  H1  UNL     1      65.827  84.926  15.624  1.00  0.00     0.210 HD
ENDBRANCH   3  14
TORSDOF 3
ENDMDL
