MODEL 1
REMARK VINA RESULT: -7.203506319      0.000      0.000
REMARK  8 active torsions:
REMARK  status: ('A' for Active; 'I' for Inactive)
REMARK    1  A    between atoms: C3_3  and  N1_4 
REMARK    2  A    between atoms: N2_6  and  C5_7 
REMARK    3  A    between atoms: C5_7  and  C6_8 
REMARK    4  A    between atoms: C6_8  and  N3_9 
REMARK    5  A    between atoms: N3_9  and  C7_10 
REMARK    6  A    between atoms: N3_9  and  C10_13 
REMARK    7  A    between atoms: C7_10  and  C8_11 
REMARK    8  A    between atoms: C10_13  and  C11_14 
ROOT
HETATM    1  C1  UNL     1      29.501  19.906  17.732  1.00  0.00     0.013 C 
HETATM    2  C2  UNL     1      29.761  20.203  16.584  1.00  0.00    -0.102 C 
HETATM    3  C3  UNL     1      30.103  20.579  15.190  1.00  0.00     0.206 C 
ENDROOT
BRANCH   3   4
HETATM    4  N1  UNL     1      29.377  21.751  14.854  1.00  0.00    -0.161 NA
HETATM    5  C4  UNL     1      28.226  21.575  14.029  1.00  0.00     0.165 C 
HETATM    6  N2  UNL     1      28.407  21.554  12.633  1.00  0.00    -0.375 N 
HETATM    7  C13 UNL     1      29.611  21.949  12.067  1.00  0.00     0.140 C 
HETATM    8  C14 UNL     1      29.994  23.339  12.595  1.00  0.00     0.177 C 
HETATM    9  S1  UNL     1      30.368  23.059  14.331  1.00  0.00     0.218 S 
HETATM   10  O1  UNL     1      30.021  24.251  15.173  1.00  0.00    -0.211 OA
HETATM   11  O2  UNL     1      31.799  22.682  14.522  1.00  0.00    -0.211 OA
BRANCH   6  12
HETATM   12  C5  UNL     1      27.679  20.494  12.018  1.00  0.00     0.168 C 
BRANCH  12  13
HETATM   13  C6  UNL     1      27.210  19.386  12.874  1.00  0.00     0.088 C 
BRANCH  13  14
HETATM   14  N3  UNL     1      28.061  18.292  13.058  1.00  0.00    -0.345 N 
BRANCH  14  15
HETATM   15  C7  UNL     1      27.844  17.517  14.207  1.00  0.00     0.094 C 
BRANCH  15  16
HETATM   16  C8  UNL     1      26.993  18.074  15.259  1.00  0.00     0.007 C 
HETATM   17  C9  UNL     1      27.014  17.537  16.473  1.00  0.00     0.012 C 
ENDBRANCH  15  16
ENDBRANCH  14  15
BRANCH  14  18
HETATM   18  C10 UNL     1      28.627  17.609  11.982  1.00  0.00     0.094 C 
BRANCH  18  19
HETATM   19  C11 UNL     1      30.102  17.472  11.975  1.00  0.00     0.007 C 
HETATM   20  C12 UNL     1      30.862  18.505  11.616  1.00  0.00     0.012 C 
ENDBRANCH  18  19
ENDBRANCH  14  18
ENDBRANCH  13  14
ENDBRANCH  12  13
ENDBRANCH   6  12
ENDBRANCH   3   4
TORSDOF 8
ENDMDL
MODEL 2
REMARK VINA RESULT: -7.199900991      0.449      2.546
REMARK  8 active torsions:
REMARK  status: ('A' for Active; 'I' for Inactive)
REMARK    1  A    between atoms: C3_3  and  N1_4 
REMARK    2  A    between atoms: N2_6  and  C5_7 
REMARK    3  A    between atoms: C5_7  and  C6_8 
REMARK    4  A    between atoms: C6_8  and  N3_9 
REMARK    5  A    between atoms: N3_9  and  C7_10 
REMARK    6  A    between atoms: N3_9  and  C10_13 
REMARK    7  A    between atoms: C7_10  and  C8_11 
REMARK    8  A    between atoms: C10_13  and  C11_14 
ROOT
HETATM    1  C1  UNL     1      29.567  19.839  18.110  1.00  0.00     0.013 C 
HETATM    2  C2  UNL     1      29.700  20.030  16.918  1.00  0.00    -0.102 C 
HETATM    3  C3  UNL     1      29.889  20.270  15.466  1.00  0.00     0.206 C 
ENDROOT
BRANCH   3   4
HETATM    4  N1  UNL     1      29.376  21.557  15.157  1.00  0.00    -0.161 NA
HETATM    5  C4  UNL     1      28.233  21.600  14.304  1.00  0.00     0.165 C 
HETATM    6  N2  UNL     1      28.442  21.592  12.912  1.00  0.00    -0.375 N 
HETATM    7  C13 UNL     1      29.708  21.799  12.384  1.00  0.00     0.140 C 
HETATM    8  C14 UNL     1      30.303  23.089  12.966  1.00  0.00     0.177 C 
HETATM    9  S1  UNL     1      30.582  22.697  14.698  1.00  0.00     0.218 S 
HETATM   10  O1  UNL     1      30.418  23.904  15.574  1.00  0.00    -0.211 OA
HETATM   11  O2  UNL     1      31.926  22.081  14.904  1.00  0.00    -0.211 OA
BRANCH   6  12
HETATM   12  C5  UNL     1      27.564  20.688  12.247  1.00  0.00     0.168 C 
BRANCH  12  13
HETATM   13  C6  UNL     1      26.922  19.627  13.049  1.00  0.00     0.088 C 
BRANCH  13  14
HETATM   14  N3  UNL     1      27.486  18.348  13.021  1.00  0.00    -0.345 N 
BRANCH  14  15
HETATM   15  C7  UNL     1      28.458  18.114  12.036  1.00  0.00     0.094 C 
BRANCH  15  16
HETATM   16  C8  UNL     1      29.828  17.849  12.477  1.00  0.00     0.007 C 
HETATM   17  C9  UNL     1      30.847  18.299  11.754  1.00  0.00     0.012 C 
ENDBRANCH  15  16
ENDBRANCH  14  15
BRANCH  14  18
HETATM   18  C10 UNL     1      27.613  17.574  14.173  1.00  0.00     0.094 C 
BRANCH  18  19
HETATM   19  C11 UNL     1      26.884  18.039  15.377  1.00  0.00     0.007 C 
HETATM   20  C12 UNL     1      27.093  17.443  16.549  1.00  0.00     0.012 C 
ENDBRANCH  18  19
ENDBRANCH  14  18
ENDBRANCH  13  14
ENDBRANCH  12  13
ENDBRANCH   6  12
ENDBRANCH   3   4
TORSDOF 8
ENDMDL
MODEL 3
REMARK VINA RESULT: -6.972295815      3.130      5.383
REMARK  8 active torsions:
REMARK  status: ('A' for Active; 'I' for Inactive)
REMARK    1  A    between atoms: C3_3  and  N1_4 
REMARK    2  A    between atoms: N2_6  and  C5_7 
REMARK    3  A    between atoms: C5_7  and  C6_8 
REMARK    4  A    between atoms: C6_8  and  N3_9 
REMARK    5  A    between atoms: N3_9  and  C7_10 
REMARK    6  A    between atoms: N3_9  and  C10_13 
REMARK    7  A    between atoms: C7_10  and  C8_11 
REMARK    8  A    between atoms: C10_13  and  C11_14 
ROOT
HETATM    1  C1  UNL     1      28.931  19.375  18.043  1.00  0.00     0.013 C 
HETATM    2  C2  UNL     1      28.416  18.931  17.036  1.00  0.00    -0.102 C 
HETATM    3  C3  UNL     1      27.794  18.363  15.815  1.00  0.00     0.206 C 
ENDROOT
BRANCH   3   4
HETATM    4  N1  UNL     1      28.718  18.489  14.745  1.00  0.00    -0.161 NA
HETATM    5  C4  UNL     1      29.194  19.805  14.465  1.00  0.00     0.165 C 
HETATM    6  N2  UNL     1      28.429  20.620  13.608  1.00  0.00    -0.375 N 
HETATM    7  C13 UNL     1      27.393  20.083  12.857  1.00  0.00     0.140 C 
HETATM    8  C14 UNL     1      27.908  18.875  12.061  1.00  0.00     0.177 C 
HETATM    9  S1  UNL     1      28.255  17.640  13.320  1.00  0.00     0.218 S 
HETATM   10  O1  UNL     1      29.403  16.756  12.930  1.00  0.00    -0.211 OA
HETATM   11  O2  UNL     1      27.045  16.820  13.623  1.00  0.00    -0.211 OA
BRANCH   6  12
HETATM   12  C5  UNL     1      28.289  21.944  14.118  1.00  0.00     0.168 C 
BRANCH  12  13
HETATM   13  C6  UNL     1      29.499  22.628  14.615  1.00  0.00     0.088 C 
BRANCH  13  14
HETATM   14  N3  UNL     1      30.453  23.040  13.680  1.00  0.00    -0.345 N 
BRANCH  14  15
HETATM   15  C7  UNL     1      29.962  23.593  12.487  1.00  0.00     0.094 C 
BRANCH  15  16
HETATM   16  C8  UNL     1      30.541  23.125  11.227  1.00  0.00     0.007 C 
HETATM   17  C9  UNL     1      30.021  22.065  10.621  1.00  0.00     0.012 C 
ENDBRANCH  15  16
ENDBRANCH  14  15
BRANCH  14  18
HETATM   18  C10 UNL     1      31.715  23.490  14.065  1.00  0.00     0.094 C 
BRANCH  18  19
HETATM   19  C11 UNL     1      32.303  22.879  15.280  1.00  0.00     0.007 C 
HETATM   20  C12 UNL     1      33.293  23.497  15.921  1.00  0.00     0.012 C 
ENDBRANCH  18  19
ENDBRANCH  14  18
ENDBRANCH  13  14
ENDBRANCH  12  13
ENDBRANCH   6  12
ENDBRANCH   3   4
TORSDOF 8
ENDMDL
MODEL 4
REMARK VINA RESULT: -6.912861605      3.120      5.194
REMARK  8 active torsions:
REMARK  status: ('A' for Active; 'I' for Inactive)
REMARK    1  A    between atoms: C3_3  and  N1_4 
REMARK    2  A    between atoms: N2_6  and  C5_7 
REMARK    3  A    between atoms: C5_7  and  C6_8 
REMARK    4  A    between atoms: C6_8  and  N3_9 
REMARK    5  A    between atoms: N3_9  and  C7_10 
REMARK    6  A    between atoms: N3_9  and  C10_13 
REMARK    7  A    between atoms: C7_10  and  C8_11 
REMARK    8  A    between atoms: C10_13  and  C11_14 
ROOT
HETATM    1  C1  UNL     1      29.045  19.513  18.024  1.00  0.00     0.013 C 
HETATM    2  C2  UNL     1      28.506  19.038  17.045  1.00  0.00    -0.102 C 
HETATM    3  C3  UNL     1      27.854  18.431  15.859  1.00  0.00     0.206 C 
ENDROOT
BRANCH   3   4
HETATM    4  N1  UNL     1      28.743  18.541  14.757  1.00  0.00    -0.161 NA
HETATM    5  C4  UNL     1      29.201  19.854  14.436  1.00  0.00     0.165 C 
HETATM    6  N2  UNL     1      28.404  20.646  13.587  1.00  0.00    -0.375 N 
HETATM    7  C13 UNL     1      27.349  20.088  12.880  1.00  0.00     0.140 C 
HETATM    8  C14 UNL     1      27.847  18.867  12.093  1.00  0.00     0.177 C 
HETATM    9  S1  UNL     1      28.242  17.660  13.365  1.00  0.00     0.218 S 
HETATM   10  O1  UNL     1      29.383  16.776  12.957  1.00  0.00    -0.211 OA
HETATM   11  O2  UNL     1      27.047  16.839  13.722  1.00  0.00    -0.211 OA
BRANCH   6  12
HETATM   12  C5  UNL     1      28.270  21.979  14.074  1.00  0.00     0.168 C 
BRANCH  12  13
HETATM   13  C6  UNL     1      29.463  22.630  14.651  1.00  0.00     0.088 C 
BRANCH  13  14
HETATM   14  N3  UNL     1      30.254  23.420  13.810  1.00  0.00    -0.345 N 
BRANCH  14  15
HETATM   15  C7  UNL     1      31.643  23.320  13.981  1.00  0.00     0.094 C 
BRANCH  15  16
HETATM   16  C8  UNL     1      32.153  23.117  15.338  1.00  0.00     0.007 C 
HETATM   17  C9  UNL     1      33.380  23.522  15.643  1.00  0.00     0.012 C 
ENDBRANCH  15  16
ENDBRANCH  14  15
BRANCH  14  18
HETATM   18  C10 UNL     1      29.839  23.771  12.526  1.00  0.00     0.094 C 
BRANCH  18  19
HETATM   19  C11 UNL     1      30.563  23.146  11.394  1.00  0.00     0.007 C 
HETATM   20  C12 UNL     1      29.981  22.178  10.689  1.00  0.00     0.012 C 
ENDBRANCH  18  19
ENDBRANCH  14  18
ENDBRANCH  13  14
ENDBRANCH  12  13
ENDBRANCH   6  12
ENDBRANCH   3   4
TORSDOF 8
ENDMDL
MODEL 5
REMARK VINA RESULT: -6.872944214      1.942      4.170
REMARK  8 active torsions:
REMARK  status: ('A' for Active; 'I' for Inactive)
REMARK    1  A    between atoms: C3_3  and  N1_4 
REMARK    2  A    between atoms: N2_6  and  C5_7 
REMARK    3  A    between atoms: C5_7  and  C6_8 
REMARK    4  A    between atoms: C6_8  and  N3_9 
REMARK    5  A    between atoms: N3_9  and  C7_10 
REMARK    6  A    between atoms: N3_9  and  C10_13 
REMARK    7  A    between atoms: C7_10  and  C8_11 
REMARK    8  A    between atoms: C10_13  and  C11_14 
ROOT
HETATM    1  C1  UNL     1      31.766  22.103   8.574  1.00  0.00     0.013 C 
HETATM    2  C2  UNL     1      30.886  22.047   9.409  1.00  0.00    -0.102 C 
HETATM    3  C3  UNL     1      29.811  22.008  10.431  1.00  0.00     0.206 C 
ENDROOT
BRANCH   3   4
HETATM    4  N1  UNL     1      30.401  21.699  11.685  1.00  0.00    -0.161 NA
HETATM    5  C4  UNL     1      30.181  20.381  12.185  1.00  0.00     0.165 C 
HETATM    6  N2  UNL     1      29.009  20.138  12.927  1.00  0.00    -0.375 N 
HETATM    7  C13 UNL     1      28.225  21.190  13.378  1.00  0.00     0.140 C 
HETATM    8  C14 UNL     1      29.100  22.188  14.150  1.00  0.00     0.177 C 
HETATM    9  S1  UNL     1      30.158  22.908  12.887  1.00  0.00     0.218 S 
HETATM   10  O1  UNL     1      31.505  23.276  13.434  1.00  0.00    -0.211 OA
HETATM   11  O2  UNL     1      29.511  24.093  12.250  1.00  0.00    -0.211 OA
BRANCH   6  12
HETATM   12  C5  UNL     1      28.366  18.931  12.526  1.00  0.00     0.168 C 
BRANCH  12  13
HETATM   13  C6  UNL     1      28.146  17.889  13.549  1.00  0.00     0.088 C 
BRANCH  13  14
HETATM   14  N3  UNL     1      27.289  18.183  14.614  1.00  0.00    -0.345 N 
BRANCH  14  15
HETATM   15  C7  UNL     1      25.925  17.923  14.410  1.00  0.00     0.094 C 
BRANCH  15  16
HETATM   16  C8  UNL     1      24.987  19.037  14.553  1.00  0.00     0.007 C 
HETATM   17  C9  UNL     1      25.134  20.118  13.796  1.00  0.00     0.012 C 
ENDBRANCH  15  16
ENDBRANCH  14  15
BRANCH  14  18
HETATM   18  C10 UNL     1      27.712  18.115  15.941  1.00  0.00     0.094 C 
BRANCH  18  19
HETATM   19  C11 UNL     1      28.501  19.260  16.452  1.00  0.00     0.007 C 
HETATM   20  C12 UNL     1      28.828  19.316  17.742  1.00  0.00     0.012 C 
ENDBRANCH  18  19
ENDBRANCH  14  18
ENDBRANCH  13  14
ENDBRANCH  12  13
ENDBRANCH   6  12
ENDBRANCH   3   4
TORSDOF 8
ENDMDL
