MODEL 1
REMARK VINA RESULT: -4.999028567      0.000      0.000
REMARK  2 active torsions:
REMARK  status: ('A' for Active; 'I' for Inactive)
REMARK    1  A    between atoms: C2_2  and  C3_3 
REMARK       I    between atoms: C3_3  and  N1_5 
REMARK    2  A    between atoms: N1_5  and  C4_7 
ROOT
HETATM    1  C3  UNL     1      28.688  18.161  12.971  1.00  0.00     0.241 C 
HETATM    2  O1  UNL     1      28.412  17.266  13.801  1.00  0.00    -0.269 OA
HETATM    3  N1  UNL     1      27.946  19.360  12.997  1.00  0.00    -0.347 N 
ATOM      4  H1  UNL     1      28.163  20.096  12.325  1.00  0.00     0.163 HD
ENDROOT
BRANCH   3   5
HETATM    5  C4  UNL     1      26.868  19.569  13.972  1.00  0.00     0.130 A 
HETATM    6  C5  UNL     1      25.813  20.495  13.596  1.00  0.00     0.000 A 
HETATM    7  C6  UNL     1      26.773  20.956  14.478  1.00  0.00     0.000 A 
ENDBRANCH   3   5
BRANCH   1   8
HETATM    8  C2  UNL     1      29.753  17.940  12.015  1.00  0.00     0.064 C 
HETATM    9  C1  UNL     1      30.767  18.770  11.871  1.00  0.00     0.017 C 
ENDBRANCH   1   8
TORSDOF 2
ENDMDL
MODEL 2
REMARK VINA RESULT: -4.874745219      1.639      1.721
REMARK  2 active torsions:
REMARK  status: ('A' for Active; 'I' for Inactive)
REMARK    1  A    between atoms: C2_2  and  C3_3 
REMARK       I    between atoms: C3_3  and  N1_5 
REMARK    2  A    between atoms: N1_5  and  C4_7 
ROOT
HETATM    1  C3  UNL     1      28.889  18.177  13.159  1.00  0.00     0.241 C 
HETATM    2  O1  UNL     1      29.126  16.965  13.360  1.00  0.00    -0.269 OA
HETATM    3  N1  UNL     1      28.029  18.855  14.048  1.00  0.00    -0.347 N 
ATOM      4  H1  UNL     1      27.829  19.843  13.893  1.00  0.00     0.163 HD
ENDROOT
BRANCH   3   5
HETATM    5  C4  UNL     1      27.417  18.167  15.191  1.00  0.00     0.130 A 
HETATM    6  C5  UNL     1      26.303  18.836  15.842  1.00  0.00     0.000 A 
HETATM    7  C6  UNL     1      27.533  18.901  16.470  1.00  0.00     0.000 A 
ENDBRANCH   3   5
BRANCH   1   8
HETATM    8  C2  UNL     1      29.499  18.843  12.026  1.00  0.00     0.064 C 
HETATM    9  C1  UNL     1      30.799  18.838  11.811  1.00  0.00     0.017 C 
ENDBRANCH   1   8
TORSDOF 2
ENDMDL
MODEL 3
REMARK VINA RESULT: -4.773032258      1.988      4.340
REMARK  2 active torsions:
REMARK  status: ('A' for Active; 'I' for Inactive)
REMARK    1  A    between atoms: C2_2  and  C3_3 
REMARK       I    between atoms: C3_3  and  N1_5 
REMARK    2  A    between atoms: N1_5  and  C4_7 
ROOT
HETATM    1  C3  UNL     1      28.258  20.884  14.086  1.00  0.00     0.241 C 
HETATM    2  O1  UNL     1      28.895  21.960  14.067  1.00  0.00    -0.269 OA
HETATM    3  N1  UNL     1      28.860  19.731  13.541  1.00  0.00    -0.347 N 
ATOM      4  H1  UNL     1      28.349  18.848  13.552  1.00  0.00     0.163 HD
ENDROOT
BRANCH   3   5
HETATM    5  C4  UNL     1      30.207  19.776  12.959  1.00  0.00     0.130 A 
HETATM    6  C5  UNL     1      30.295  19.922  11.516  1.00  0.00     0.000 A 
HETATM    7  C6  UNL     1      30.505  18.658  12.038  1.00  0.00     0.000 A 
ENDBRANCH   3   5
BRANCH   1   8
HETATM    8  C2  UNL     1      26.929  20.854  14.662  1.00  0.00     0.064 C 
HETATM    9  C1  UNL     1      25.835  20.781  13.930  1.00  0.00     0.017 C 
ENDBRANCH   1   8
TORSDOF 2
ENDMDL
MODEL 4
REMARK VINA RESULT: -4.760171273      1.752      2.086
REMARK  2 active torsions:
REMARK  status: ('A' for Active; 'I' for Inactive)
REMARK    1  A    between atoms: C2_2  and  C3_3 
REMARK       I    between atoms: C3_3  and  N1_5 
REMARK    2  A    between atoms: N1_5  and  C4_7 
ROOT
HETATM    1  C3  UNL     1      30.100  19.834  13.158  1.00  0.00     0.241 C 
HETATM    2  O1  UNL     1      30.870  20.422  13.948  1.00  0.00    -0.269 OA
HETATM    3  N1  UNL     1      28.712  20.051  13.278  1.00  0.00    -0.347 N 
ATOM      4  H1  UNL     1      28.075  19.576  12.638  1.00  0.00     0.163 HD
ENDROOT
BRANCH   3   5
HETATM    5  C4  UNL     1      28.166  20.947  14.305  1.00  0.00     0.130 A 
HETATM    6  C5  UNL     1      27.429  20.327  15.394  1.00  0.00     0.000 A 
HETATM    7  C6  UNL     1      26.689  20.933  14.394  1.00  0.00     0.000 A 
ENDBRANCH   3   5
BRANCH   1   8
HETATM    8  C2  UNL     1      30.653  18.952  12.150  1.00  0.00     0.064 C 
HETATM    9  C1  UNL     1      30.030  17.868  11.732  1.00  0.00     0.017 C 
ENDBRANCH   1   8
TORSDOF 2
ENDMDL
MODEL 5
REMARK VINA RESULT: -4.747656717      3.577      4.827
REMARK  2 active torsions:
REMARK  status: ('A' for Active; 'I' for Inactive)
REMARK    1  A    between atoms: C2_2  and  C3_3 
REMARK       I    between atoms: C3_3  and  N1_5 
REMARK    2  A    between atoms: N1_5  and  C4_7 
ROOT
HETATM    1  C3  UNL     1      30.357  19.916  11.495  1.00  0.00     0.241 C 
HETATM    2  O1  UNL     1      29.358  20.483  11.990  1.00  0.00    -0.269 OA
HETATM    3  N1  UNL     1      31.121  20.608  10.533  1.00  0.00    -0.347 N 
ATOM      4  H1  UNL     1      31.938  20.155  10.123  1.00  0.00     0.163 HD
ENDROOT
BRANCH   3   5
HETATM    5  C4  UNL     1      30.764  21.968  10.109  1.00  0.00     0.130 A 
HETATM    6  C5  UNL     1      30.858  22.260   8.688  1.00  0.00     0.000 A 
HETATM    7  C6  UNL     1      31.880  22.723   9.498  1.00  0.00     0.000 A 
ENDBRANCH   3   5
BRANCH   1   8
HETATM    8  C2  UNL     1      30.698  18.574  11.922  1.00  0.00     0.064 C 
HETATM    9  C1  UNL     1      29.897  17.543  11.740  1.00  0.00     0.017 C 
ENDBRANCH   1   8
TORSDOF 2
ENDMDL
