MODEL 1
REMARK VINA RESULT: -4.889712873      0.000      0.000
REMARK  1 active torsions:
REMARK  status: ('A' for Active; 'I' for Inactive)
REMARK    1  A    between atoms: C1_2  and  C2_4 
ROOT
HETATM    1  C2  UNL     1      25.994  19.208  15.694  1.00  0.00     0.084 A 
HETATM    2  C3  UNL     1      25.665  19.343  14.247  1.00  0.00     0.004 A 
HETATM    3  C4  UNL     1      25.447  20.812  13.827  1.00  0.00     0.011 A 
HETATM    4  C5  UNL     1      26.487  20.418  14.836  1.00  0.00     0.004 A 
ENDROOT
BRANCH   1   5
HETATM    5  C1  UNL     1      27.061  18.325  16.160  1.00  0.00     0.236 C 
HETATM    6  N1  UNL     1      27.459  18.363  17.518  1.00  0.00    -0.062 NA
HETATM    7  O1  UNL     1      27.626  17.535  15.376  1.00  0.00    -0.276 OA
ENDBRANCH   1   5
TORSDOF 1
ENDMDL
MODEL 2
REMARK VINA RESULT: -4.812017776      1.235      1.235
REMARK  1 active torsions:
REMARK  status: ('A' for Active; 'I' for Inactive)
REMARK    1  A    between atoms: C1_2  and  C2_4 
ROOT
HETATM    1  C2  UNL     1      25.991  19.222  15.724  1.00  0.00     0.084 A 
HETATM    2  C3  UNL     1      25.609  19.371  14.292  1.00  0.00     0.004 A 
HETATM    3  C4  UNL     1      25.442  20.849  13.877  1.00  0.00     0.011 A 
HETATM    4  C5  UNL     1      26.504  20.407  14.843  1.00  0.00     0.004 A 
ENDROOT
BRANCH   1   5
HETATM    5  C1  UNL     1      27.034  18.290  16.148  1.00  0.00     0.236 C 
HETATM    6  N1  UNL     1      27.685  17.484  15.185  1.00  0.00    -0.062 NA
HETATM    7  O1  UNL     1      27.359  18.196  17.349  1.00  0.00    -0.276 OA
ENDBRANCH   1   5
TORSDOF 1
ENDMDL
MODEL 3
REMARK VINA RESULT: -4.694757906      1.187      1.432
REMARK  1 active torsions:
REMARK  status: ('A' for Active; 'I' for Inactive)
REMARK    1  A    between atoms: C1_2  and  C2_4 
ROOT
HETATM    1  C2  UNL     1      27.247  19.104  15.403  1.00  0.00     0.084 A 
HETATM    2  C3  UNL     1      27.019  20.515  14.980  1.00  0.00     0.004 A 
HETATM    3  C4  UNL     1      25.784  20.663  14.066  1.00  0.00     0.011 A 
HETATM    4  C5  UNL     1      25.814  19.697  15.216  1.00  0.00     0.004 A 
ENDROOT
BRANCH   1   5
HETATM    5  C1  UNL     1      27.583  18.760  16.783  1.00  0.00     0.236 C 
HETATM    6  N1  UNL     1      28.519  19.549  17.493  1.00  0.00    -0.062 NA
HETATM    7  O1  UNL     1      27.055  17.779  17.345  1.00  0.00    -0.276 OA
ENDBRANCH   1   5
TORSDOF 1
ENDMDL
MODEL 4
REMARK VINA RESULT: -4.643431097      1.369      1.544
REMARK  1 active torsions:
REMARK  status: ('A' for Active; 'I' for Inactive)
REMARK    1  A    between atoms: C1_2  and  C2_4 
ROOT
HETATM    1  C2  UNL     1      27.212  19.285  15.252  1.00  0.00     0.084 A 
HETATM    2  C3  UNL     1      26.904  20.666  14.782  1.00  0.00     0.004 A 
HETATM    3  C4  UNL     1      25.628  20.722  13.915  1.00  0.00     0.011 A 
HETATM    4  C5  UNL     1      25.747  19.807  15.101  1.00  0.00     0.004 A 
ENDROOT
BRANCH   1   5
HETATM    5  C1  UNL     1      27.617  19.015  16.630  1.00  0.00     0.236 C 
HETATM    6  N1  UNL     1      27.082  17.895  17.310  1.00  0.00    -0.062 NA
HETATM    7  O1  UNL     1      28.430  19.759  17.215  1.00  0.00    -0.276 OA
ENDBRANCH   1   5
TORSDOF 1
ENDMDL
MODEL 5
REMARK VINA RESULT: -4.567555734      2.702      3.437
REMARK  1 active torsions:
REMARK  status: ('A' for Active; 'I' for Inactive)
REMARK    1  A    between atoms: C1_2  and  C2_4 
ROOT
HETATM    1  C2  UNL     1      27.495  19.643  15.015  1.00  0.00     0.084 A 
HETATM    2  C3  UNL     1      26.473  18.978  15.872  1.00  0.00     0.004 A 
HETATM    3  C4  UNL     1      27.107  18.136  16.999  1.00  0.00     0.011 A 
HETATM    4  C5  UNL     1      27.698  19.442  16.552  1.00  0.00     0.004 A 
ENDROOT
BRANCH   1   5
HETATM    5  C1  UNL     1      27.361  21.038  14.602  1.00  0.00     0.236 C 
HETATM    6  N1  UNL     1      28.509  21.862  14.536  1.00  0.00    -0.062 NA
HETATM    7  O1  UNL     1      26.246  21.513  14.306  1.00  0.00    -0.276 OA
ENDBRANCH   1   5
TORSDOF 1
ENDMDL
