MODEL 1
REMARK VINA RESULT: -8.314914068      0.000      0.000
REMARK  14 active torsions:
REMARK  status: ('A' for Active; 'I' for Inactive)
REMARK    1  A    between atoms: C2_2  and  C3_3 
REMARK    2  A    between atoms: C3_3  and  C4_4 
REMARK    3  A    between atoms: C4_4  and  C5_5 
REMARK    4  A    between atoms: C4_4  and  C24_37 
REMARK       I    between atoms: C5_5  and  N1_7 
REMARK    5  A    between atoms: N1_7  and  C6_9 
REMARK    6  A    between atoms: C6_9  and  C7_10 
REMARK    7  A    between atoms: C6_9  and  C11_18 
REMARK    8  A    between atoms: C7_10  and  C8_11 
REMARK       I    between atoms: C11_18  and  N4_20 
REMARK    9  A    between atoms: C15_25  and  C16_26 
REMARK       I    between atoms: C16_26  and  N5_28 
REMARK   10  A    between atoms: N5_28  and  C17_30 
REMARK   11  A    between atoms: C17_30  and  C18_31 
REMARK   12  A    between atoms: C17_30  and  C21_34 
REMARK   13  A    between atoms: C24_37  and  O5_39 
REMARK   14  A    between atoms: O5_39  and  C25_40 
ROOT
HETATM    1  C6  UNL     1      11.308  19.360  16.331  1.00  0.00     0.183 C 
ENDROOT
BRANCH   1   2
HETATM    2  N1  UNL     1      11.902  20.165  17.391  1.00  0.00    -0.347 N 
HETATM    3  C5  UNL     1      11.654  21.553  17.496  1.00  0.00     0.232 C 
HETATM    4  O1  UNL     1      10.886  22.046  16.605  1.00  0.00    -0.273 OA
ATOM      5  H1  UNL     1      12.511  19.716  18.074  1.00  0.00     0.163 HD
BRANCH   3   6
HETATM    6  C4  UNL     1      12.202  22.449  18.528  1.00  0.00     0.180 C 
BRANCH   6   7
HETATM    7  C3  UNL     1      11.973  21.860  19.882  1.00  0.00     0.050 C 
BRANCH   7   8
HETATM    8  C2  UNL     1      10.538  21.583  20.161  1.00  0.00    -0.036 C 
HETATM    9  C1  UNL     1      10.138  20.719  21.084  1.00  0.00     0.007 C 
ENDBRANCH   7   8
ENDBRANCH   6   7
BRANCH   6  10
HETATM   10  C24 UNL     1      13.633  22.738  18.292  1.00  0.00     0.273 C 
HETATM   11  O4  UNL     1      14.166  22.573  17.186  1.00  0.00    -0.264 OA
BRANCH  10  12
HETATM   12  O5  UNL     1      14.436  23.211  19.343  1.00  0.00    -0.311 OA
BRANCH  12  13
HETATM   13  C25 UNL     1      15.150  24.430  19.126  1.00  0.00     0.060 C 
HETATM   14  C26 UNL     1      14.312  25.438  18.395  1.00  0.00     0.045 C 
HETATM   15  C27 UNL     1      16.378  24.161  18.286  1.00  0.00     0.045 C 
HETATM   16  C28 UNL     1      15.561  25.019  20.467  1.00  0.00     0.045 C 
ENDBRANCH  12  13
ENDBRANCH  10  12
ENDBRANCH   6  10
ENDBRANCH   3   6
ENDBRANCH   1   2
BRANCH   1  17
HETATM   17  C7  UNL     1      12.352  18.654  15.525  1.00  0.00     0.093 C 
BRANCH  17  18
HETATM   18  C8  UNL     1      13.567  19.438  15.252  1.00  0.00     0.028 A 
HETATM   19  C9  UNL     1      13.645  20.592  14.504  1.00  0.00     0.114 A 
HETATM   20  N2  UNL     1      14.935  20.980  14.507  1.00  0.00    -0.360 N 
HETATM   21  C10 UNL     1      15.617  20.099  15.228  1.00  0.00     0.180 A 
ATOM     22  H2  UNL     1      15.318  21.801  14.040  1.00  0.00     0.166 HD
HETATM   23  N3  UNL     1      14.792  19.122  15.708  1.00  0.00    -0.354 N 
ATOM     24  H3  UNL     1      15.050  18.323  16.287  1.00  0.00     0.166 HD
ENDBRANCH  17  18
ENDBRANCH   1  17
BRANCH   1  25
HETATM   25  C11 UNL     1      10.474  18.264  16.956  1.00  0.00     0.253 C 
HETATM   26  O2  UNL     1      10.343  18.328  18.218  1.00  0.00    -0.270 OA
HETATM   27  N4  UNL     1       9.885  17.247  16.172  1.00  0.00    -0.274 N 
HETATM   28  S1  UNL     1       9.971  17.042  14.380  1.00  0.00    -0.038 SA
HETATM   29  C15 UNL     1       9.069  16.061  16.219  1.00  0.00     0.211 C 
HETATM   30  C12 UNL     1       8.416  16.271  14.866  1.00  0.00     0.051 C 
HETATM   31  C13 UNL     1       7.275  17.249  14.887  1.00  0.00     0.031 C 
HETATM   32  C14 UNL     1       8.163  15.017  14.063  1.00  0.00     0.031 C 
BRANCH  29  33
HETATM   33  C16 UNL     1       8.172  15.881  17.344  1.00  0.00     0.243 C 
HETATM   34  O3  UNL     1       8.036  14.777  17.905  1.00  0.00    -0.271 OA
HETATM   35  N5  UNL     1       7.374  16.941  17.906  1.00  0.00    -0.354 N 
ATOM     36  H5  UNL     1       7.438  17.877  17.506  1.00  0.00     0.162 HD
BRANCH  35  37
HETATM   37  C17 UNL     1       6.488  16.713  19.016  1.00  0.00     0.091 C 
BRANCH  37  38
HETATM   38  C18 UNL     1       6.834  17.659  20.125  1.00  0.00     0.001 C 
HETATM   39  C19 UNL     1       7.454  18.942  19.657  1.00  0.00     0.011 C 
HETATM   40  C20 UNL     1       7.663  17.116  21.232  1.00  0.00     0.011 C 
ENDBRANCH  37  38
BRANCH  37  41
HETATM   41  C21 UNL     1       5.099  16.725  18.528  1.00  0.00     0.001 C 
HETATM   42  C22 UNL     1       4.123  17.466  19.396  1.00  0.00     0.011 C 
HETATM   43  C23 UNL     1       4.527  15.433  18.048  1.00  0.00     0.011 C 
ENDBRANCH  37  41
ENDBRANCH  35  37
ENDBRANCH  29  33
ENDBRANCH   1  25
TORSDOF 14
ENDMDL
MODEL 2
REMARK VINA RESULT: -8.149013919      3.058     10.189
REMARK  14 active torsions:
REMARK  status: ('A' for Active; 'I' for Inactive)
REMARK    1  A    between atoms: C2_2  and  C3_3 
REMARK    2  A    between atoms: C3_3  and  C4_4 
REMARK    3  A    between atoms: C4_4  and  C5_5 
REMARK    4  A    between atoms: C4_4  and  C24_37 
REMARK       I    between atoms: C5_5  and  N1_7 
REMARK    5  A    between atoms: N1_7  and  C6_9 
REMARK    6  A    between atoms: C6_9  and  C7_10 
REMARK    7  A    between atoms: C6_9  and  C11_18 
REMARK    8  A    between atoms: C7_10  and  C8_11 
REMARK       I    between atoms: C11_18  and  N4_20 
REMARK    9  A    between atoms: C15_25  and  C16_26 
REMARK       I    between atoms: C16_26  and  N5_28 
REMARK   10  A    between atoms: N5_28  and  C17_30 
REMARK   11  A    between atoms: C17_30  and  C18_31 
REMARK   12  A    between atoms: C17_30  and  C21_34 
REMARK   13  A    between atoms: C24_37  and  O5_39 
REMARK   14  A    between atoms: O5_39  and  C25_40 
ROOT
HETATM    1  C6  UNL     1      13.176  21.904  18.204  1.00  0.00     0.183 C 
ENDROOT
BRANCH   1   2
HETATM    2  N1  UNL     1      12.730  20.875  17.273  1.00  0.00    -0.347 N 
HETATM    3  C5  UNL     1      11.576  21.048  16.474  1.00  0.00     0.232 C 
HETATM    4  O1  UNL     1      10.958  22.152  16.627  1.00  0.00    -0.273 OA
ATOM      5  H1  UNL     1      13.263  20.010  17.195  1.00  0.00     0.163 HD
BRANCH   3   6
HETATM    6  C4  UNL     1      11.047  20.072  15.505  1.00  0.00     0.180 C 
BRANCH   6   7
HETATM    7  C3  UNL     1      12.140  19.628  14.588  1.00  0.00     0.050 C 
BRANCH   7   8
HETATM    8  C2  UNL     1      13.119  20.706  14.284  1.00  0.00    -0.036 C 
HETATM    9  C1  UNL     1      13.459  21.043  13.047  1.00  0.00     0.007 C 
ENDBRANCH   7   8
ENDBRANCH   6   7
BRANCH   6  10
HETATM   10  C24 UNL     1      10.403  18.928  16.184  1.00  0.00     0.273 C 
HETATM   11  O4  UNL     1      10.961  18.299  17.094  1.00  0.00    -0.264 OA
BRANCH  10  12
HETATM   12  O5  UNL     1       9.116  18.517  15.797  1.00  0.00    -0.311 OA
BRANCH  12  13
HETATM   13  C25 UNL     1       8.953  17.154  15.400  1.00  0.00     0.060 C 
HETATM   14  C26 UNL     1       7.666  16.946  14.655  1.00  0.00     0.045 C 
HETATM   15  C27 UNL     1       8.924  16.264  16.621  1.00  0.00     0.045 C 
HETATM   16  C28 UNL     1      10.108  16.751  14.495  1.00  0.00     0.045 C 
ENDBRANCH  12  13
ENDBRANCH  10  12
ENDBRANCH   6  10
ENDBRANCH   3   6
ENDBRANCH   1   2
BRANCH   1  17
HETATM   17  C7  UNL     1      13.138  21.420  19.619  1.00  0.00     0.093 C 
BRANCH  17  18
HETATM   18  C8  UNL     1      11.908  20.710  20.004  1.00  0.00     0.028 A 
HETATM   19  C9  UNL     1      10.709  21.286  20.364  1.00  0.00     0.114 A 
HETATM   20  N2  UNL     1       9.854  20.282  20.639  1.00  0.00    -0.360 N 
HETATM   21  C10 UNL     1      10.503  19.140  20.454  1.00  0.00     0.180 A 
ATOM     22  H2  UNL     1       8.883  20.382  20.935  1.00  0.00     0.166 HD
HETATM   23  N3  UNL     1      11.790  19.371  20.058  1.00  0.00    -0.354 N 
ATOM     24  H3  UNL     1      12.507  18.677  19.848  1.00  0.00     0.166 HD
ENDBRANCH  17  18
ENDBRANCH   1  17
BRANCH   1  25
HETATM   25  C11 UNL     1      14.628  22.221  17.927  1.00  0.00     0.253 C 
HETATM   26  O2  UNL     1      15.166  21.548  16.992  1.00  0.00    -0.270 OA
HETATM   27  N4  UNL     1      15.323  23.204  18.665  1.00  0.00    -0.274 N 
HETATM   28  S1  UNL     1      14.686  24.242  19.998  1.00  0.00    -0.038 SA
HETATM   29  C15 UNL     1      16.593  23.865  18.825  1.00  0.00     0.211 C 
HETATM   30  C12 UNL     1      16.018  25.201  19.254  1.00  0.00     0.051 C 
HETATM   31  C13 UNL     1      15.541  26.052  18.110  1.00  0.00     0.031 C 
HETATM   32  C14 UNL     1      16.805  25.941  20.310  1.00  0.00     0.031 C 
BRANCH  29  33
HETATM   33  C16 UNL     1      17.508  23.889  17.700  1.00  0.00     0.243 C 
HETATM   34  O3  UNL     1      18.719  23.634  17.833  1.00  0.00    -0.271 OA
HETATM   35  N5  UNL     1      17.107  24.204  16.352  1.00  0.00    -0.354 N 
ATOM     36  H5  UNL     1      16.127  24.415  16.162  1.00  0.00     0.162 HD
BRANCH  35  37
HETATM   37  C17 UNL     1      18.052  24.229  15.269  1.00  0.00     0.091 C 
BRANCH  37  38
HETATM   38  C18 UNL     1      17.709  23.146  14.291  1.00  0.00     0.001 C 
HETATM   39  C19 UNL     1      16.241  23.024  14.010  1.00  0.00     0.011 C 
HETATM   40  C20 UNL     1      18.244  21.791  14.581  1.00  0.00     0.011 C 
ENDBRANCH  37  38
BRANCH  37  41
HETATM   41  C21 UNL     1      18.146  25.602  14.748  1.00  0.00     0.001 C 
HETATM   42  C22 UNL     1      18.573  25.714  13.313  1.00  0.00     0.011 C 
HETATM   43  C23 UNL     1      18.833  26.617  15.601  1.00  0.00     0.011 C 
ENDBRANCH  37  41
ENDBRANCH  35  37
ENDBRANCH  29  33
ENDBRANCH   1  25
TORSDOF 14
ENDMDL
MODEL 3
REMARK VINA RESULT: -8.127844073      2.212      9.435
REMARK  14 active torsions:
REMARK  status: ('A' for Active; 'I' for Inactive)
REMARK    1  A    between atoms: C2_2  and  C3_3 
REMARK    2  A    between atoms: C3_3  and  C4_4 
REMARK    3  A    between atoms: C4_4  and  C5_5 
REMARK    4  A    between atoms: C4_4  and  C24_37 
REMARK       I    between atoms: C5_5  and  N1_7 
REMARK    5  A    between atoms: N1_7  and  C6_9 
REMARK    6  A    between atoms: C6_9  and  C7_10 
REMARK    7  A    between atoms: C6_9  and  C11_18 
REMARK    8  A    between atoms: C7_10  and  C8_11 
REMARK       I    between atoms: C11_18  and  N4_20 
REMARK    9  A    between atoms: C15_25  and  C16_26 
REMARK       I    between atoms: C16_26  and  N5_28 
REMARK   10  A    between atoms: N5_28  and  C17_30 
REMARK   11  A    between atoms: C17_30  and  C18_31 
REMARK   12  A    between atoms: C17_30  and  C21_34 
REMARK   13  A    between atoms: C24_37  and  O5_39 
REMARK   14  A    between atoms: O5_39  and  C25_40 
ROOT
HETATM    1  C6  UNL     1       9.912  19.437  19.222  1.00  0.00     0.183 C 
ENDROOT
BRANCH   1   2
HETATM    2  N1  UNL     1      10.069  18.424  18.187  1.00  0.00    -0.347 N 
HETATM    3  C5  UNL     1       8.957  17.898  17.488  1.00  0.00     0.232 C 
HETATM    4  O1  UNL     1       7.821  18.365  17.828  1.00  0.00    -0.273 OA
ATOM      5  H1  UNL     1      11.003  18.085  17.960  1.00  0.00     0.163 HD
BRANCH   3   6
HETATM    6  C4  UNL     1       9.012  16.877  16.428  1.00  0.00     0.180 C 
BRANCH   6   7
HETATM    7  C3  UNL     1      10.407  16.764  15.907  1.00  0.00     0.050 C 
BRANCH   7   8
HETATM    8  C2  UNL     1      10.493  16.916  14.429  1.00  0.00    -0.036 C 
HETATM    9  C1  UNL     1      10.889  15.937  13.627  1.00  0.00     0.007 C 
ENDBRANCH   7   8
ENDBRANCH   6   7
BRANCH   6  10
HETATM   10  C24 UNL     1       8.497  15.575  16.902  1.00  0.00     0.273 C 
HETATM   11  O4  UNL     1       8.274  15.348  18.099  1.00  0.00    -0.264 OA
BRANCH  10  12
HETATM   12  O5  UNL     1       8.249  14.542  15.982  1.00  0.00    -0.311 OA
BRANCH  12  13
HETATM   13  C25 UNL     1       7.095  14.670  15.146  1.00  0.00     0.060 C 
HETATM   14  C26 UNL     1       6.451  16.018  15.299  1.00  0.00     0.045 C 
HETATM   15  C27 UNL     1       6.070  13.627  15.527  1.00  0.00     0.045 C 
HETATM   16  C28 UNL     1       7.503  14.487  13.692  1.00  0.00     0.045 C 
ENDBRANCH  12  13
ENDBRANCH  10  12
ENDBRANCH   6  10
ENDBRANCH   3   6
ENDBRANCH   1   2
BRANCH   1  17
HETATM   17  C7  UNL     1       9.990  18.842  20.592  1.00  0.00     0.093 C 
BRANCH  17  18
HETATM   18  C8  UNL     1       8.862  17.972  20.961  1.00  0.00     0.028 A 
HETATM   19  C9  UNL     1       7.617  18.383  21.384  1.00  0.00     0.114 A 
HETATM   20  N2  UNL     1       6.891  17.273  21.616  1.00  0.00    -0.360 N 
HETATM   21  C10 UNL     1       7.660  16.226  21.346  1.00  0.00     0.180 A 
ATOM     22  H2  UNL     1       5.925  17.242  21.941  1.00  0.00     0.166 HD
HETATM   23  N3  UNL     1       8.899  16.628  20.934  1.00  0.00    -0.354 N 
ATOM     24  H3  UNL     1       9.684  16.036  20.664  1.00  0.00     0.166 HD
ENDBRANCH  17  18
ENDBRANCH   1  17
BRANCH   1  25
HETATM   25  C11 UNL     1      11.070  20.407  19.139  1.00  0.00     0.253 C 
HETATM   26  O2  UNL     1      11.497  20.844  20.253  1.00  0.00    -0.270 OA
HETATM   27  N4  UNL     1      11.627  20.787  17.898  1.00  0.00    -0.274 N 
HETATM   28  S1  UNL     1      11.137  20.236  16.251  1.00  0.00    -0.038 SA
HETATM   29  C15 UNL     1      12.641  21.597  17.272  1.00  0.00     0.211 C 
HETATM   30  C12 UNL     1      12.882  20.662  16.102  1.00  0.00     0.051 C 
HETATM   31  C13 UNL     1      13.783  19.504  16.425  1.00  0.00     0.031 C 
HETATM   32  C14 UNL     1      13.161  21.335  14.778  1.00  0.00     0.031 C 
BRANCH  29  33
HETATM   33  C16 UNL     1      13.807  21.970  18.049  1.00  0.00     0.243 C 
HETATM   34  O3  UNL     1      14.176  21.311  19.038  1.00  0.00    -0.271 OA
HETATM   35  N5  UNL     1      14.630  23.117  17.752  1.00  0.00    -0.354 N 
ATOM     36  H5  UNL     1      14.396  23.701  16.950  1.00  0.00     0.162 HD
BRANCH  35  37
HETATM   37  C17 UNL     1      15.771  23.456  18.558  1.00  0.00     0.091 C 
BRANCH  37  38
HETATM   38  C18 UNL     1      17.020  23.246  17.758  1.00  0.00     0.001 C 
HETATM   39  C19 UNL     1      18.047  24.323  17.942  1.00  0.00     0.011 C 
HETATM   40  C20 UNL     1      16.848  23.008  16.302  1.00  0.00     0.011 C 
ENDBRANCH  37  38
BRANCH  37  41
HETATM   41  C21 UNL     1      15.562  24.791  19.143  1.00  0.00     0.001 C 
HETATM   42  C22 UNL     1      15.423  24.819  20.638  1.00  0.00     0.011 C 
HETATM   43  C23 UNL     1      14.559  25.681  18.487  1.00  0.00     0.011 C 
ENDBRANCH  37  41
ENDBRANCH  35  37
ENDBRANCH  29  33
ENDBRANCH   1  25
TORSDOF 14
ENDMDL
MODEL 4
REMARK VINA RESULT: -7.966959207      2.176      9.322
REMARK  14 active torsions:
REMARK  status: ('A' for Active; 'I' for Inactive)
REMARK    1  A    between atoms: C2_2  and  C3_3 
REMARK    2  A    between atoms: C3_3  and  C4_4 
REMARK    3  A    between atoms: C4_4  and  C5_5 
REMARK    4  A    between atoms: C4_4  and  C24_37 
REMARK       I    between atoms: C5_5  and  N1_7 
REMARK    5  A    between atoms: N1_7  and  C6_9 
REMARK    6  A    between atoms: C6_9  and  C7_10 
REMARK    7  A    between atoms: C6_9  and  C11_18 
REMARK    8  A    between atoms: C7_10  and  C8_11 
REMARK       I    between atoms: C11_18  and  N4_20 
REMARK    9  A    between atoms: C15_25  and  C16_26 
REMARK       I    between atoms: C16_26  and  N5_28 
REMARK   10  A    between atoms: N5_28  and  C17_30 
REMARK   11  A    between atoms: C17_30  and  C18_31 
REMARK   12  A    between atoms: C17_30  and  C21_34 
REMARK   13  A    between atoms: C24_37  and  O5_39 
REMARK   14  A    between atoms: O5_39  and  C25_40 
ROOT
HETATM    1  C6  UNL     1      10.414  20.964  17.964  1.00  0.00     0.183 C 
ENDROOT
BRANCH   1   2
HETATM    2  N1  UNL     1      10.604  19.585  17.534  1.00  0.00    -0.347 N 
HETATM    3  C5  UNL     1       9.734  18.970  16.605  1.00  0.00     0.232 C 
HETATM    4  O1  UNL     1       8.779  19.699  16.177  1.00  0.00    -0.273 OA
ATOM      5  H1  UNL     1      11.384  19.049  17.914  1.00  0.00     0.163 HD
BRANCH   3   6
HETATM    6  C4  UNL     1       9.843  17.588  16.108  1.00  0.00     0.180 C 
BRANCH   6   7
HETATM    7  C3  UNL     1      11.282  17.198  16.013  1.00  0.00     0.050 C 
BRANCH   7   8
HETATM    8  C2  UNL     1      11.668  16.721  14.658  1.00  0.00    -0.036 C 
HETATM    9  C1  UNL     1      10.782  16.345  13.746  1.00  0.00     0.007 C 
ENDBRANCH   7   8
ENDBRANCH   6   7
BRANCH   6  10
HETATM   10  C24 UNL     1       9.075  16.646  16.951  1.00  0.00     0.273 C 
HETATM   11  O4  UNL     1       8.717  16.930  18.102  1.00  0.00    -0.264 OA
BRANCH  10  12
HETATM   12  O5  UNL     1       8.732  15.379  16.451  1.00  0.00    -0.311 OA
BRANCH  12  13
HETATM   13  C25 UNL     1       7.523  15.276  15.695  1.00  0.00     0.060 C 
HETATM   14  C26 UNL     1       7.688  14.367  14.512  1.00  0.00     0.045 C 
HETATM   15  C27 UNL     1       7.130  16.639  15.172  1.00  0.00     0.045 C 
HETATM   16  C28 UNL     1       6.418  14.724  16.583  1.00  0.00     0.045 C 
ENDBRANCH  12  13
ENDBRANCH  10  12
ENDBRANCH   6  10
ENDBRANCH   3   6
ENDBRANCH   1   2
BRANCH   1  17
HETATM   17  C7  UNL     1       9.860  21.038  19.352  1.00  0.00     0.093 C 
BRANCH  17  18
HETATM   18  C8  UNL     1       9.828  19.760  20.081  1.00  0.00     0.028 A 
HETATM   19  C9  UNL     1      10.914  19.078  20.584  1.00  0.00     0.114 A 
HETATM   20  N2  UNL     1      10.443  17.962  21.174  1.00  0.00    -0.360 N 
HETATM   21  C10 UNL     1       9.123  17.963  21.038  1.00  0.00     0.180 A 
ATOM     22  H2  UNL     1      10.999  17.246  21.640  1.00  0.00     0.166 HD
HETATM   23  N3  UNL     1       8.706  19.073  20.359  1.00  0.00    -0.354 N 
ATOM     24  H3  UNL     1       7.749  19.326  20.114  1.00  0.00     0.166 HD
ENDBRANCH  17  18
ENDBRANCH   1  17
BRANCH   1  25
HETATM   25  C11 UNL     1      11.761  21.648  18.032  1.00  0.00     0.253 C 
HETATM   26  O2  UNL     1      12.019  22.240  19.127  1.00  0.00    -0.270 OA
HETATM   27  N4  UNL     1      12.661  21.617  16.944  1.00  0.00    -0.274 N 
HETATM   28  S1  UNL     1      12.437  20.805  15.347  1.00  0.00    -0.038 SA
HETATM   29  C15 UNL     1      13.956  22.050  16.486  1.00  0.00     0.211 C 
HETATM   30  C12 UNL     1      14.221  20.842  15.608  1.00  0.00     0.051 C 
HETATM   31  C13 UNL     1      14.714  19.639  16.361  1.00  0.00     0.031 C 
HETATM   32  C14 UNL     1      14.948  21.124  14.314  1.00  0.00     0.031 C 
BRANCH  29  33
HETATM   33  C16 UNL     1      14.972  22.362  17.474  1.00  0.00     0.243 C 
HETATM   34  O3  UNL     1      15.189  21.618  18.449  1.00  0.00    -0.271 OA
HETATM   35  N5  UNL     1      15.805  23.537  17.419  1.00  0.00    -0.354 N 
ATOM     36  H5  UNL     1      15.692  24.189  16.644  1.00  0.00     0.162 HD
BRANCH  35  37
HETATM   37  C17 UNL     1      16.791  23.812  18.429  1.00  0.00     0.091 C 
BRANCH  37  38
HETATM   38  C18 UNL     1      18.109  24.080  17.770  1.00  0.00     0.001 C 
HETATM   39  C19 UNL     1      18.305  25.511  17.363  1.00  0.00     0.011 C 
HETATM   40  C20 UNL     1      18.469  23.214  16.618  1.00  0.00     0.011 C 
ENDBRANCH  37  38
BRANCH  37  41
HETATM   41  C21 UNL     1      16.268  24.846  19.337  1.00  0.00     0.001 C 
HETATM   42  C22 UNL     1      16.270  24.478  20.792  1.00  0.00     0.011 C 
HETATM   43  C23 UNL     1      14.996  25.524  18.949  1.00  0.00     0.011 C 
ENDBRANCH  37  41
ENDBRANCH  35  37
ENDBRANCH  29  33
ENDBRANCH   1  25
TORSDOF 14
ENDMDL
MODEL 5
REMARK VINA RESULT: -7.954219017      3.038     10.106
REMARK  14 active torsions:
REMARK  status: ('A' for Active; 'I' for Inactive)
REMARK    1  A    between atoms: C2_2  and  C3_3 
REMARK    2  A    between atoms: C3_3  and  C4_4 
REMARK    3  A    between atoms: C4_4  and  C5_5 
REMARK    4  A    between atoms: C4_4  and  C24_37 
REMARK       I    between atoms: C5_5  and  N1_7 
REMARK    5  A    between atoms: N1_7  and  C6_9 
REMARK    6  A    between atoms: C6_9  and  C7_10 
REMARK    7  A    between atoms: C6_9  and  C11_18 
REMARK    8  A    between atoms: C7_10  and  C8_11 
REMARK       I    between atoms: C11_18  and  N4_20 
REMARK    9  A    between atoms: C15_25  and  C16_26 
REMARK       I    between atoms: C16_26  and  N5_28 
REMARK   10  A    between atoms: N5_28  and  C17_30 
REMARK   11  A    between atoms: C17_30  and  C18_31 
REMARK   12  A    between atoms: C17_30  and  C21_34 
REMARK   13  A    between atoms: C24_37  and  O5_39 
REMARK   14  A    between atoms: O5_39  and  C25_40 
ROOT
HETATM    1  C6  UNL     1      13.050  21.984  17.941  1.00  0.00     0.183 C 
ENDROOT
BRANCH   1   2
HETATM    2  N1  UNL     1      12.586  20.829  17.183  1.00  0.00    -0.347 N 
HETATM    3  C5  UNL     1      11.376  20.859  16.453  1.00  0.00     0.232 C 
HETATM    4  O1  UNL     1      10.723  21.953  16.508  1.00  0.00    -0.273 OA
ATOM      5  H1  UNL     1      13.149  19.979  17.178  1.00  0.00     0.163 HD
BRANCH   3   6
HETATM    6  C4  UNL     1      10.824  19.749  15.656  1.00  0.00     0.180 C 
BRANCH   6   7
HETATM    7  C3  UNL     1      11.828  18.646  15.565  1.00  0.00     0.050 C 
BRANCH   7   8
HETATM    8  C2  UNL     1      11.677  17.630  16.641  1.00  0.00    -0.036 C 
HETATM    9  C1  UNL     1      12.508  17.542  17.670  1.00  0.00     0.007 C 
ENDBRANCH   7   8
ENDBRANCH   6   7
BRANCH   6  10
HETATM   10  C24 UNL     1       9.537  19.274  16.206  1.00  0.00     0.273 C 
HETATM   11  O4  UNL     1       9.296  19.276  17.421  1.00  0.00    -0.264 OA
BRANCH  10  12
HETATM   12  O5  UNL     1       8.540  18.793  15.341  1.00  0.00    -0.311 OA
BRANCH  12  13
HETATM   13  C25 UNL     1       8.254  17.393  15.381  1.00  0.00     0.060 C 
HETATM   14  C26 UNL     1       9.114  16.627  14.418  1.00  0.00     0.045 C 
HETATM   15  C27 UNL     1       6.812  17.154  14.997  1.00  0.00     0.045 C 
HETATM   16  C28 UNL     1       8.509  16.867  16.786  1.00  0.00     0.045 C 
ENDBRANCH  12  13
ENDBRANCH  10  12
ENDBRANCH   6  10
ENDBRANCH   3   6
ENDBRANCH   1   2
BRANCH   1  17
HETATM   17  C7  UNL     1      12.977  21.740  19.416  1.00  0.00     0.093 C 
BRANCH  17  18
HETATM   18  C8  UNL     1      11.793  20.993  19.868  1.00  0.00     0.028 A 
HETATM   19  C9  UNL     1      10.501  21.466  19.930  1.00  0.00     0.114 A 
HETATM   20  N2  UNL     1       9.734  20.463  20.397  1.00  0.00    -0.360 N 
HETATM   21  C10 UNL     1      10.524  19.419  20.612  1.00  0.00     0.180 A 
ATOM     22  H2  UNL     1       8.727  20.499  20.558  1.00  0.00     0.166 HD
HETATM   23  N3  UNL     1      11.818  19.717  20.292  1.00  0.00    -0.354 N 
ATOM     24  H3  UNL     1      12.630  19.103  20.361  1.00  0.00     0.166 HD
ENDBRANCH  17  18
ENDBRANCH   1  17
BRANCH   1  25
HETATM   25  C11 UNL     1      14.515  22.211  17.644  1.00  0.00     0.253 C 
HETATM   26  O2  UNL     1      14.978  21.567  16.650  1.00  0.00    -0.270 OA
HETATM   27  N4  UNL     1      15.300  23.086  18.427  1.00  0.00    -0.274 N 
HETATM   28  S1  UNL     1      14.777  24.072  19.845  1.00  0.00    -0.038 SA
HETATM   29  C15 UNL     1      16.621  23.637  18.593  1.00  0.00     0.211 C 
HETATM   30  C12 UNL     1      16.160  24.980  19.129  1.00  0.00     0.051 C 
HETATM   31  C13 UNL     1      15.721  25.942  18.061  1.00  0.00     0.031 C 
HETATM   32  C14 UNL     1      17.026  25.583  20.210  1.00  0.00     0.031 C 
BRANCH  29  33
HETATM   33  C16 UNL     1      17.507  23.672  17.446  1.00  0.00     0.243 C 
HETATM   34  O3  UNL     1      18.711  23.371  17.538  1.00  0.00    -0.271 OA
HETATM   35  N5  UNL     1      17.084  24.053  16.122  1.00  0.00    -0.354 N 
ATOM     36  H5  UNL     1      16.108  24.305  15.966  1.00  0.00     0.162 HD
BRANCH  35  37
HETATM   37  C17 UNL     1      18.001  24.086  15.015  1.00  0.00     0.091 C 
BRANCH  37  38
HETATM   38  C18 UNL     1      17.653  22.991  14.054  1.00  0.00     0.001 C 
HETATM   39  C19 UNL     1      16.186  22.883  13.761  1.00  0.00     0.011 C 
HETATM   40  C20 UNL     1      18.166  21.633  14.373  1.00  0.00     0.011 C 
ENDBRANCH  37  38
BRANCH  37  41
HETATM   41  C21 UNL     1      18.059  25.457  14.483  1.00  0.00     0.001 C 
HETATM   42  C22 UNL     1      18.600  25.579  13.088  1.00  0.00     0.011 C 
HETATM   43  C23 UNL     1      18.612  26.519  15.375  1.00  0.00     0.011 C 
ENDBRANCH  37  41
ENDBRANCH  35  37
ENDBRANCH  29  33
ENDBRANCH   1  25
TORSDOF 14
ENDMDL
