MODEL 1
REMARK VINA RESULT: -6.107290904      0.000      0.000
REMARK  13 active torsions:
REMARK  status: ('A' for Active; 'I' for Inactive)
REMARK    1  A    between atoms: S1_2  and  C2_3 
REMARK    2  A    between atoms: C7_11  and  S2_12 
REMARK    3  A    between atoms: S2_12  and  N1_15 
REMARK    4  A    between atoms: N1_15  and  C8_16 
REMARK    5  A    between atoms: N1_15  and  C13_24 
REMARK    6  A    between atoms: C8_16  and  C9_17 
REMARK    7  A    between atoms: C9_17  and  O3_18 
REMARK    8  A    between atoms: O3_18  and  C10_19 
REMARK    9  A    between atoms: C10_19  and  C12_21 
REMARK   10  A    between atoms: C13_24  and  C14_25 
REMARK   11  A    between atoms: C14_25  and  O6_26 
REMARK   12  A    between atoms: C14_25  and  C15_28 
REMARK   13  A    between atoms: C15_28  and  O7_29 
ROOT
HETATM    1  N1  UNL     1      44.066  30.165  14.616  1.00  0.00    -0.282 N 
ENDROOT
BRANCH   1   2
HETATM    2  S2  UNL     1      42.638  30.109  15.484  1.00  0.00     0.267 S 
HETATM    3  O1  UNL     1      42.887  30.294  16.995  1.00  0.00    -0.200 OA
HETATM    4  O2  UNL     1      42.040  28.719  15.321  1.00  0.00    -0.200 OA
BRANCH   2   5
HETATM    5  C7  UNL     1      41.439  31.323  15.115  1.00  0.00     0.117 A 
HETATM    6  C2  UNL     1      40.448  31.075  14.205  1.00  0.00     0.065 A 
HETATM    7  C3  UNL     1      39.539  32.091  13.941  1.00  0.00     0.152 A 
HETATM    8  F1  UNL     1      38.544  31.886  13.049  1.00  0.00    -0.203 F 
HETATM    9  C4  UNL     1      39.646  33.307  14.584  1.00  0.00     0.052 A 
HETATM   10 BR1  UNL     1      38.389  34.710  14.220  1.00  0.00    -0.048 Br
HETATM   11  C5  UNL     1      40.660  33.518  15.494  1.00  0.00     0.043 A 
HETATM   12  C6  UNL     1      41.578  32.545  15.783  1.00  0.00     0.037 A 
HETATM   13 BR2  UNL     1      43.011  32.860  17.023  1.00  0.00    -0.049 Br
BRANCH   6  14
HETATM   14  S1  UNL     1      40.332  29.506  13.357  1.00  0.00    -0.130 SA
HETATM   15  C1  UNL     1      38.854  28.602  13.787  1.00  0.00     0.095 C 
ENDBRANCH   6  14
ENDBRANCH   2   5
ENDBRANCH   1   2
BRANCH   1  16
HETATM   16  C8  UNL     1      45.235  30.291  15.383  1.00  0.00     0.167 C 
BRANCH  16  17
HETATM   17  C9  UNL     1      46.347  29.324  14.937  1.00  0.00     0.189 C 
BRANCH  17  18
HETATM   18  O3  UNL     1      46.970  28.910  16.102  1.00  0.00    -0.374 OA
BRANCH  18  19
HETATM   19  C10 UNL     1      48.308  29.159  16.158  1.00  0.00     0.218 C 
HETATM   20  C11 UNL     1      48.498  30.450  16.962  1.00  0.00     0.051 C 
BRANCH  19  21
HETATM   21  C12 UNL     1      49.113  28.125  16.799  1.00  0.00     0.202 C 
HETATM   22  O4  UNL     1      49.913  28.447  17.711  1.00  0.00    -0.646 OA
HETATM   23  O5  UNL     1      49.042  26.787  16.450  1.00  0.00    -0.646 OA
ENDBRANCH  19  21
ENDBRANCH  18  19
ENDBRANCH  17  18
ENDBRANCH  16  17
ENDBRANCH   1  16
BRANCH   1  24
HETATM   24  C13 UNL     1      44.200  29.647  13.339  1.00  0.00     0.110 C 
BRANCH  24  25
HETATM   25  C14 UNL     1      44.137  30.578  12.171  1.00  0.00     0.180 C 
BRANCH  25  26
HETATM   26  O6  UNL     1      43.584  31.800  12.364  1.00  0.00    -0.388 OA
ATOM     27  H6  UNL     1      42.804  32.018  11.868  1.00  0.00     0.210 HD
ENDBRANCH  25  26
BRANCH  25  28
HETATM   28  C15 UNL     1      43.358  29.831  11.076  1.00  0.00     0.201 C 
BRANCH  28  29
HETATM   29  O7  UNL     1      44.192  28.778  10.649  1.00  0.00    -0.398 OA
ATOM     30  H7  UNL     1      44.410  28.964   9.743  1.00  0.00     0.209 HD
ENDBRANCH  28  29
ENDBRANCH  25  28
ENDBRANCH  24  25
ENDBRANCH   1  24
TORSDOF 13
ENDMDL
MODEL 2
REMARK VINA RESULT: -6.047010310      6.061      8.907
REMARK  13 active torsions:
REMARK  status: ('A' for Active; 'I' for Inactive)
REMARK    1  A    between atoms: S1_2  and  C2_3 
REMARK    2  A    between atoms: C7_11  and  S2_12 
REMARK    3  A    between atoms: S2_12  and  N1_15 
REMARK    4  A    between atoms: N1_15  and  C8_16 
REMARK    5  A    between atoms: N1_15  and  C13_24 
REMARK    6  A    between atoms: C8_16  and  C9_17 
REMARK    7  A    between atoms: C9_17  and  O3_18 
REMARK    8  A    between atoms: O3_18  and  C10_19 
REMARK    9  A    between atoms: C10_19  and  C12_21 
REMARK   10  A    between atoms: C13_24  and  C14_25 
REMARK   11  A    between atoms: C14_25  and  O6_26 
REMARK   12  A    between atoms: C14_25  and  C15_28 
REMARK   13  A    between atoms: C15_28  and  O7_29 
ROOT
HETATM    1  N1  UNL     1      36.272  30.240  12.903  1.00  0.00    -0.282 N 
ENDROOT
BRANCH   1   2
HETATM    2  S2  UNL     1      37.822  30.725  12.505  1.00  0.00     0.267 S 
HETATM    3  O1  UNL     1      37.827  31.646  11.268  1.00  0.00    -0.200 OA
HETATM    4  O2  UNL     1      38.618  29.487  12.114  1.00  0.00    -0.200 OA
BRANCH   2   5
HETATM    5  C7  UNL     1      38.697  31.643  13.704  1.00  0.00     0.117 A 
HETATM    6  C2  UNL     1      38.414  32.964  13.919  1.00  0.00     0.065 A 
HETATM    7  C3  UNL     1      39.162  33.643  14.872  1.00  0.00     0.152 A 
HETATM    8  F1  UNL     1      38.912  34.949  15.116  1.00  0.00    -0.203 F 
HETATM    9  C4  UNL     1      40.157  32.990  15.571  1.00  0.00     0.052 A 
HETATM   10 BR1  UNL     1      41.190  33.927  16.889  1.00  0.00    -0.048 Br
HETATM   11  C5  UNL     1      40.413  31.658  15.324  1.00  0.00     0.043 A 
HETATM   12  C6  UNL     1      39.700  30.952  14.394  1.00  0.00     0.037 A 
HETATM   13 BR2  UNL     1      40.089  29.107  14.027  1.00  0.00    -0.049 Br
BRANCH   6  14
HETATM   14  S1  UNL     1      37.140  33.808  12.991  1.00  0.00    -0.130 SA
HETATM   15  C1  UNL     1      35.558  33.780  13.816  1.00  0.00     0.095 C 
ENDBRANCH   6  14
ENDBRANCH   2   5
ENDBRANCH   1   2
BRANCH   1  16
HETATM   16  C8  UNL     1      36.018  30.097  14.277  1.00  0.00     0.167 C 
BRANCH  16  17
HETATM   17  C9  UNL     1      36.220  28.654  14.772  1.00  0.00     0.189 C 
BRANCH  17  18
HETATM   18  O3  UNL     1      34.996  28.262  15.286  1.00  0.00    -0.374 OA
BRANCH  18  19
HETATM   19  C10 UNL     1      34.655  28.845  16.469  1.00  0.00     0.218 C 
HETATM   20  C11 UNL     1      33.126  28.931  16.511  1.00  0.00     0.051 C 
BRANCH  19  21
HETATM   21  C12 UNL     1      35.083  28.131  17.668  1.00  0.00     0.202 C 
HETATM   22  O4  UNL     1      34.902  28.659  18.792  1.00  0.00    -0.646 OA
HETATM   23  O5  UNL     1      35.689  26.888  17.630  1.00  0.00    -0.646 OA
ENDBRANCH  19  21
ENDBRANCH  18  19
ENDBRANCH  17  18
ENDBRANCH  16  17
ENDBRANCH   1  16
BRANCH   1  24
HETATM   24  C13 UNL     1      35.179  30.429  12.074  1.00  0.00     0.110 C 
BRANCH  24  25
HETATM   25  C14 UNL     1      34.425  29.231  11.589  1.00  0.00     0.180 C 
BRANCH  25  26
HETATM   26  O6  UNL     1      34.191  29.127  10.259  1.00  0.00    -0.388 OA
ATOM     27  H6  UNL     1      34.719  29.655   9.672  1.00  0.00     0.210 HD
ENDBRANCH  25  26
BRANCH  25  28
HETATM   28  C15 UNL     1      33.086  29.241  12.345  1.00  0.00     0.201 C 
BRANCH  28  29
HETATM   29  O7  UNL     1      33.047  28.045  13.091  1.00  0.00    -0.398 OA
ATOM     30  H7  UNL     1      32.174  27.689  12.975  1.00  0.00     0.209 HD
ENDBRANCH  28  29
ENDBRANCH  25  28
ENDBRANCH  24  25
ENDBRANCH   1  24
TORSDOF 13
ENDMDL
MODEL 3
REMARK VINA RESULT: -5.950606932      1.600      2.401
REMARK  13 active torsions:
REMARK  status: ('A' for Active; 'I' for Inactive)
REMARK    1  A    between atoms: S1_2  and  C2_3 
REMARK    2  A    between atoms: C7_11  and  S2_12 
REMARK    3  A    between atoms: S2_12  and  N1_15 
REMARK    4  A    between atoms: N1_15  and  C8_16 
REMARK    5  A    between atoms: N1_15  and  C13_24 
REMARK    6  A    between atoms: C8_16  and  C9_17 
REMARK    7  A    between atoms: C9_17  and  O3_18 
REMARK    8  A    between atoms: O3_18  and  C10_19 
REMARK    9  A    between atoms: C10_19  and  C12_21 
REMARK   10  A    between atoms: C13_24  and  C14_25 
REMARK   11  A    between atoms: C14_25  and  O6_26 
REMARK   12  A    between atoms: C14_25  and  C15_28 
REMARK   13  A    between atoms: C15_28  and  O7_29 
ROOT
HETATM    1  N1  UNL     1      44.031  30.006  14.562  1.00  0.00    -0.282 N 
ENDROOT
BRANCH   1   2
HETATM    2  S2  UNL     1      42.568  29.959  15.371  1.00  0.00     0.267 S 
HETATM    3  O1  UNL     1      42.760  30.093  16.896  1.00  0.00    -0.200 OA
HETATM    4  O2  UNL     1      41.944  28.590  15.142  1.00  0.00    -0.200 OA
BRANCH   2   5
HETATM    5  C7  UNL     1      41.413  31.212  14.992  1.00  0.00     0.117 A 
HETATM    6  C2  UNL     1      41.628  32.506  15.382  1.00  0.00     0.065 A 
HETATM    7  C3  UNL     1      40.660  33.450  15.067  1.00  0.00     0.152 A 
HETATM    8  F1  UNL     1      40.835  34.739  15.434  1.00  0.00    -0.203 F 
HETATM    9  C4  UNL     1      39.521  33.077  14.382  1.00  0.00     0.052 A 
HETATM   10 BR1  UNL     1      38.183  34.382  13.946  1.00  0.00    -0.048 Br
HETATM   11  C5  UNL     1      39.340  31.764  14.007  1.00  0.00     0.043 A 
HETATM   12  C6  UNL     1      40.269  30.801  14.298  1.00  0.00     0.037 A 
HETATM   13 BR2  UNL     1      39.992  28.965  13.806  1.00  0.00    -0.049 Br
BRANCH   6  14
HETATM   14  S1  UNL     1      43.094  32.973  16.292  1.00  0.00    -0.130 SA
HETATM   15  C1  UNL     1      42.755  33.307  18.013  1.00  0.00     0.095 C 
ENDBRANCH   6  14
ENDBRANCH   2   5
ENDBRANCH   1   2
BRANCH   1  16
HETATM   16  C8  UNL     1      45.170  30.092  15.379  1.00  0.00     0.167 C 
BRANCH  16  17
HETATM   17  C9  UNL     1      46.344  29.245  14.854  1.00  0.00     0.189 C 
BRANCH  17  18
HETATM   18  O3  UNL     1      46.958  28.722  15.979  1.00  0.00    -0.374 OA
BRANCH  18  19
HETATM   19  C10 UNL     1      48.288  28.996  16.089  1.00  0.00     0.218 C 
HETATM   20  C11 UNL     1      48.421  30.311  16.864  1.00  0.00     0.051 C 
BRANCH  19  21
HETATM   21  C12 UNL     1      49.079  27.993  16.794  1.00  0.00     0.202 C 
HETATM   22  O4  UNL     1      49.870  28.360  17.697  1.00  0.00    -0.646 OA
HETATM   23  O5  UNL     1      49.005  26.639  16.515  1.00  0.00    -0.646 OA
ENDBRANCH  19  21
ENDBRANCH  18  19
ENDBRANCH  17  18
ENDBRANCH  16  17
ENDBRANCH   1  16
BRANCH   1  24
HETATM   24  C13 UNL     1      44.207  29.513  13.281  1.00  0.00     0.110 C 
BRANCH  24  25
HETATM   25  C14 UNL     1      44.096  30.454  12.124  1.00  0.00     0.180 C 
BRANCH  25  26
HETATM   26  O6  UNL     1      43.656  31.711  12.370  1.00  0.00    -0.388 OA
ATOM     27  H6  UNL     1      44.286  32.348  12.685  1.00  0.00     0.210 HD
ENDBRANCH  25  26
BRANCH  25  28
HETATM   28  C15 UNL     1      43.158  29.772  11.114  1.00  0.00     0.201 C 
BRANCH  28  29
HETATM   29  O7  UNL     1      43.936  28.804  10.446  1.00  0.00    -0.398 OA
ATOM     30  H7  UNL     1      44.697  29.262  10.110  1.00  0.00     0.209 HD
ENDBRANCH  28  29
ENDBRANCH  25  28
ENDBRANCH  24  25
ENDBRANCH   1  24
TORSDOF 13
ENDMDL
MODEL 4
REMARK VINA RESULT: -5.925220393      1.528      1.828
REMARK  13 active torsions:
REMARK  status: ('A' for Active; 'I' for Inactive)
REMARK    1  A    between atoms: S1_2  and  C2_3 
REMARK    2  A    between atoms: C7_11  and  S2_12 
REMARK    3  A    between atoms: S2_12  and  N1_15 
REMARK    4  A    between atoms: N1_15  and  C8_16 
REMARK    5  A    between atoms: N1_15  and  C13_24 
REMARK    6  A    between atoms: C8_16  and  C9_17 
REMARK    7  A    between atoms: C9_17  and  O3_18 
REMARK    8  A    between atoms: O3_18  and  C10_19 
REMARK    9  A    between atoms: C10_19  and  C12_21 
REMARK   10  A    between atoms: C13_24  and  C14_25 
REMARK   11  A    between atoms: C14_25  and  O6_26 
REMARK   12  A    between atoms: C14_25  and  C15_28 
REMARK   13  A    between atoms: C15_28  and  O7_29 
ROOT
HETATM    1  N1  UNL     1      43.455  31.318  15.271  1.00  0.00    -0.282 N 
ENDROOT
BRANCH   1   2
HETATM    2  S2  UNL     1      41.972  31.206  16.036  1.00  0.00     0.267 S 
HETATM    3  O1  UNL     1      42.070  31.610  17.521  1.00  0.00    -0.200 OA
HETATM    4  O2  UNL     1      41.542  29.746  16.022  1.00  0.00    -0.200 OA
BRANCH   2   5
HETATM    5  C7  UNL     1      40.686  32.213  15.421  1.00  0.00     0.117 A 
HETATM    6  C2  UNL     1      39.785  31.725  14.514  1.00  0.00     0.065 A 
HETATM    7  C3  UNL     1      38.799  32.585  14.048  1.00  0.00     0.152 A 
HETATM    8  F1  UNL     1      37.890  32.140  13.153  1.00  0.00    -0.203 F 
HETATM    9  C4  UNL     1      38.745  33.889  14.496  1.00  0.00     0.052 A 
HETATM   10 BR1  UNL     1      37.381  35.077  13.853  1.00  0.00    -0.048 Br
HETATM   11  C5  UNL     1      39.671  34.344  15.409  1.00  0.00     0.043 A 
HETATM   12  C6  UNL     1      40.659  33.531  15.893  1.00  0.00     0.037 A 
HETATM   13 BR2  UNL     1      41.971  34.184  17.136  1.00  0.00    -0.049 Br
BRANCH   6  14
HETATM   14  S1  UNL     1      39.880  30.041  13.921  1.00  0.00    -0.130 SA
HETATM   15  C1  UNL     1      38.386  29.118  14.237  1.00  0.00     0.095 C 
ENDBRANCH   6  14
ENDBRANCH   2   5
ENDBRANCH   1   2
BRANCH   1  16
HETATM   16  C8  UNL     1      44.575  31.108  16.091  1.00  0.00     0.167 C 
BRANCH  16  17
HETATM   17  C9  UNL     1      45.848  31.776  15.542  1.00  0.00     0.189 C 
BRANCH  17  18
HETATM   18  O3  UNL     1      46.885  31.305  16.328  1.00  0.00    -0.374 OA
BRANCH  18  19
HETATM   19  C10 UNL     1      47.787  30.517  15.680  1.00  0.00     0.218 C 
HETATM   20  C11 UNL     1      49.183  31.065  15.997  1.00  0.00     0.051 C 
BRANCH  19  21
HETATM   21  C12 UNL     1      47.777  29.108  16.060  1.00  0.00     0.202 C 
HETATM   22  O4  UNL     1      46.761  28.413  15.815  1.00  0.00    -0.646 OA
HETATM   23  O5  UNL     1      48.844  28.487  16.688  1.00  0.00    -0.646 OA
ENDBRANCH  19  21
ENDBRANCH  18  19
ENDBRANCH  17  18
ENDBRANCH  16  17
ENDBRANCH   1  16
BRANCH   1  24
HETATM   24  C13 UNL     1      43.624  31.133  13.910  1.00  0.00     0.110 C 
BRANCH  24  25
HETATM   25  C14 UNL     1      43.643  29.739  13.367  1.00  0.00     0.180 C 
BRANCH  25  26
HETATM   26  O6  UNL     1      43.281  28.731  14.197  1.00  0.00    -0.388 OA
ATOM     27  H6  UNL     1      42.367  28.474  14.211  1.00  0.00     0.210 HD
ENDBRANCH  25  26
BRANCH  25  28
HETATM   28  C15 UNL     1      45.077  29.500  12.868  1.00  0.00     0.201 C 
BRANCH  28  29
HETATM   29  O7  UNL     1      45.413  28.185  13.252  1.00  0.00    -0.398 OA
ATOM     30  H7  UNL     1      46.347  28.097  13.103  1.00  0.00     0.209 HD
ENDBRANCH  28  29
ENDBRANCH  25  28
ENDBRANCH  24  25
ENDBRANCH   1  24
TORSDOF 13
ENDMDL
MODEL 5
REMARK VINA RESULT: -5.796351870      2.232      3.112
REMARK  13 active torsions:
REMARK  status: ('A' for Active; 'I' for Inactive)
REMARK    1  A    between atoms: S1_2  and  C2_3 
REMARK    2  A    between atoms: C7_11  and  S2_12 
REMARK    3  A    between atoms: S2_12  and  N1_15 
REMARK    4  A    between atoms: N1_15  and  C8_16 
REMARK    5  A    between atoms: N1_15  and  C13_24 
REMARK    6  A    between atoms: C8_16  and  C9_17 
REMARK    7  A    between atoms: C9_17  and  O3_18 
REMARK    8  A    between atoms: O3_18  and  C10_19 
REMARK    9  A    between atoms: C10_19  and  C12_21 
REMARK   10  A    between atoms: C13_24  and  C14_25 
REMARK   11  A    between atoms: C14_25  and  O6_26 
REMARK   12  A    between atoms: C14_25  and  C15_28 
REMARK   13  A    between atoms: C15_28  and  O7_29 
ROOT
HETATM    1  N1  UNL     1      43.155  31.539  15.133  1.00  0.00    -0.282 N 
ENDROOT
BRANCH   1   2
HETATM    2  S2  UNL     1      41.677  31.125  15.796  1.00  0.00     0.267 S 
HETATM    3  O1  UNL     1      41.563  31.591  17.262  1.00  0.00    -0.200 OA
HETATM    4  O2  UNL     1      41.581  29.606  15.826  1.00  0.00    -0.200 OA
BRANCH   2   5
HETATM    5  C7  UNL     1      40.254  31.798  15.040  1.00  0.00     0.117 A 
HETATM    6  C2  UNL     1      39.910  33.108  15.234  1.00  0.00     0.065 A 
HETATM    7  C3  UNL     1      38.754  33.574  14.622  1.00  0.00     0.152 A 
HETATM    8  F1  UNL     1      38.381  34.863  14.787  1.00  0.00    -0.203 F 
HETATM    9  C4  UNL     1      37.987  32.729  13.846  1.00  0.00     0.052 A 
HETATM   10 BR1  UNL     1      36.390  33.374  12.999  1.00  0.00    -0.048 Br
HETATM   11  C5  UNL     1      38.366  31.415  13.676  1.00  0.00     0.043 A 
HETATM   12  C6  UNL     1      39.497  30.914  14.261  1.00  0.00     0.037 A 
HETATM   13 BR2  UNL     1      39.998  29.071  14.052  1.00  0.00    -0.049 Br
BRANCH   6  14
HETATM   14  S1  UNL     1      40.896  34.188  16.262  1.00  0.00    -0.130 SA
HETATM   15  C1  UNL     1      42.160  35.046  15.339  1.00  0.00     0.095 C 
ENDBRANCH   6  14
ENDBRANCH   2   5
ENDBRANCH   1   2
BRANCH   1  16
HETATM   16  C8  UNL     1      44.209  31.682  16.051  1.00  0.00     0.167 C 
BRANCH  16  17
HETATM   17  C9  UNL     1      45.538  32.063  15.374  1.00  0.00     0.189 C 
BRANCH  17  18
HETATM   18  O3  UNL     1      46.532  31.644  16.242  1.00  0.00    -0.374 OA
BRANCH  18  19
HETATM   19  C10 UNL     1      47.486  30.848  15.685  1.00  0.00     0.218 C 
HETATM   20  C11 UNL     1      48.446  30.434  16.804  1.00  0.00     0.051 C 
BRANCH  19  21
HETATM   21  C12 UNL     1      46.996  29.625  15.057  1.00  0.00     0.202 C 
HETATM   22  O4  UNL     1      47.047  29.514  13.808  1.00  0.00    -0.646 OA
HETATM   23  O5  UNL     1      46.469  28.566  15.776  1.00  0.00    -0.646 OA
ENDBRANCH  19  21
ENDBRANCH  18  19
ENDBRANCH  17  18
ENDBRANCH  16  17
ENDBRANCH   1  16
BRANCH   1  24
HETATM   24  C13 UNL     1      43.494  31.292  13.814  1.00  0.00     0.110 C 
BRANCH  24  25
HETATM   25  C14 UNL     1      43.427  29.888  13.303  1.00  0.00     0.180 C 
BRANCH  25  26
HETATM   26  O6  UNL     1      43.984  28.911  14.059  1.00  0.00    -0.388 OA
ATOM     27  H6  UNL     1      44.921  28.945  14.210  1.00  0.00     0.210 HD
ENDBRANCH  25  26
BRANCH  25  28
HETATM   28  C15 UNL     1      44.100  29.910  11.921  1.00  0.00     0.201 C 
BRANCH  28  29
HETATM   29  O7  UNL     1      44.883  28.739  11.846  1.00  0.00    -0.398 OA
ATOM     30  H7  UNL     1      45.056  28.595  10.923  1.00  0.00     0.209 HD
ENDBRANCH  28  29
ENDBRANCH  25  28
ENDBRANCH  24  25
ENDBRANCH   1  24
TORSDOF 13
ENDMDL
