MODEL 1
REMARK VINA RESULT: -5.607214009      0.000      0.000
REMARK  4 active torsions:
REMARK  status: ('A' for Active; 'I' for Inactive)
REMARK    1  A    between atoms: N1_1  and  N2_4 
REMARK    2  A    between atoms: N2_4  and  C1_5 
REMARK    3  A    between atoms: C1_5  and  C2_6 
REMARK    4  A    between atoms: C1_5  and  C3_9 
ROOT
HETATM    1  C1  UNL     1      51.172  22.734  29.910  1.00  0.00     0.176 C 
ENDROOT
BRANCH   1   2
HETATM    2  N2  UNL     1      52.145  22.144  30.406  1.00  0.00    -0.332 NA
BRANCH   2   3
HETATM    3  N1  UNL     1      53.016  21.473  30.999  1.00  0.00    -0.280 N 
ATOM      4  H12 UNL     1      52.290  20.762  31.076  1.00  0.00     0.191 HD
ATOM      5  H11 UNL     1      53.808  21.029  31.463  1.00  0.00     0.191 HD
ENDBRANCH   2   3
ENDBRANCH   1   2
BRANCH   1   6
HETATM    6  C2  UNL     1      50.110  23.236  30.757  1.00  0.00     0.293 C 
HETATM    7  N3  UNL     1      50.101  22.954  32.139  1.00  0.00    -0.055 NA
HETATM    8  O1  UNL     1      49.192  23.926  30.255  1.00  0.00    -0.268 OA
ENDBRANCH   1   6
BRANCH   1   9
HETATM    9  C3  UNL     1      51.081  22.934  28.468  1.00  0.00     0.057 A 
HETATM   10  C4  UNL     1      52.063  23.943  27.884  1.00  0.00     0.012 A 
HETATM   11  C5  UNL     1      52.770  22.885  27.091  1.00  0.00     0.002 A 
HETATM   12  C6  UNL     1      51.794  21.862  27.655  1.00  0.00     0.012 A 
ENDBRANCH   1   9
TORSDOF 4
ENDMDL
MODEL 2
REMARK VINA RESULT: -5.509629790      1.034      1.034
REMARK  4 active torsions:
REMARK  status: ('A' for Active; 'I' for Inactive)
REMARK    1  A    between atoms: N1_1  and  N2_4 
REMARK    2  A    between atoms: N2_4  and  C1_5 
REMARK    3  A    between atoms: C1_5  and  C2_6 
REMARK    4  A    between atoms: C1_5  and  C3_9 
ROOT
HETATM    1  C1  UNL     1      51.286  22.687  29.911  1.00  0.00     0.176 C 
ENDROOT
BRANCH   1   2
HETATM    2  N2  UNL     1      52.235  22.039  30.381  1.00  0.00    -0.332 NA
BRANCH   2   3
HETATM    3  N1  UNL     1      53.089  21.346  30.975  1.00  0.00    -0.280 N 
ATOM      4  H12 UNL     1      52.287  20.845  31.357  1.00  0.00     0.191 HD
ATOM      5  H11 UNL     1      53.877  20.857  31.401  1.00  0.00     0.191 HD
ENDBRANCH   2   3
ENDBRANCH   1   2
BRANCH   1   6
HETATM    6  C2  UNL     1      50.302  23.285  30.788  1.00  0.00     0.293 C 
HETATM    7  N3  UNL     1      49.139  23.884  30.260  1.00  0.00    -0.055 NA
HETATM    8  O1  UNL     1      50.486  23.268  32.028  1.00  0.00    -0.268 OA
ENDBRANCH   1   6
BRANCH   1   9
HETATM    9  C3  UNL     1      51.147  22.858  28.469  1.00  0.00     0.057 A 
HETATM   10  C4  UNL     1      52.061  23.905  27.843  1.00  0.00     0.012 A 
HETATM   11  C5  UNL     1      52.799  22.871  27.047  1.00  0.00     0.002 A 
HETATM   12  C6  UNL     1      51.892  21.810  27.654  1.00  0.00     0.012 A 
ENDBRANCH   1   9
TORSDOF 4
ENDMDL
MODEL 3
REMARK VINA RESULT: -4.838182246      1.389      1.735
REMARK  4 active torsions:
REMARK  status: ('A' for Active; 'I' for Inactive)
REMARK    1  A    between atoms: N1_1  and  N2_4 
REMARK    2  A    between atoms: N2_4  and  C1_5 
REMARK    3  A    between atoms: C1_5  and  C2_6 
REMARK    4  A    between atoms: C1_5  and  C3_9 
ROOT
HETATM    1  C1  UNL     1      50.724  23.018  31.290  1.00  0.00     0.176 C 
ENDROOT
BRANCH   1   2
HETATM    2  N2  UNL     1      51.706  22.328  31.607  1.00  0.00    -0.332 NA
BRANCH   2   3
HETATM    3  N1  UNL     1      52.688  21.574  31.775  1.00  0.00    -0.280 N 
ATOM      4  H12 UNL     1      53.054  22.009  30.928  1.00  0.00     0.191 HD
ATOM      5  H11 UNL     1      53.427  20.915  32.020  1.00  0.00     0.191 HD
ENDBRANCH   2   3
ENDBRANCH   1   2
BRANCH   1   6
HETATM    6  C2  UNL     1      49.679  23.290  32.254  1.00  0.00     0.293 C 
HETATM    7  N3  UNL     1      49.124  22.247  33.025  1.00  0.00    -0.055 NA
HETATM    8  O1  UNL     1      49.265  24.463  32.404  1.00  0.00    -0.268 OA
ENDBRANCH   1   6
BRANCH   1   9
HETATM    9  C3  UNL     1      50.605  23.566  29.943  1.00  0.00     0.057 A 
HETATM   10  C4  UNL     1      51.781  23.285  29.016  1.00  0.00     0.012 A 
HETATM   11  C5  UNL     1      50.938  22.445  28.104  1.00  0.00     0.002 A 
HETATM   12  C6  UNL     1      49.747  22.720  29.012  1.00  0.00     0.012 A 
ENDBRANCH   1   9
TORSDOF 4
ENDMDL
MODEL 4
REMARK VINA RESULT: -4.832907465      2.054      2.580
REMARK  4 active torsions:
REMARK  status: ('A' for Active; 'I' for Inactive)
REMARK    1  A    between atoms: N1_1  and  N2_4 
REMARK    2  A    between atoms: N2_4  and  C1_5 
REMARK    3  A    between atoms: C1_5  and  C2_6 
REMARK    4  A    between atoms: C1_5  and  C3_9 
ROOT
HETATM    1  C1  UNL     1      50.711  23.094  30.340  1.00  0.00     0.176 C 
ENDROOT
BRANCH   1   2
HETATM    2  N2  UNL     1      49.691  23.612  29.859  1.00  0.00    -0.332 NA
BRANCH   2   3
HETATM    3  N1  UNL     1      48.627  24.177  29.526  1.00  0.00    -0.280 N 
ATOM      4  H12 UNL     1      49.210  25.006  29.406  1.00  0.00     0.191 HD
ATOM      5  H11 UNL     1      47.701  24.522  29.274  1.00  0.00     0.191 HD
ENDBRANCH   2   3
ENDBRANCH   1   2
BRANCH   1   6
HETATM    6  C2  UNL     1      50.745  22.701  31.733  1.00  0.00     0.293 C 
HETATM    7  N3  UNL     1      49.561  22.670  32.499  1.00  0.00    -0.055 NA
HETATM    8  O1  UNL     1      51.837  22.385  32.260  1.00  0.00    -0.268 OA
ENDBRANCH   1   6
BRANCH   1   9
HETATM    9  C3  UNL     1      51.891  22.871  29.512  1.00  0.00     0.057 A 
HETATM   10  C4  UNL     1      52.026  21.470  28.928  1.00  0.00     0.012 A 
HETATM   11  C5  UNL     1      51.873  21.976  27.525  1.00  0.00     0.002 A 
HETATM   12  C6  UNL     1      51.745  23.385  28.087  1.00  0.00     0.012 A 
ENDBRANCH   1   9
TORSDOF 4
ENDMDL
MODEL 5
REMARK VINA RESULT: -4.623930434      1.813      3.585
REMARK  4 active torsions:
REMARK  status: ('A' for Active; 'I' for Inactive)
REMARK    1  A    between atoms: N1_1  and  N2_4 
REMARK    2  A    between atoms: N2_4  and  C1_5 
REMARK    3  A    between atoms: C1_5  and  C2_6 
REMARK    4  A    between atoms: C1_5  and  C3_9 
ROOT
HETATM    1  C1  UNL     1      51.231  22.850  30.453  1.00  0.00     0.176 C 
ENDROOT
BRANCH   1   2
HETATM    2  N2  UNL     1      52.245  22.134  30.447  1.00  0.00    -0.332 NA
BRANCH   2   3
HETATM    3  N1  UNL     1      53.351  21.551  30.450  1.00  0.00    -0.280 N 
ATOM      4  H12 UNL     1      53.542  22.109  31.282  1.00  0.00     0.191 HD
ATOM      5  H11 UNL     1      54.210  21.012  30.344  1.00  0.00     0.191 HD
ENDBRANCH   2   3
ENDBRANCH   1   2
BRANCH   1   6
HETATM    6  C2  UNL     1      50.570  23.193  29.212  1.00  0.00     0.293 C 
HETATM    7  N3  UNL     1      51.304  23.721  28.129  1.00  0.00    -0.055 NA
HETATM    8  O1  UNL     1      49.334  23.018  29.100  1.00  0.00    -0.268 OA
ENDBRANCH   1   6
BRANCH   1   9
HETATM    9  C3  UNL     1      50.688  23.357  31.708  1.00  0.00     0.057 A 
HETATM   10  C4  UNL     1      49.334  24.048  31.604  1.00  0.00     0.012 A 
HETATM   11  C5  UNL     1      48.664  22.993  32.432  1.00  0.00     0.002 A 
HETATM   12  C6  UNL     1      50.009  22.290  32.556  1.00  0.00     0.012 A 
ENDBRANCH   1   9
TORSDOF 4
ENDMDL
