MODEL 1
REMARK VINA RESULT: -7.813689292      0.000      0.000
REMARK  15 active torsions:
REMARK  status: ('A' for Active; 'I' for Inactive)
REMARK    1  A    between atoms: C2_2  and  O1_5 
REMARK    2  A    between atoms: O1_5  and  C5_6 
REMARK    3  A    between atoms: C5_6  and  C6_8 
REMARK    4  A    between atoms: C6_8  and  C7_9 
REMARK    5  A    between atoms: C7_9  and  C8_10 
REMARK    6  A    between atoms: C8_10  and  C9_11 
REMARK    7  A    between atoms: C9_11  and  C10_12 
REMARK    8  A    between atoms: C10_12  and  C11_13 
REMARK    9  A    between atoms: C11_13  and  C12_14 
REMARK   10  A    between atoms: C11_13  and  N1_23 
REMARK   11  A    between atoms: C12_14  and  C13_15 
REMARK   12  A    between atoms: C18_20  and  O3_21 
REMARK   13  A    between atoms: N1_23  and  N2_25 
REMARK   14  A    between atoms: N2_25  and  C19_27 
REMARK   15  A    between atoms: N5_35  and  O4_37 
ROOT
HETATM    1  C11 UNL     1      47.286  10.001  -2.432  1.00  0.00     0.023 C 
ENDROOT
BRANCH   1   2
HETATM    2  C10 UNL     1      46.946   8.692  -1.954  1.00  0.00    -0.000 C 
BRANCH   2   3
HETATM    3  C9  UNL     1      46.720   8.385  -0.544  1.00  0.00     0.029 C 
BRANCH   3   4
HETATM    4  C8  UNL     1      47.680   7.564   0.226  1.00  0.00     0.010 C 
BRANCH   4   5
HETATM    5  C7  UNL     1      48.946   7.270  -0.477  1.00  0.00     0.066 C 
BRANCH   5   6
HETATM    6  C6  UNL     1      49.056   5.802  -0.766  1.00  0.00     0.106 C 
HETATM    7  N5  UNL     1      49.016   4.993   0.214  1.00  0.00    -0.267 N 
ATOM      8  H5  UNL     1      48.922   5.340   1.168  1.00  0.00     0.194 HD
BRANCH   6   9
HETATM    9  C5  UNL     1      49.188   5.348  -2.114  1.00  0.00     0.308 C 
HETATM   10  O2  UNL     1      50.153   4.687  -2.560  1.00  0.00    -0.258 OA
BRANCH   9  11
HETATM   11  O1  UNL     1      48.185   5.645  -3.040  1.00  0.00    -0.306 OA
BRANCH  11  12
HETATM   12  C2  UNL     1      47.063   4.840  -3.143  1.00  0.00     0.060 C 
HETATM   13  C1  UNL     1      45.981   5.166  -2.158  1.00  0.00     0.046 C 
HETATM   14  C3  UNL     1      47.348   3.362  -3.049  1.00  0.00     0.046 C 
HETATM   15  C4  UNL     1      46.470   5.069  -4.541  1.00  0.00     0.046 C 
ENDBRANCH  11  12
ENDBRANCH   9  11
ENDBRANCH   6   9
BRANCH   7  16
HETATM   16  O4  UNL     1      49.100   3.646  -0.031  1.00  0.00    -0.290 OA
ATOM     17  H4  UNL     1      49.844   3.162   0.306  1.00  0.00     0.244 HD
ENDBRANCH   7  16
ENDBRANCH   5   6
ENDBRANCH   4   5
ENDBRANCH   3   4
ENDBRANCH   2   3
ENDBRANCH   1   2
BRANCH   1  18
HETATM   18  C12 UNL     1      48.030  10.443  -3.616  1.00  0.00     0.065 C 
BRANCH  18  19
HETATM   19  C13 UNL     1      47.393  10.091  -4.897  1.00  0.00     0.020 C 
HETATM   20  C14 UNL     1      46.973   8.688  -5.149  1.00  0.00     0.007 C 
HETATM   21  C15 UNL     1      46.008   8.726  -6.332  1.00  0.00     0.001 C 
HETATM   22  C16 UNL     1      46.591   9.345  -7.554  1.00  0.00     0.002 C 
HETATM   23  C17 UNL     1      47.328  10.636  -7.271  1.00  0.00     0.032 C 
HETATM   24  C18 UNL     1      48.260  10.491  -6.093  1.00  0.00     0.122 C 
BRANCH  24  25
HETATM   25  O3  UNL     1      48.926  11.676  -5.883  1.00  0.00    -0.395 OA
ATOM     26  H3  UNL     1      49.354  11.704  -5.035  1.00  0.00     0.210 HD
ENDBRANCH  24  25
ENDBRANCH  18  19
ENDBRANCH   1  18
BRANCH   1  27
HETATM   27  N1  UNL     1      46.825  11.034  -1.716  1.00  0.00    -0.291 N 
ATOM     28  H1  UNL     1      45.816  11.180  -1.678  1.00  0.00     0.187 HD
BRANCH  27  29
HETATM   29  N2  UNL     1      47.629  11.905  -1.031  1.00  0.00    -0.132 N 
ATOM     30  H2  UNL     1      47.802  12.847  -1.382  1.00  0.00     0.205 HD
BRANCH  29  31
HETATM   31  C19 UNL     1      48.160  11.497   0.068  1.00  0.00     0.696 A 
HETATM   32  N3  UNL     1      47.530  11.720   1.245  1.00  0.00    -0.200 N 
HETATM   33  C20 UNL     1      48.041  11.314   2.419  1.00  0.00     0.107 A 
ATOM     34  H3  UNL     1      46.637  12.213   1.240  1.00  0.00     0.183 HD
HETATM   35  C21 UNL     1      49.246  10.646   2.467  1.00  0.00     0.035 A 
HETATM   36  C22 UNL     1      49.892  10.414   1.269  1.00  0.00     0.107 A 
HETATM   37  N4  UNL     1      49.332  10.844   0.120  1.00  0.00    -0.200 N 
ATOM     38  H4  UNL     1      49.825  10.664  -0.755  1.00  0.00     0.183 HD
ENDBRANCH  29  31
ENDBRANCH  27  29
ENDBRANCH   1  27
TORSDOF 15
ENDMDL
MODEL 2
REMARK VINA RESULT: -7.711991193      1.161      1.778
REMARK  15 active torsions:
REMARK  status: ('A' for Active; 'I' for Inactive)
REMARK    1  A    between atoms: C2_2  and  O1_5 
REMARK    2  A    between atoms: O1_5  and  C5_6 
REMARK    3  A    between atoms: C5_6  and  C6_8 
REMARK    4  A    between atoms: C6_8  and  C7_9 
REMARK    5  A    between atoms: C7_9  and  C8_10 
REMARK    6  A    between atoms: C8_10  and  C9_11 
REMARK    7  A    between atoms: C9_11  and  C10_12 
REMARK    8  A    between atoms: C10_12  and  C11_13 
REMARK    9  A    between atoms: C11_13  and  C12_14 
REMARK   10  A    between atoms: C11_13  and  N1_23 
REMARK   11  A    between atoms: C12_14  and  C13_15 
REMARK   12  A    between atoms: C18_20  and  O3_21 
REMARK   13  A    between atoms: N1_23  and  N2_25 
REMARK   14  A    between atoms: N2_25  and  C19_27 
REMARK   15  A    between atoms: N5_35  and  O4_37 
ROOT
HETATM    1  C11 UNL     1      47.279   9.888  -2.492  1.00  0.00     0.023 C 
ENDROOT
BRANCH   1   2
HETATM    2  C10 UNL     1      46.887   8.554  -2.138  1.00  0.00    -0.000 C 
BRANCH   2   3
HETATM    3  C9  UNL     1      47.570   7.758  -1.122  1.00  0.00     0.029 C 
BRANCH   3   4
HETATM    4  C8  UNL     1      48.892   7.148  -1.386  1.00  0.00     0.010 C 
BRANCH   4   5
HETATM    5  C7  UNL     1      49.009   5.730  -0.989  1.00  0.00     0.066 C 
BRANCH   5   6
HETATM    6  C6  UNL     1      49.180   4.860  -2.199  1.00  0.00     0.106 C 
HETATM    7  N5  UNL     1      50.309   4.862  -2.784  1.00  0.00    -0.267 N 
ATOM      8  H5  UNL     1      51.069   5.449  -2.441  1.00  0.00     0.194 HD
BRANCH   6   9
HETATM    9  C5  UNL     1      48.096   4.050  -2.655  1.00  0.00     0.308 C 
HETATM   10  O2  UNL     1      47.396   3.309  -1.930  1.00  0.00    -0.258 OA
BRANCH   9  11
HETATM   11  O1  UNL     1      47.758   4.056  -4.011  1.00  0.00    -0.306 OA
BRANCH  11  12
HETATM   12  C2  UNL     1      46.486   4.425  -4.416  1.00  0.00     0.060 C 
HETATM   13  C1  UNL     1      45.845   5.470  -3.555  1.00  0.00     0.046 C 
HETATM   14  C3  UNL     1      45.519   3.276  -4.551  1.00  0.00     0.046 C 
HETATM   15  C4  UNL     1      46.619   5.033  -5.820  1.00  0.00     0.046 C 
ENDBRANCH  11  12
ENDBRANCH   9  11
ENDBRANCH   6   9
BRANCH   7  16
HETATM   16  O4  UNL     1      50.491   4.062  -3.884  1.00  0.00    -0.290 OA
ATOM     17  H4  UNL     1      50.883   3.204  -3.771  1.00  0.00     0.244 HD
ENDBRANCH   7  16
ENDBRANCH   5   6
ENDBRANCH   4   5
ENDBRANCH   3   4
ENDBRANCH   2   3
ENDBRANCH   1   2
BRANCH   1  18
HETATM   18  C12 UNL     1      47.978  10.418  -3.666  1.00  0.00     0.065 C 
BRANCH  18  19
HETATM   19  C13 UNL     1      47.354  10.067  -4.952  1.00  0.00     0.020 C 
HETATM   20  C14 UNL     1      46.935   8.664  -5.207  1.00  0.00     0.007 C 
HETATM   21  C15 UNL     1      45.982   8.702  -6.401  1.00  0.00     0.001 C 
HETATM   22  C16 UNL     1      46.578   9.320  -7.617  1.00  0.00     0.002 C 
HETATM   23  C17 UNL     1      47.313  10.610  -7.328  1.00  0.00     0.032 C 
HETATM   24  C18 UNL     1      48.234  10.465  -6.141  1.00  0.00     0.122 C 
BRANCH  24  25
HETATM   25  O3  UNL     1      48.898  11.650  -5.924  1.00  0.00    -0.395 OA
ATOM     26  H3  UNL     1      48.677  12.311  -6.570  1.00  0.00     0.210 HD
ENDBRANCH  24  25
ENDBRANCH  18  19
ENDBRANCH   1  18
BRANCH   1  27
HETATM   27  N1  UNL     1      46.925  10.857  -1.638  1.00  0.00    -0.291 N 
ATOM     28  H1  UNL     1      45.932  11.055  -1.522  1.00  0.00     0.187 HD
BRANCH  27  29
HETATM   29  N2  UNL     1      47.820  11.596  -0.912  1.00  0.00    -0.132 N 
ATOM     30  H2  UNL     1      47.854  12.612  -0.996  1.00  0.00     0.205 HD
BRANCH  29  31
HETATM   31  C19 UNL     1      48.617  10.968  -0.120  1.00  0.00     0.696 A 
HETATM   32  N3  UNL     1      49.874  10.669  -0.525  1.00  0.00    -0.200 N 
HETATM   33  C20 UNL     1      50.743  10.016   0.263  1.00  0.00     0.107 A 
ATOM     34  H3  UNL     1      50.170  10.949  -1.460  1.00  0.00     0.183 HD
HETATM   35  C21 UNL     1      50.381   9.620   1.533  1.00  0.00     0.035 A 
HETATM   36  C22 UNL     1      49.100   9.923   1.951  1.00  0.00     0.107 A 
HETATM   37  N4  UNL     1      48.269  10.580   1.117  1.00  0.00    -0.200 N 
ATOM     38  H4  UNL     1      47.327  10.795   1.444  1.00  0.00     0.183 HD
ENDBRANCH  29  31
ENDBRANCH  27  29
ENDBRANCH   1  27
TORSDOF 15
ENDMDL
MODEL 3
REMARK VINA RESULT: -7.635643713      1.156      1.907
REMARK  15 active torsions:
REMARK  status: ('A' for Active; 'I' for Inactive)
REMARK    1  A    between atoms: C2_2  and  O1_5 
REMARK    2  A    between atoms: O1_5  and  C5_6 
REMARK    3  A    between atoms: C5_6  and  C6_8 
REMARK    4  A    between atoms: C6_8  and  C7_9 
REMARK    5  A    between atoms: C7_9  and  C8_10 
REMARK    6  A    between atoms: C8_10  and  C9_11 
REMARK    7  A    between atoms: C9_11  and  C10_12 
REMARK    8  A    between atoms: C10_12  and  C11_13 
REMARK    9  A    between atoms: C11_13  and  C12_14 
REMARK   10  A    between atoms: C11_13  and  N1_23 
REMARK   11  A    between atoms: C12_14  and  C13_15 
REMARK   12  A    between atoms: C18_20  and  O3_21 
REMARK   13  A    between atoms: N1_23  and  N2_25 
REMARK   14  A    between atoms: N2_25  and  C19_27 
REMARK   15  A    between atoms: N5_35  and  O4_37 
ROOT
HETATM    1  C11 UNL     1      47.271   9.992  -2.420  1.00  0.00     0.023 C 
ENDROOT
BRANCH   1   2
HETATM    2  C10 UNL     1      46.869   8.694  -1.959  1.00  0.00    -0.000 C 
BRANCH   2   3
HETATM    3  C9  UNL     1      47.656   7.895  -1.024  1.00  0.00     0.029 C 
BRANCH   3   4
HETATM    4  C8  UNL     1      48.912   7.235  -1.447  1.00  0.00     0.010 C 
BRANCH   4   5
HETATM    5  C7  UNL     1      48.994   5.797  -1.120  1.00  0.00     0.066 C 
BRANCH   5   6
HETATM    6  C6  UNL     1      49.189   4.987  -2.368  1.00  0.00     0.106 C 
HETATM    7  N5  UNL     1      50.377   4.795  -2.780  1.00  0.00    -0.267 N 
ATOM      8  H5  UNL     1      51.170   5.194  -2.277  1.00  0.00     0.194 HD
BRANCH   6   9
HETATM    9  C5  UNL     1      48.058   4.444  -3.050  1.00  0.00     0.308 C 
HETATM   10  O2  UNL     1      47.909   4.420  -4.293  1.00  0.00    -0.258 OA
BRANCH   9  11
HETATM   11  O1  UNL     1      47.012   3.886  -2.310  1.00  0.00    -0.306 OA
BRANCH  11  12
HETATM   12  C2  UNL     1      45.741   4.433  -2.368  1.00  0.00     0.060 C 
HETATM   13  C1  UNL     1      44.673   3.466  -2.782  1.00  0.00     0.046 C 
HETATM   14  C3  UNL     1      45.630   5.654  -3.247  1.00  0.00     0.046 C 
HETATM   15  C4  UNL     1      45.386   4.900  -0.949  1.00  0.00     0.046 C 
ENDBRANCH  11  12
ENDBRANCH   9  11
ENDBRANCH   6   9
BRANCH   7  16
HETATM   16  O4  UNL     1      50.577   4.045  -3.910  1.00  0.00    -0.290 OA
ATOM     17  H4  UNL     1      50.624   3.099  -3.834  1.00  0.00     0.244 HD
ENDBRANCH   7  16
ENDBRANCH   5   6
ENDBRANCH   4   5
ENDBRANCH   3   4
ENDBRANCH   2   3
ENDBRANCH   1   2
BRANCH   1  18
HETATM   18  C12 UNL     1      48.001  10.417  -3.618  1.00  0.00     0.065 C 
BRANCH  18  19
HETATM   19  C13 UNL     1      47.351  10.049  -4.886  1.00  0.00     0.020 C 
HETATM   20  C14 UNL     1      46.917   8.645  -5.110  1.00  0.00     0.007 C 
HETATM   21  C15 UNL     1      45.942   8.670  -6.286  1.00  0.00     0.001 C 
HETATM   22  C16 UNL     1      46.520   9.262  -7.523  1.00  0.00     0.002 C 
HETATM   23  C17 UNL     1      47.270  10.552  -7.270  1.00  0.00     0.032 C 
HETATM   24  C18 UNL     1      48.211  10.420  -6.097  1.00  0.00     0.122 C 
BRANCH  24  25
HETATM   25  O3  UNL     1      48.889  11.602  -5.914  1.00  0.00    -0.395 OA
ATOM     26  H3  UNL     1      49.743  11.598  -6.331  1.00  0.00     0.210 HD
ENDBRANCH  24  25
ENDBRANCH  18  19
ENDBRANCH   1  18
BRANCH   1  27
HETATM   27  N1  UNL     1      46.894  11.033  -1.666  1.00  0.00    -0.291 N 
ATOM     28  H1  UNL     1      45.905  11.281  -1.651  1.00  0.00     0.187 HD
BRANCH  27  29
HETATM   29  N2  UNL     1      47.760  11.783  -0.917  1.00  0.00    -0.132 N 
ATOM     30  H2  UNL     1      47.812  12.796  -1.029  1.00  0.00     0.205 HD
BRANCH  29  31
HETATM   31  C19 UNL     1      48.506  11.169  -0.066  1.00  0.00     0.696 A 
HETATM   32  N3  UNL     1      49.759  10.796  -0.414  1.00  0.00    -0.200 N 
HETATM   33  C20 UNL     1      50.577  10.155   0.437  1.00  0.00     0.107 A 
ATOM     34  H3  UNL     1      50.094  11.009  -1.353  1.00  0.00     0.183 HD
HETATM   35  C21 UNL     1      50.161   9.848   1.715  1.00  0.00     0.035 A 
HETATM   36  C22 UNL     1      48.883  10.227   2.075  1.00  0.00     0.107 A 
HETATM   37  N4  UNL     1      48.105  10.869   1.180  1.00  0.00    -0.200 N 
ATOM     38  H4  UNL     1      47.164  11.141   1.465  1.00  0.00     0.183 HD
ENDBRANCH  29  31
ENDBRANCH  27  29
ENDBRANCH   1  27
TORSDOF 15
ENDMDL
MODEL 4
REMARK VINA RESULT: -7.488948778      2.708      5.807
REMARK  15 active torsions:
REMARK  status: ('A' for Active; 'I' for Inactive)
REMARK    1  A    between atoms: C2_2  and  O1_5 
REMARK    2  A    between atoms: O1_5  and  C5_6 
REMARK    3  A    between atoms: C5_6  and  C6_8 
REMARK    4  A    between atoms: C6_8  and  C7_9 
REMARK    5  A    between atoms: C7_9  and  C8_10 
REMARK    6  A    between atoms: C8_10  and  C9_11 
REMARK    7  A    between atoms: C9_11  and  C10_12 
REMARK    8  A    between atoms: C10_12  and  C11_13 
REMARK    9  A    between atoms: C11_13  and  C12_14 
REMARK   10  A    between atoms: C11_13  and  N1_23 
REMARK   11  A    between atoms: C12_14  and  C13_15 
REMARK   12  A    between atoms: C18_20  and  O3_21 
REMARK   13  A    between atoms: N1_23  and  N2_25 
REMARK   14  A    between atoms: N2_25  and  C19_27 
REMARK   15  A    between atoms: N5_35  and  O4_37 
ROOT
HETATM    1  C11 UNL     1      47.420   9.366  -3.036  1.00  0.00     0.023 C 
ENDROOT
BRANCH   1   2
HETATM    2  C10 UNL     1      47.111   9.636  -4.411  1.00  0.00    -0.000 C 
BRANCH   2   3
HETATM    3  C9  UNL     1      47.909  10.522  -5.255  1.00  0.00     0.029 C 
BRANCH   3   4
HETATM    4  C8  UNL     1      47.812  10.468  -6.730  1.00  0.00     0.010 C 
BRANCH   4   5
HETATM    5  C7  UNL     1      47.713   9.106  -7.294  1.00  0.00     0.066 C 
BRANCH   5   6
HETATM    6  C6  UNL     1      46.570   9.021  -8.262  1.00  0.00     0.106 C 
HETATM    7  N5  UNL     1      46.559   9.824  -9.249  1.00  0.00    -0.267 N 
ATOM      8  H5  UNL     1      47.304  10.511  -9.365  1.00  0.00     0.194 HD
BRANCH   6   9
HETATM    9  C5  UNL     1      45.541   8.050  -8.070  1.00  0.00     0.308 C 
HETATM   10  O2  UNL     1      45.014   7.369  -8.978  1.00  0.00    -0.258 OA
BRANCH   9  11
HETATM   11  O1  UNL     1      45.055   7.810  -6.782  1.00  0.00    -0.306 OA
BRANCH  11  12
HETATM   12  C2  UNL     1      45.160   6.552  -6.214  1.00  0.00     0.060 C 
HETATM   13  C1  UNL     1      46.525   5.942  -6.316  1.00  0.00     0.046 C 
HETATM   14  C3  UNL     1      44.163   5.549  -6.738  1.00  0.00     0.046 C 
HETATM   15  C4  UNL     1      44.857   6.706  -4.716  1.00  0.00     0.046 C 
ENDBRANCH  11  12
ENDBRANCH   9  11
ENDBRANCH   6   9
BRANCH   7  16
HETATM   16  O4  UNL     1      45.531   9.753 -10.153  1.00  0.00    -0.290 OA
ATOM     17  H4  UNL     1      45.545   9.074 -10.816  1.00  0.00     0.244 HD
ENDBRANCH   7  16
ENDBRANCH   5   6
ENDBRANCH   4   5
ENDBRANCH   3   4
ENDBRANCH   2   3
ENDBRANCH   1   2
BRANCH   1  18
HETATM   18  C12 UNL     1      46.966   8.311  -2.125  1.00  0.00     0.065 C 
BRANCH  18  19
HETATM   19  C13 UNL     1      47.965   7.258  -1.874  1.00  0.00     0.020 C 
HETATM   20  C14 UNL     1      47.979   6.041  -2.726  1.00  0.00     0.007 C 
HETATM   21  C15 UNL     1      49.331   5.366  -2.501  1.00  0.00     0.001 C 
HETATM   22  C16 UNL     1      49.599   5.033  -1.075  1.00  0.00     0.002 C 
HETATM   23  C17 UNL     1      49.271   6.168  -0.129  1.00  0.00     0.032 C 
HETATM   24  C18 UNL     1      47.915   6.759  -0.427  1.00  0.00     0.122 C 
BRANCH  24  25
HETATM   25  O3  UNL     1      47.645   7.769   0.465  1.00  0.00    -0.395 OA
ATOM     26  H3  UNL     1      46.865   7.597   0.980  1.00  0.00     0.210 HD
ENDBRANCH  24  25
ENDBRANCH  18  19
ENDBRANCH   1  18
BRANCH   1  27
HETATM   27  N1  UNL     1      48.310  10.181  -2.456  1.00  0.00    -0.291 N 
ATOM     28  H1  UNL     1      49.295  10.062  -2.692  1.00  0.00     0.187 HD
BRANCH  27  29
HETATM   29  N2  UNL     1      47.974  11.165  -1.565  1.00  0.00    -0.132 N 
ATOM     30  H2  UNL     1      47.431  11.978  -1.858  1.00  0.00     0.205 HD
BRANCH  29  31
HETATM   31  C19 UNL     1      48.365  11.032  -0.346  1.00  0.00     0.696 A 
HETATM   32  N3  UNL     1      47.632  11.565   0.660  1.00  0.00    -0.200 N 
HETATM   33  C20 UNL     1      47.997  11.452   1.947  1.00  0.00     0.107 A 
ATOM     34  H3  UNL     1      46.775  12.067   0.432  1.00  0.00     0.183 HD
HETATM   35  C21 UNL     1      49.149  10.781   2.296  1.00  0.00     0.035 A 
HETATM   36  C22 UNL     1      49.900  10.235   1.274  1.00  0.00     0.107 A 
HETATM   37  N4  UNL     1      49.486  10.378  -0.002  1.00  0.00    -0.200 N 
ATOM     38  H4  UNL     1      50.055   9.968  -0.743  1.00  0.00     0.183 HD
ENDBRANCH  29  31
ENDBRANCH  27  29
ENDBRANCH   1  27
TORSDOF 15
ENDMDL
MODEL 5
REMARK VINA RESULT: -7.479254950      1.296      1.723
REMARK  15 active torsions:
REMARK  status: ('A' for Active; 'I' for Inactive)
REMARK    1  A    between atoms: C2_2  and  O1_5 
REMARK    2  A    between atoms: O1_5  and  C5_6 
REMARK    3  A    between atoms: C5_6  and  C6_8 
REMARK    4  A    between atoms: C6_8  and  C7_9 
REMARK    5  A    between atoms: C7_9  and  C8_10 
REMARK    6  A    between atoms: C8_10  and  C9_11 
REMARK    7  A    between atoms: C9_11  and  C10_12 
REMARK    8  A    between atoms: C10_12  and  C11_13 
REMARK    9  A    between atoms: C11_13  and  C12_14 
REMARK   10  A    between atoms: C11_13  and  N1_23 
REMARK   11  A    between atoms: C12_14  and  C13_15 
REMARK   12  A    between atoms: C18_20  and  O3_21 
REMARK   13  A    between atoms: N1_23  and  N2_25 
REMARK   14  A    between atoms: N2_25  and  C19_27 
REMARK   15  A    between atoms: N5_35  and  O4_37 
ROOT
HETATM    1  C11 UNL     1      47.361   9.787  -2.586  1.00  0.00     0.023 C 
ENDROOT
BRANCH   1   2
HETATM    2  C10 UNL     1      47.127   8.419  -2.225  1.00  0.00    -0.000 C 
BRANCH   2   3
HETATM    3  C9  UNL     1      48.197   7.442  -2.039  1.00  0.00     0.029 C 
BRANCH   3   4
HETATM    4  C8  UNL     1      48.770   7.177  -0.701  1.00  0.00     0.010 C 
BRANCH   4   5
HETATM    5  C7  UNL     1      47.796   6.713   0.308  1.00  0.00     0.066 C 
BRANCH   5   6
HETATM    6  C6  UNL     1      47.569   5.236   0.176  1.00  0.00     0.106 C 
HETATM    7  N5  UNL     1      48.561   4.459   0.344  1.00  0.00    -0.267 N 
ATOM      8  H5  UNL     1      49.486   4.837   0.552  1.00  0.00     0.194 HD
BRANCH   6   9
HETATM    9  C5  UNL     1      46.263   4.737  -0.118  1.00  0.00     0.308 C 
HETATM   10  O2  UNL     1      45.683   3.822   0.508  1.00  0.00    -0.258 OA
BRANCH   9  11
HETATM   11  O1  UNL     1      45.542   5.286  -1.182  1.00  0.00    -0.306 OA
BRANCH  11  12
HETATM   12  C2  UNL     1      45.484   4.634  -2.402  1.00  0.00     0.060 C 
HETATM   13  C1  UNL     1      44.436   3.565  -2.479  1.00  0.00     0.046 C 
HETATM   14  C3  UNL     1      46.794   4.034  -2.849  1.00  0.00     0.046 C 
HETATM   15  C4  UNL     1      45.118   5.686  -3.459  1.00  0.00     0.046 C 
ENDBRANCH  11  12
ENDBRANCH   9  11
ENDBRANCH   6   9
BRANCH   7  16
HETATM   16  O4  UNL     1      48.372   3.105   0.242  1.00  0.00    -0.290 OA
ATOM     17  H4  UNL     1      48.597   2.550   0.980  1.00  0.00     0.244 HD
ENDBRANCH   7  16
ENDBRANCH   5   6
ENDBRANCH   4   5
ENDBRANCH   3   4
ENDBRANCH   2   3
ENDBRANCH   1   2
BRANCH   1  18
HETATM   18  C12 UNL     1      47.982  10.389  -3.771  1.00  0.00     0.065 C 
BRANCH  18  19
HETATM   19  C13 UNL     1      47.327  10.035  -5.042  1.00  0.00     0.020 C 
HETATM   20  C14 UNL     1      46.920   8.629  -5.293  1.00  0.00     0.007 C 
HETATM   21  C15 UNL     1      45.935   8.660  -6.461  1.00  0.00     0.001 C 
HETATM   22  C16 UNL     1      46.491   9.292  -7.689  1.00  0.00     0.002 C 
HETATM   23  C17 UNL     1      47.217  10.590  -7.412  1.00  0.00     0.032 C 
HETATM   24  C18 UNL     1      48.170  10.451  -6.251  1.00  0.00     0.122 C 
BRANCH  24  25
HETATM   25  O3  UNL     1      48.825  11.643  -6.046  1.00  0.00    -0.395 OA
ATOM     26  H3  UNL     1      49.308  11.926  -6.815  1.00  0.00     0.210 HD
ENDBRANCH  24  25
ENDBRANCH  18  19
ENDBRANCH   1  18
BRANCH   1  27
HETATM   27  N1  UNL     1      46.911  10.713  -1.731  1.00  0.00    -0.291 N 
ATOM     28  H1  UNL     1      45.902  10.827  -1.634  1.00  0.00     0.187 HD
BRANCH  27  29
HETATM   29  N2  UNL     1      47.726  11.516  -0.979  1.00  0.00    -0.132 N 
ATOM     30  H2  UNL     1      47.671  12.532  -1.046  1.00  0.00     0.205 HD
BRANCH  29  31
HETATM   31  C19 UNL     1      48.563  10.947  -0.184  1.00  0.00     0.696 A 
HETATM   32  N3  UNL     1      48.150  10.501   1.025  1.00  0.00    -0.200 N 
HETATM   33  C20 UNL     1      48.985   9.901   1.889  1.00  0.00     0.107 A 
ATOM     34  H3  UNL     1      47.173  10.625   1.288  1.00  0.00     0.183 HD
HETATM   35  C21 UNL     1      50.313   9.715   1.571  1.00  0.00     0.035 A 
HETATM   36  C22 UNL     1      50.739  10.167   0.339  1.00  0.00     0.107 A 
HETATM   37  N4  UNL     1      49.858  10.763  -0.490  1.00  0.00    -0.200 N 
ATOM     38  H4  UNL     1      50.193  11.091  -1.397  1.00  0.00     0.183 HD
ENDBRANCH  29  31
ENDBRANCH  27  29
ENDBRANCH   1  27
TORSDOF 15
ENDMDL
