MODEL 1
REMARK VINA RESULT: -5.010979729      0.000      0.000
REMARK  3 active torsions:
REMARK  status: ('A' for Active; 'I' for Inactive)
REMARK    1  A    between atoms: C2_3  and  O1_4 
REMARK    2  A    between atoms: C3_6  and  C4_7 
REMARK    3  A    between atoms: C4_7  and  O2_8 
ROOT
HETATM    1  C1  UNL     1      -2.575   4.134  12.402  1.00  0.00     0.320 C 
HETATM    2  N1  UNL     1      -3.253   2.951  11.964  1.00  0.00     0.177 N 
HETATM    3  C2  UNL     1      -4.370   3.187  11.037  1.00  0.00     0.376 C 
HETATM    4  C3  UNL     1      -5.012   1.945  11.672  1.00  0.00     0.165 C 
HETATM    5  C5  UNL     1      -4.265   2.450  12.895  1.00  0.00     0.386 C 
HETATM    6  O3  UNL     1      -4.862   3.470  13.584  1.00  0.00    -0.328 OA
HETATM    7  C6  UNL     1      -5.447   2.908  14.714  1.00  0.00     0.199 C 
HETATM    8  C7  UNL     1      -4.870   1.522  14.745  1.00  0.00     0.199 C 
HETATM    9  O4  UNL     1      -3.845   1.496  13.776  1.00  0.00    -0.328 OA
ENDROOT
BRANCH   4  10
HETATM   10  C4  UNL     1      -4.468   0.669  11.126  1.00  0.00     0.180 C 
BRANCH  10  11
HETATM   11  O2  UNL     1      -5.110   0.240   9.984  1.00  0.00    -0.400 OA
ATOM     12  H2  UNL     1      -4.650  -0.455   9.529  1.00  0.00     0.209 HD
ENDBRANCH  10  11
ENDBRANCH   4  10
BRANCH   3  13
HETATM   13  O1  UNL     1      -4.049   3.057   9.710  1.00  0.00    -0.367 OA
ATOM     14  H1  UNL     1      -3.949   2.161   9.413  1.00  0.00     0.212 HD
ENDBRANCH   3  13
TORSDOF 3
ENDMDL
MODEL 2
REMARK VINA RESULT: -4.956936713      2.049      3.943
REMARK  3 active torsions:
REMARK  status: ('A' for Active; 'I' for Inactive)
REMARK    1  A    between atoms: C2_3  and  O1_4 
REMARK    2  A    between atoms: C3_6  and  C4_7 
REMARK    3  A    between atoms: C4_7  and  O2_8 
ROOT
HETATM    1  C1  UNL     1      -3.302  -0.184  10.920  1.00  0.00     0.320 C 
HETATM    2  N1  UNL     1      -3.592   1.104  11.475  1.00  0.00     0.177 N 
HETATM    3  C2  UNL     1      -4.559   1.904  10.709  1.00  0.00     0.376 C 
HETATM    4  C3  UNL     1      -3.777   3.126  11.214  1.00  0.00     0.165 C 
HETATM    5  C5  UNL     1      -2.619   2.144  11.141  1.00  0.00     0.386 C 
HETATM    6  O3  UNL     1      -2.079   1.945   9.900  1.00  0.00    -0.328 OA
HETATM    7  C6  UNL     1      -0.895   2.672   9.853  1.00  0.00     0.199 C 
HETATM    8  C7  UNL     1      -0.674   3.062  11.286  1.00  0.00     0.199 C 
HETATM    9  O4  UNL     1      -1.615   2.335  12.045  1.00  0.00    -0.328 OA
ENDROOT
BRANCH   4  10
HETATM   10  C4  UNL     1      -4.143   3.514  12.606  1.00  0.00     0.180 C 
BRANCH  10  11
HETATM   11  O2  UNL     1      -5.181   4.418  12.671  1.00  0.00    -0.400 OA
ATOM     12  H2  UNL     1      -4.918   5.312  12.489  1.00  0.00     0.209 HD
ENDBRANCH  10  11
ENDBRANCH   4  10
BRANCH   3  13
HETATM   13  O1  UNL     1      -5.853   1.821  11.157  1.00  0.00    -0.367 OA
ATOM     14  H1  UNL     1      -5.995   2.179  12.025  1.00  0.00     0.212 HD
ENDBRANCH   3  13
TORSDOF 3
ENDMDL
MODEL 3
REMARK VINA RESULT: -4.916347804      1.502      2.103
REMARK  3 active torsions:
REMARK  status: ('A' for Active; 'I' for Inactive)
REMARK    1  A    between atoms: C2_3  and  O1_4 
REMARK    2  A    between atoms: C3_6  and  C4_7 
REMARK    3  A    between atoms: C4_7  and  O2_8 
ROOT
HETATM    1  C1  UNL     1      -3.006   3.737  10.302  1.00  0.00     0.320 C 
HETATM    2  N1  UNL     1      -3.437   2.684  11.171  1.00  0.00     0.177 N 
HETATM    3  C2  UNL     1      -4.743   2.100  10.834  1.00  0.00     0.376 C 
HETATM    4  C3  UNL     1      -4.903   1.867  12.343  1.00  0.00     0.165 C 
HETATM    5  C5  UNL     1      -4.073   3.138  12.408  1.00  0.00     0.386 C 
HETATM    6  O3  UNL     1      -4.755   4.309  12.221  1.00  0.00    -0.328 OA
HETATM    7  C6  UNL     1      -4.931   4.880  13.477  1.00  0.00     0.199 C 
HETATM    8  C7  UNL     1      -4.027   4.064  14.355  1.00  0.00     0.199 C 
HETATM    9  O4  UNL     1      -3.252   3.262  13.491  1.00  0.00    -0.328 OA
ENDROOT
BRANCH   4  10
HETATM   10  C4  UNL     1      -4.177   0.656  12.822  1.00  0.00     0.180 C 
BRANCH  10  11
HETATM   11  O2  UNL     1      -4.384   0.382  14.157  1.00  0.00    -0.400 OA
ATOM     12  H2  UNL     1      -5.286   0.171  14.366  1.00  0.00     0.209 HD
ENDBRANCH  10  11
ENDBRANCH   4  10
BRANCH   3  13
HETATM   13  O1  UNL     1      -4.680   0.958  10.076  1.00  0.00    -0.367 OA
ATOM     14  H1  UNL     1      -4.479   0.169  10.565  1.00  0.00     0.212 HD
ENDBRANCH   3  13
TORSDOF 3
ENDMDL
MODEL 4
REMARK VINA RESULT: -4.907188607      1.383      3.151
REMARK  3 active torsions:
REMARK  status: ('A' for Active; 'I' for Inactive)
REMARK    1  A    between atoms: C2_3  and  O1_4 
REMARK    2  A    between atoms: C3_6  and  C4_7 
REMARK    3  A    between atoms: C4_7  and  O2_8 
ROOT
HETATM    1  C1  UNL     1      -5.212   2.910  14.254  1.00  0.00     0.320 C 
HETATM    2  N1  UNL     1      -5.041   1.985  13.174  1.00  0.00     0.177 N 
HETATM    3  C2  UNL     1      -4.079   0.903  13.434  1.00  0.00     0.376 C 
HETATM    4  C3  UNL     1      -3.783   0.956  11.928  1.00  0.00     0.165 C 
HETATM    5  C5  UNL     1      -4.110   2.426  12.136  1.00  0.00     0.386 C 
HETATM    6  O3  UNL     1      -3.105   3.195  12.657  1.00  0.00    -0.328 OA
HETATM    7  C6  UNL     1      -2.557   3.916  11.602  1.00  0.00     0.199 C 
HETATM    8  C7  UNL     1      -3.542   3.698  10.490  1.00  0.00     0.199 C 
HETATM    9  O4  UNL     1      -4.665   3.072  11.071  1.00  0.00    -0.328 OA
ENDROOT
BRANCH   4  10
HETATM   10  C4  UNL     1      -4.798   0.231  11.112  1.00  0.00     0.180 C 
BRANCH  10  11
HETATM   11  O2  UNL     1      -4.604   0.356   9.753  1.00  0.00    -0.400 OA
ATOM     12  H2  UNL     1      -5.131  -0.242   9.238  1.00  0.00     0.209 HD
ENDBRANCH  10  11
ENDBRANCH   4  10
BRANCH   3  13
HETATM   13  O1  UNL     1      -4.641  -0.270  13.871  1.00  0.00    -0.367 OA
ATOM     14  H1  UNL     1      -4.150  -1.051  13.648  1.00  0.00     0.212 HD
ENDBRANCH   3  13
TORSDOF 3
ENDMDL
MODEL 5
REMARK VINA RESULT: -4.874863222      1.132      1.264
REMARK  3 active torsions:
REMARK  status: ('A' for Active; 'I' for Inactive)
REMARK    1  A    between atoms: C2_3  and  O1_4 
REMARK    2  A    between atoms: C3_6  and  C4_7 
REMARK    3  A    between atoms: C4_7  and  O2_8 
ROOT
HETATM    1  C1  UNL     1      -3.044   4.749  12.416  1.00  0.00     0.320 C 
HETATM    2  N1  UNL     1      -3.386   3.360  12.349  1.00  0.00     0.177 N 
HETATM    3  C2  UNL     1      -4.256   2.992  11.222  1.00  0.00     0.376 C 
HETATM    4  C3  UNL     1      -4.824   1.916  12.159  1.00  0.00     0.165 C 
HETATM    5  C5  UNL     1      -4.503   2.966  13.209  1.00  0.00     0.386 C 
HETATM    6  O3  UNL     1      -5.414   3.979  13.342  1.00  0.00    -0.328 OA
HETATM    7  C6  UNL     1      -6.165   3.701  14.479  1.00  0.00     0.199 C 
HETATM    8  C7  UNL     1      -5.395   2.591  15.135  1.00  0.00     0.199 C 
HETATM    9  O4  UNL     1      -4.169   2.495  14.444  1.00  0.00    -0.328 OA
ENDROOT
BRANCH   4  10
HETATM   10  C4  UNL     1      -3.959   0.705  12.243  1.00  0.00     0.180 C 
BRANCH  10  11
HETATM   11  O2  UNL     1      -4.450  -0.266  13.090  1.00  0.00    -0.400 OA
ATOM     12  H2  UNL     1      -3.939  -1.066  13.086  1.00  0.00     0.209 HD
ENDBRANCH  10  11
ENDBRANCH   4  10
BRANCH   3  13
HETATM   13  O1  UNL     1      -3.594   2.509  10.122  1.00  0.00    -0.367 OA
ATOM     14  H1  UNL     1      -4.151   2.311   9.380  1.00  0.00     0.212 HD
ENDBRANCH   3  13
TORSDOF 3
ENDMDL
