MODEL 1
REMARK VINA RESULT: -5.446541928      0.000      0.000
REMARK  8 active torsions:
REMARK  status: ('A' for Active; 'I' for Inactive)
REMARK    1  A    between atoms: N1_1  and  N2_4 
REMARK    2  A    between atoms: N2_4  and  C1_6 
REMARK    3  A    between atoms: C3_11  and  O1_12 
REMARK    4  A    between atoms: O1_12  and  C4_13 
REMARK    5  A    between atoms: C4_13  and  O2_14 
REMARK    6  A    between atoms: C4_13  and  C5_16 
REMARK    7  A    between atoms: C7_18  and  C8_19 
REMARK    8  A    between atoms: C10_24  and  N6_25 
ROOT
HETATM    1  C5  UNL     1     -65.829  -6.086  -2.811  1.00  0.00     0.067 A 
HETATM    2  C6  UNL     1     -65.750  -5.175  -3.844  1.00  0.00     0.059 A 
HETATM    3  C7  UNL     1     -65.160  -5.474  -5.047  1.00  0.00     0.054 A 
HETATM    4  N8  UNL     1     -64.658  -6.724  -5.160  1.00  0.00    -0.352 N 
ATOM      5  H8  UNL     1     -64.210  -7.001  -6.033  1.00  0.00     0.166 HD
HETATM    6  C12 UNL     1     -64.735  -7.615  -4.152  1.00  0.00     0.181 A 
HETATM    7  N9  UNL     1     -65.314  -7.303  -2.986  1.00  0.00    -0.352 N 
ATOM      8  H9  UNL     1     -65.361  -7.993  -2.236  1.00  0.00     0.166 HD
ENDROOT
BRANCH   1   9
HETATM    9  C4  UNL     1     -66.490  -5.670  -1.538  1.00  0.00     0.309 C 
BRANCH   9  10
HETATM   10  O1  UNL     1     -66.725  -4.314  -1.489  1.00  0.00    -0.342 OA
BRANCH  10  11
HETATM   11  C3  UNL     1     -67.692  -3.933  -0.585  1.00  0.00     0.211 C 
HETATM   12  C1  UNL     1     -67.020  -3.199   0.510  1.00  0.00     0.138 C 
HETATM   13  N3  UNL     1     -67.743  -2.199   0.827  1.00  0.00    -0.290 N 
HETATM   14  N4  UNL     1     -68.900  -2.125   0.051  1.00  0.00    -0.137 NA
ATOM     15  H3  UNL     1     -67.504  -1.532   1.561  1.00  0.00     0.183 HD
HETATM   16  C2  UNL     1     -68.695  -2.974  -1.107  1.00  0.00     0.175 C 
BRANCH  12  17
HETATM   17  N2  UNL     1     -65.756  -3.550   1.131  1.00  0.00    -0.293 N 
ATOM     18  H2  UNL     1     -65.744  -3.962   2.064  1.00  0.00     0.187 HD
BRANCH  17  19
HETATM   19  N1  UNL     1     -64.555  -3.324   0.452  1.00  0.00    -0.344 N 
ATOM     20  H12 UNL     1     -63.793  -2.854   0.939  1.00  0.00     0.176 HD
ATOM     21  H11 UNL     1     -64.450  -3.628  -0.517  1.00  0.00     0.176 HD
ENDBRANCH  17  19
ENDBRANCH  12  17
ENDBRANCH  10  11
ENDBRANCH   9  10
BRANCH   9  22
HETATM   22  O2  UNL     1     -65.784  -6.135  -0.432  1.00  0.00    -0.366 OA
ATOM     23  H2  UNL     1     -66.308  -6.689   0.133  1.00  0.00     0.213 HD
ENDBRANCH   9  22
ENDBRANCH   1   9
BRANCH   3  24
HETATM   24  C8  UNL     1     -65.031  -4.568  -6.204  1.00  0.00     0.237 C 
HETATM   25  N5  UNL     1     -65.409  -3.228  -5.747  1.00  0.00    -0.332 N 
HETATM   26  C9  UNL     1     -65.390  -2.203  -6.745  1.00  0.00     0.259 C 
ATOM     27  H5  UNL     1     -65.668  -3.038  -4.778  1.00  0.00     0.165 HD
HETATM   28  O3  UNL     1     -66.073  -1.168  -6.559  1.00  0.00    -0.271 OA
HETATM   29  C10 UNL     1     -64.553  -2.399  -7.981  1.00  0.00     0.365 C 
HETATM   30  C11 UNL     1     -63.502  -3.396  -7.696  1.00  0.00     0.259 C 
HETATM   31  O4  UNL     1     -62.408  -3.306  -8.312  1.00  0.00    -0.271 OA
HETATM   32  N7  UNL     1     -63.713  -4.448  -6.739  1.00  0.00    -0.332 N 
ATOM     33  H7  UNL     1     -62.961  -5.076  -6.458  1.00  0.00     0.165 HD
BRANCH  29  34
HETATM   34  N6  UNL     1     -65.422  -2.772  -9.055  1.00  0.00    -0.058 N 
ATOM     35  H63 UNL     1     -65.757  -3.732  -8.975  1.00  0.00     0.275 HD
ATOM     36  H62 UNL     1     -66.329  -2.306  -9.006  1.00  0.00     0.275 HD
ATOM     37  H61 UNL     1     -64.936  -2.596  -9.934  1.00  0.00     0.275 HD
ENDBRANCH  29  34
ENDBRANCH   3  24
TORSDOF 8
ENDMDL
MODEL 2
REMARK VINA RESULT: -5.432899865      3.294      7.789
REMARK  8 active torsions:
REMARK  status: ('A' for Active; 'I' for Inactive)
REMARK    1  A    between atoms: N1_1  and  N2_4 
REMARK    2  A    between atoms: N2_4  and  C1_6 
REMARK    3  A    between atoms: C3_11  and  O1_12 
REMARK    4  A    between atoms: O1_12  and  C4_13 
REMARK    5  A    between atoms: C4_13  and  O2_14 
REMARK    6  A    between atoms: C4_13  and  C5_16 
REMARK    7  A    between atoms: C7_18  and  C8_19 
REMARK    8  A    between atoms: C10_24  and  N6_25 
ROOT
HETATM    1  C5  UNL     1     -64.703  -7.118  -4.374  1.00  0.00     0.067 A 
HETATM    2  C6  UNL     1     -65.103  -6.739  -3.108  1.00  0.00     0.059 A 
HETATM    3  C7  UNL     1     -65.615  -5.494  -2.840  1.00  0.00     0.054 A 
HETATM    4  N8  UNL     1     -65.705  -4.656  -3.896  1.00  0.00    -0.352 N 
ATOM      5  H8  UNL     1     -66.079  -3.717  -3.753  1.00  0.00     0.166 HD
HETATM    6  C12 UNL     1     -65.314  -5.024  -5.132  1.00  0.00     0.181 A 
HETATM    7  N9  UNL     1     -64.817  -6.243  -5.373  1.00  0.00    -0.352 N 
ATOM      8  H9  UNL     1     -64.528  -6.502  -6.316  1.00  0.00     0.166 HD
ENDROOT
BRANCH   1   9
HETATM    9  C4  UNL     1     -64.159  -8.495  -4.570  1.00  0.00     0.309 C 
BRANCH   9  10
HETATM   10  O1  UNL     1     -62.899  -8.641  -4.032  1.00  0.00    -0.342 OA
BRANCH  10  11
HETATM   11  C3  UNL     1     -62.324  -9.873  -4.252  1.00  0.00     0.211 C 
HETATM   12  C1  UNL     1     -60.941  -9.646  -4.728  1.00  0.00     0.138 C 
HETATM   13  N3  UNL     1     -60.178 -10.498  -4.167  1.00  0.00    -0.290 N 
HETATM   14  N4  UNL     1     -60.880 -11.341  -3.306  1.00  0.00    -0.137 NA
ATOM     15  H3  UNL     1     -59.172 -10.557  -4.329  1.00  0.00     0.183 HD
HETATM   16  C2  UNL     1     -62.161 -10.714  -3.041  1.00  0.00     0.175 C 
BRANCH  12  17
HETATM   17  N2  UNL     1     -60.514  -8.633  -5.675  1.00  0.00    -0.293 N 
ATOM     18  H2  UNL     1     -59.609  -8.177  -5.560  1.00  0.00     0.187 HD
BRANCH  17  19
HETATM   19  N1  UNL     1     -61.342  -8.281  -6.745  1.00  0.00    -0.344 N 
ATOM     20  H12 UNL     1     -61.005  -8.418  -7.697  1.00  0.00     0.176 HD
ATOM     21  H11 UNL     1     -62.270  -7.893  -6.568  1.00  0.00     0.176 HD
ENDBRANCH  17  19
ENDBRANCH  12  17
ENDBRANCH  10  11
ENDBRANCH   9  10
BRANCH   9  22
HETATM   22  O2  UNL     1     -64.221  -8.871  -5.909  1.00  0.00    -0.366 OA
ATOM     23  H2  UNL     1     -65.040  -9.296  -6.134  1.00  0.00     0.213 HD
ENDBRANCH   9  22
ENDBRANCH   1   9
BRANCH   3  24
HETATM   24  C8  UNL     1     -66.067  -5.003  -1.524  1.00  0.00     0.237 C 
HETATM   25  N5  UNL     1     -64.874  -4.577  -0.789  1.00  0.00    -0.332 N 
HETATM   26  C9  UNL     1     -65.100  -4.103   0.543  1.00  0.00     0.259 C 
ATOM     27  H5  UNL     1     -63.941  -4.616  -1.200  1.00  0.00     0.165 HD
HETATM   28  O3  UNL     1     -64.148  -4.119   1.359  1.00  0.00    -0.271 OA
HETATM   29  C10 UNL     1     -66.469  -3.602   0.918  1.00  0.00     0.365 C 
HETATM   30  C11 UNL     1     -67.193  -3.215  -0.309  1.00  0.00     0.259 C 
HETATM   31  O4  UNL     1     -68.047  -2.295  -0.236  1.00  0.00    -0.271 OA
HETATM   32  N7  UNL     1     -66.935  -3.870  -1.563  1.00  0.00    -0.332 N 
ATOM     33  H7  UNL     1     -67.349  -3.542  -2.435  1.00  0.00     0.165 HD
BRANCH  29  34
HETATM   34  N6  UNL     1     -67.127  -4.622   1.676  1.00  0.00    -0.058 N 
ATOM     35  H63 UNL     1     -68.137  -4.629   1.533  1.00  0.00     0.275 HD
ATOM     36  H62 UNL     1     -66.931  -5.560   1.324  1.00  0.00     0.275 HD
ATOM     37  H61 UNL     1     -66.868  -4.508   2.656  1.00  0.00     0.275 HD
ENDBRANCH  29  34
ENDBRANCH   3  24
TORSDOF 8
ENDMDL
MODEL 3
REMARK VINA RESULT: -5.415766478      1.959      7.533
REMARK  8 active torsions:
REMARK  status: ('A' for Active; 'I' for Inactive)
REMARK    1  A    between atoms: N1_1  and  N2_4 
REMARK    2  A    between atoms: N2_4  and  C1_6 
REMARK    3  A    between atoms: C3_11  and  O1_12 
REMARK    4  A    between atoms: O1_12  and  C4_13 
REMARK    5  A    between atoms: C4_13  and  O2_14 
REMARK    6  A    between atoms: C4_13  and  C5_16 
REMARK    7  A    between atoms: C7_18  and  C8_19 
REMARK    8  A    between atoms: C10_24  and  N6_25 
ROOT
HETATM    1  C5  UNL     1     -64.948  -5.665  -5.265  1.00  0.00     0.067 A 
HETATM    2  C6  UNL     1     -65.401  -5.052  -4.115  1.00  0.00     0.059 A 
HETATM    3  C7  UNL     1     -65.555  -5.729  -2.931  1.00  0.00     0.054 A 
HETATM    4  N8  UNL     1     -65.235  -7.041  -2.959  1.00  0.00    -0.352 N 
ATOM      5  H8  UNL     1     -65.330  -7.593  -2.106  1.00  0.00     0.166 HD
HETATM    6  C12 UNL     1     -64.793  -7.642  -4.082  1.00  0.00     0.181 A 
HETATM    7  N9  UNL     1     -64.649  -6.964  -5.227  1.00  0.00    -0.352 N 
ATOM      8  H9  UNL     1     -64.313  -7.438  -6.065  1.00  0.00     0.166 HD
ENDROOT
BRANCH   1   9
HETATM    9  C4  UNL     1     -64.812  -4.846  -6.507  1.00  0.00     0.309 C 
BRANCH   9  10
HETATM   10  O1  UNL     1     -63.527  -4.388  -6.693  1.00  0.00    -0.342 OA
BRANCH  10  11
HETATM   11  C3  UNL     1     -63.056  -4.513  -7.982  1.00  0.00     0.211 C 
HETATM   12  C1  UNL     1     -62.930  -3.152  -8.549  1.00  0.00     0.138 C 
HETATM   13  N3  UNL     1     -61.848  -3.095  -9.219  1.00  0.00    -0.290 N 
HETATM   14  N4  UNL     1     -61.153  -4.304  -9.193  1.00  0.00    -0.137 NA
ATOM     15  H3  UNL     1     -61.528  -2.264  -9.717  1.00  0.00     0.183 HD
HETATM   16  C2  UNL     1     -61.693  -5.086  -8.098  1.00  0.00     0.175 C 
BRANCH  12  17
HETATM   17  N2  UNL     1     -63.872  -2.061  -8.383  1.00  0.00    -0.293 N 
ATOM     18  H2  UNL     1     -64.472  -1.784  -9.160  1.00  0.00     0.187 HD
BRANCH  17  19
HETATM   19  N1  UNL     1     -63.958  -1.389  -7.160  1.00  0.00    -0.344 N 
ATOM     20  H12 UNL     1     -63.204  -1.498  -6.483  1.00  0.00     0.176 HD
ATOM     21  H11 UNL     1     -64.766  -0.800  -6.956  1.00  0.00     0.176 HD
ENDBRANCH  17  19
ENDBRANCH  12  17
ENDBRANCH  10  11
ENDBRANCH   9  10
BRANCH   9  22
HETATM   22  O2  UNL     1     -65.758  -3.826  -6.540  1.00  0.00    -0.366 OA
ATOM     23  H2  UNL     1     -66.484  -4.017  -7.122  1.00  0.00     0.213 HD
ENDBRANCH   9  22
ENDBRANCH   1   9
BRANCH   3  24
HETATM   24  C8  UNL     1     -66.030  -5.158  -1.656  1.00  0.00     0.237 C 
HETATM   25  N5  UNL     1     -64.845  -4.740  -0.903  1.00  0.00    -0.332 N 
HETATM   26  C9  UNL     1     -65.095  -4.193   0.396  1.00  0.00     0.259 C 
ATOM     27  H5  UNL     1     -63.901  -4.832  -1.281  1.00  0.00     0.165 HD
HETATM   28  O3  UNL     1     -64.170  -4.204   1.242  1.00  0.00    -0.271 OA
HETATM   29  C10 UNL     1     -66.455  -3.627   0.702  1.00  0.00     0.365 C 
HETATM   30  C11 UNL     1     -67.126  -3.275  -0.565  1.00  0.00     0.259 C 
HETATM   31  O4  UNL     1     -67.947  -2.322  -0.563  1.00  0.00    -0.271 OA
HETATM   32  N7  UNL     1     -66.854  -3.998  -1.777  1.00  0.00    -0.332 N 
ATOM     33  H7  UNL     1     -67.229  -3.699  -2.676  1.00  0.00     0.165 HD
BRANCH  29  34
HETATM   34  N6  UNL     1     -67.173  -4.585   1.486  1.00  0.00    -0.058 N 
ATOM     35  H63 UNL     1     -68.157  -4.341   1.601  1.00  0.00     0.275 HD
ATOM     36  H62 UNL     1     -67.306  -5.471   0.998  1.00  0.00     0.275 HD
ATOM     37  H61 UNL     1     -66.688  -4.695   2.377  1.00  0.00     0.275 HD
ENDBRANCH  29  34
ENDBRANCH   3  24
TORSDOF 8
ENDMDL
MODEL 4
REMARK VINA RESULT: -5.252057655      1.846      7.020
REMARK  8 active torsions:
REMARK  status: ('A' for Active; 'I' for Inactive)
REMARK    1  A    between atoms: N1_1  and  N2_4 
REMARK    2  A    between atoms: N2_4  and  C1_6 
REMARK    3  A    between atoms: C3_11  and  O1_12 
REMARK    4  A    between atoms: O1_12  and  C4_13 
REMARK    5  A    between atoms: C4_13  and  O2_14 
REMARK    6  A    between atoms: C4_13  and  C5_16 
REMARK    7  A    between atoms: C7_18  and  C8_19 
REMARK    8  A    between atoms: C10_24  and  N6_25 
ROOT
HETATM    1  C5  UNL     1     -65.255  -5.650  -5.220  1.00  0.00     0.067 A 
HETATM    2  C6  UNL     1     -65.699  -5.062  -4.054  1.00  0.00     0.059 A 
HETATM    3  C7  UNL     1     -65.609  -5.685  -2.834  1.00  0.00     0.054 A 
HETATM    4  N8  UNL     1     -65.056  -6.918  -2.844  1.00  0.00    -0.352 N 
ATOM      5  H8  UNL     1     -64.964  -7.427  -1.964  1.00  0.00     0.166 HD
HETATM    6  C12 UNL     1     -64.622  -7.494  -3.982  1.00  0.00     0.181 A 
HETATM    7  N9  UNL     1     -64.718  -6.870  -5.162  1.00  0.00    -0.352 N 
ATOM      8  H9  UNL     1     -64.384  -7.323  -6.012  1.00  0.00     0.166 HD
ENDROOT
BRANCH   1   9
HETATM    9  C4  UNL     1     -65.394  -4.894  -6.501  1.00  0.00     0.309 C 
BRANCH   9  10
HETATM   10  O1  UNL     1     -64.747  -3.679  -6.465  1.00  0.00    -0.342 OA
BRANCH  10  11
HETATM   11  C3  UNL     1     -64.749  -2.995  -7.660  1.00  0.00     0.211 C 
HETATM   12  C1  UNL     1     -65.006  -1.569  -7.361  1.00  0.00     0.138 C 
HETATM   13  N3  UNL     1     -64.247  -0.860  -8.100  1.00  0.00    -0.290 N 
HETATM   14  N4  UNL     1     -63.439  -1.645  -8.922  1.00  0.00    -0.137 NA
ATOM     15  H3  UNL     1     -64.232   0.160  -8.090  1.00  0.00     0.183 HD
HETATM   16  C2  UNL     1     -63.453  -2.990  -8.381  1.00  0.00     0.175 C 
BRANCH  12  17
HETATM   17  N2  UNL     1     -65.962  -1.051  -6.399  1.00  0.00    -0.293 N 
ATOM     18  H2  UNL     1     -65.810  -0.136  -5.973  1.00  0.00     0.187 HD
BRANCH  17  19
HETATM   19  N1  UNL     1     -67.088  -1.804  -6.056  1.00  0.00    -0.344 N 
ATOM     20  H12 UNL     1     -67.435  -1.765  -5.098  1.00  0.00     0.176 HD
ATOM     21  H11 UNL     1     -67.552  -2.380  -6.760  1.00  0.00     0.176 HD
ENDBRANCH  17  19
ENDBRANCH  12  17
ENDBRANCH  10  11
ENDBRANCH   9  10
BRANCH   9  22
HETATM   22  O2  UNL     1     -66.730  -4.783  -6.874  1.00  0.00    -0.366 OA
ATOM     23  H2  UNL     1     -67.267  -5.488  -6.532  1.00  0.00     0.213 HD
ENDBRANCH   9  22
ENDBRANCH   1   9
BRANCH   3  24
HETATM   24  C8  UNL     1     -66.055  -5.136  -1.539  1.00  0.00     0.237 C 
HETATM   25  N5  UNL     1     -64.856  -4.687  -0.826  1.00  0.00    -0.332 N 
HETATM   26  C9  UNL     1     -65.076  -4.155   0.484  1.00  0.00     0.259 C 
ATOM     27  H5  UNL     1     -63.925  -4.749  -1.238  1.00  0.00     0.165 HD
HETATM   28  O3  UNL     1     -64.121  -4.143   1.297  1.00  0.00    -0.271 OA
HETATM   29  C10 UNL     1     -66.440  -3.630   0.842  1.00  0.00     0.365 C 
HETATM   30  C11 UNL     1     -67.166  -3.291  -0.398  1.00  0.00     0.259 C 
HETATM   31  O4  UNL     1     -68.014  -2.363  -0.361  1.00  0.00    -0.271 OA
HETATM   32  N7  UNL     1     -66.916  -4.000  -1.624  1.00  0.00    -0.332 N 
ATOM     33  H7  UNL     1     -67.331  -3.707  -2.507  1.00  0.00     0.165 HD
BRANCH  29  34
HETATM   34  N6  UNL     1     -67.101  -4.613   1.645  1.00  0.00    -0.058 N 
ATOM     35  H63 UNL     1     -67.247  -5.492   1.148  1.00  0.00     0.275 HD
ATOM     36  H62 UNL     1     -66.509  -4.974   2.392  1.00  0.00     0.275 HD
ATOM     37  H61 UNL     1     -67.971  -4.208   1.992  1.00  0.00     0.275 HD
ENDBRANCH  29  34
ENDBRANCH   3  24
TORSDOF 8
ENDMDL
MODEL 5
REMARK VINA RESULT: -5.236129857      1.938      3.005
REMARK  8 active torsions:
REMARK  status: ('A' for Active; 'I' for Inactive)
REMARK    1  A    between atoms: N1_1  and  N2_4 
REMARK    2  A    between atoms: N2_4  and  C1_6 
REMARK    3  A    between atoms: C3_11  and  O1_12 
REMARK    4  A    between atoms: O1_12  and  C4_13 
REMARK    5  A    between atoms: C4_13  and  O2_14 
REMARK    6  A    between atoms: C4_13  and  C5_16 
REMARK    7  A    between atoms: C7_18  and  C8_19 
REMARK    8  A    between atoms: C10_24  and  N6_25 
ROOT
HETATM    1  C5  UNL     1     -67.125  -7.129  -0.835  1.00  0.00     0.067 A 
HETATM    2  C6  UNL     1     -66.484  -6.322  -1.752  1.00  0.00     0.059 A 
HETATM    3  C7  UNL     1     -66.460  -6.607  -3.094  1.00  0.00     0.054 A 
HETATM    4  N8  UNL     1     -67.107  -7.733  -3.467  1.00  0.00    -0.352 N 
ATOM      5  H8  UNL     1     -67.122  -7.993  -4.454  1.00  0.00     0.166 HD
HETATM    6  C12 UNL     1     -67.734  -8.523  -2.573  1.00  0.00     0.181 A 
HETATM    7  N9  UNL     1     -67.746  -8.228  -1.267  1.00  0.00    -0.352 N 
ATOM      8  H9  UNL     1     -68.226  -8.839  -0.607  1.00  0.00     0.166 HD
ENDROOT
BRANCH   1   9
HETATM    9  C4  UNL     1     -67.098  -6.738   0.607  1.00  0.00     0.309 C 
BRANCH   9  10
HETATM   10  O1  UNL     1     -66.284  -5.652   0.839  1.00  0.00    -0.342 OA
BRANCH  10  11
HETATM   11  C3  UNL     1     -66.879  -4.632   1.547  1.00  0.00     0.211 C 
HETATM   12  C1  UNL     1     -66.595  -3.366   0.836  1.00  0.00     0.138 C 
HETATM   13  N3  UNL     1     -67.650  -2.651   0.850  1.00  0.00    -0.290 N 
HETATM   14  N4  UNL     1     -68.702  -3.287   1.509  1.00  0.00    -0.137 NA
ATOM     15  H3  UNL     1     -67.718  -1.725   0.428  1.00  0.00     0.183 HD
HETATM   16  C2  UNL     1     -68.360  -4.693   1.609  1.00  0.00     0.175 C 
BRANCH  12  17
HETATM   17  N2  UNL     1     -65.333  -2.985   0.229  1.00  0.00    -0.293 N 
ATOM     18  H2  UNL     1     -65.326  -2.437  -0.631  1.00  0.00     0.187 HD
BRANCH  17  19
HETATM   19  N1  UNL     1     -64.127  -3.369   0.822  1.00  0.00    -0.344 N 
ATOM     20  H12 UNL     1     -63.955  -4.359   0.997  1.00  0.00     0.176 HD
ATOM     21  H11 UNL     1     -63.433  -2.664   1.073  1.00  0.00     0.176 HD
ENDBRANCH  17  19
ENDBRANCH  12  17
ENDBRANCH  10  11
ENDBRANCH   9  10
BRANCH   9  22
HETATM   22  O2  UNL     1     -66.788  -7.827   1.415  1.00  0.00    -0.366 OA
ATOM     23  H2  UNL     1     -66.813  -8.653   0.946  1.00  0.00     0.213 HD
ENDBRANCH   9  22
ENDBRANCH   1   9
BRANCH   3  24
HETATM   24  C8  UNL     1     -65.803  -5.805  -4.144  1.00  0.00     0.237 C 
HETATM   25  N5  UNL     1     -65.833  -6.599  -5.375  1.00  0.00    -0.332 N 
HETATM   26  C9  UNL     1     -65.199  -6.006  -6.513  1.00  0.00     0.259 C 
ATOM     27  H5  UNL     1     -66.277  -7.517  -5.418  1.00  0.00     0.165 HD
HETATM   28  O3  UNL     1     -64.817  -6.750  -7.447  1.00  0.00    -0.271 OA
HETATM   29  C10 UNL     1     -65.012  -4.512  -6.551  1.00  0.00     0.365 C 
HETATM   30  C11 UNL     1     -65.982  -3.883  -5.632  1.00  0.00     0.259 C 
HETATM   31  O4  UNL     1     -66.399  -2.727  -5.901  1.00  0.00    -0.271 OA
HETATM   32  N7  UNL     1     -66.443  -4.567  -4.454  1.00  0.00    -0.332 N 
ATOM     33  H7  UNL     1     -67.188  -4.188  -3.871  1.00  0.00     0.165 HD
BRANCH  29  34
HETATM   34  N6  UNL     1     -63.648  -4.224  -6.232  1.00  0.00    -0.058 N 
ATOM     35  H63 UNL     1     -63.284  -4.819  -5.487  1.00  0.00     0.275 HD
ATOM     36  H62 UNL     1     -63.003  -4.515  -6.967  1.00  0.00     0.275 HD
ATOM     37  H61 UNL     1     -63.574  -3.230  -6.015  1.00  0.00     0.275 HD
ENDBRANCH  29  34
ENDBRANCH   3  24
TORSDOF 8
ENDMDL
