MODEL 1
REMARK VINA RESULT: -2.138155575      0.000      0.000
REMARK  1 active torsions:
REMARK  status: ('A' for Active; 'I' for Inactive)
REMARK    1  A    between atoms: C2_2  and  N1_3 
ROOT
HETATM    1  N1  UNL     1      60.759  75.542  26.969  1.00  0.00    -0.366 N 
HETATM    2  C3  UNL     1      61.204  76.657  27.766  1.00  0.00     0.151 C 
HETATM    3  C4  UNL     1      62.669  76.708  27.303  1.00  0.00     0.254 C 
HETATM    4  N2  UNL     1      62.997  75.304  27.497  1.00  0.00    -0.058 N 
ATOM      5  H21 UNL     1      63.115  75.008  28.465  1.00  0.00     0.279 HD
ATOM      6  H22 UNL     1      63.935  75.025  27.207  1.00  0.00     0.279 HD
HETATM    7  C5  UNL     1      61.885  74.663  26.764  1.00  0.00     0.356 C 
ENDROOT
BRANCH   1   8
HETATM    8  C2  UNL     1      59.458  75.341  26.475  1.00  0.00     0.077 C 
HETATM    9  C1  UNL     1      59.255  75.179  25.158  1.00  0.00     0.029 C 
ENDBRANCH   1   8
TORSDOF 1
ENDMDL
MODEL 2
REMARK VINA RESULT: -1.831813808      1.255      1.715
REMARK  1 active torsions:
REMARK  status: ('A' for Active; 'I' for Inactive)
REMARK    1  A    between atoms: C2_2  and  N1_3 
ROOT
HETATM    1  N1  UNL     1      60.121  75.445  26.325  1.00  0.00    -0.366 N 
HETATM    2  C3  UNL     1      61.049  74.562  26.986  1.00  0.00     0.151 C 
HETATM    3  C4  UNL     1      61.532  75.513  28.093  1.00  0.00     0.254 C 
HETATM    4  N2  UNL     1      61.853  76.660  27.257  1.00  0.00    -0.058 N 
ATOM      5  H21 UNL     1      62.702  76.574  26.699  1.00  0.00     0.279 HD
ATOM      6  H22 UNL     1      62.162  77.496  27.753  1.00  0.00     0.279 HD
HETATM    7  C5  UNL     1      60.596  76.798  26.492  1.00  0.00     0.356 C 
ENDROOT
BRANCH   1   8
HETATM    8  C2  UNL     1      58.956  75.062  25.639  1.00  0.00     0.077 C 
HETATM    9  C1  UNL     1      58.964  74.966  24.300  1.00  0.00     0.029 C 
ENDBRANCH   1   8
TORSDOF 1
ENDMDL
MODEL 3
REMARK VINA RESULT: -1.712476947      1.449      2.037
REMARK  1 active torsions:
REMARK  status: ('A' for Active; 'I' for Inactive)
REMARK    1  A    between atoms: C2_2  and  N1_3 
ROOT
HETATM    1  N1  UNL     1      61.761  75.822  27.306  1.00  0.00    -0.366 N 
HETATM    2  C3  UNL     1      63.197  75.913  27.374  1.00  0.00     0.151 C 
HETATM    3  C4  UNL     1      63.321  77.392  27.774  1.00  0.00     0.254 C 
HETATM    4  N2  UNL     1      62.453  77.957  26.752  1.00  0.00    -0.058 N 
ATOM      5  H21 UNL     1      62.840  77.983  25.809  1.00  0.00     0.279 HD
ATOM      6  H22 UNL     1      62.300  78.964  26.810  1.00  0.00     0.279 HD
HETATM    7  C5  UNL     1      61.249  77.117  26.926  1.00  0.00     0.356 C 
ENDROOT
BRANCH   1   8
HETATM    8  C2  UNL     1      60.988  74.676  27.564  1.00  0.00     0.077 C 
HETATM    9  C1  UNL     1      59.922  74.395  26.797  1.00  0.00     0.029 C 
ENDBRANCH   1   8
TORSDOF 1
ENDMDL
MODEL 4
REMARK VINA RESULT: -1.057986430      1.302      3.297
REMARK  1 active torsions:
REMARK  status: ('A' for Active; 'I' for Inactive)
REMARK    1  A    between atoms: C2_2  and  N1_3 
ROOT
HETATM    1  N1  UNL     1      61.508  75.933  27.355  1.00  0.00    -0.366 N 
HETATM    2  C3  UNL     1      61.099  74.569  27.580  1.00  0.00     0.151 C 
HETATM    3  C4  UNL     1      60.304  74.345  26.283  1.00  0.00     0.254 C 
HETATM    4  N2  UNL     1      59.468  75.535  26.344  1.00  0.00    -0.058 N 
ATOM      5  H21 UNL     1      58.716  75.511  27.033  1.00  0.00     0.279 HD
ATOM      6  H22 UNL     1      58.848  75.680  25.547  1.00  0.00     0.279 HD
HETATM    7  C5  UNL     1      60.495  76.576  26.554  1.00  0.00     0.356 C 
ENDROOT
BRANCH   1   8
HETATM    8  C2  UNL     1      62.686  76.535  27.829  1.00  0.00     0.077 C 
HETATM    9  C1  UNL     1      63.605  76.993  26.964  1.00  0.00     0.029 C 
ENDBRANCH   1   8
TORSDOF 1
ENDMDL
MODEL 5
REMARK VINA RESULT: -0.645401808      1.509      3.693
REMARK  1 active torsions:
REMARK  status: ('A' for Active; 'I' for Inactive)
REMARK    1  A    between atoms: C2_2  and  N1_3 
ROOT
HETATM    1  N1  UNL     1      60.071  74.921  26.417  1.00  0.00    -0.366 N 
HETATM    2  C3  UNL     1      59.707  73.898  25.470  1.00  0.00     0.151 C 
HETATM    3  C4  UNL     1      59.192  74.799  24.336  1.00  0.00     0.254 C 
HETATM    4  N2  UNL     1      58.292  75.629  25.122  1.00  0.00    -0.058 N 
ATOM      5  H21 UNL     1      57.424  75.183  25.416  1.00  0.00     0.279 HD
ATOM      6  H22 UNL     1      57.832  76.385  24.614  1.00  0.00     0.279 HD
HETATM    7  C5  UNL     1      59.197  76.051  26.212  1.00  0.00     0.356 C 
ENDROOT
BRANCH   1   8
HETATM    8  C2  UNL     1      61.098  74.840  27.374  1.00  0.00     0.077 C 
HETATM    9  C1  UNL     1      61.779  75.941  27.726  1.00  0.00     0.029 C 
ENDBRANCH   1   8
TORSDOF 1
ENDMDL
