MODEL 1
REMARK VINA RESULT: -3.741170675      0.000      0.000
REMARK  1 active torsions:
REMARK  status: ('A' for Active; 'I' for Inactive)
REMARK    1  A    between atoms: N2_3  and  C2_5 
ROOT
HETATM    1  N1  UNL     1      64.202  77.205  26.762  1.00  0.00    -0.097 NA
HETATM    2  C1  UNL     1      63.126  76.376  27.187  1.00  0.00     0.185 C 
HETATM    3  N2  UNL     1      61.916  76.755  27.187  1.00  0.00    -0.383 N 
ATOM      4  H2  UNL     1      61.699  77.698  26.867  1.00  0.00     0.160 HD
ENDROOT
BRANCH   3   5
HETATM    5  C2  UNL     1      60.844  75.915  27.615  1.00  0.00     0.082 A 
HETATM    6  C3  UNL     1      59.990  75.192  26.650  1.00  0.00     0.027 A 
HETATM    7  C4  UNL     1      61.049  74.449  27.468  1.00  0.00     0.027 A 
ENDBRANCH   3   5
TORSDOF 1
ENDMDL
MODEL 2
REMARK VINA RESULT: -3.568413799      0.885      1.301
REMARK  1 active torsions:
REMARK  status: ('A' for Active; 'I' for Inactive)
REMARK    1  A    between atoms: N2_3  and  C2_5 
ROOT
HETATM    1  N1  UNL     1      64.215  76.610  26.910  1.00  0.00    -0.097 NA
HETATM    2  C1  UNL     1      62.922  76.148  27.287  1.00  0.00     0.185 C 
HETATM    3  N2  UNL     1      62.459  75.021  26.937  1.00  0.00    -0.383 N 
ATOM      4  H2  UNL     1      63.037  74.413  26.356  1.00  0.00     0.160 HD
ENDROOT
BRANCH   3   5
HETATM    5  C2  UNL     1      61.161  74.567  27.321  1.00  0.00     0.082 A 
HETATM    6  C3  UNL     1      60.199  75.455  28.006  1.00  0.00     0.027 A 
HETATM    7  C4  UNL     1      60.014  75.091  26.531  1.00  0.00     0.027 A 
ENDBRANCH   3   5
TORSDOF 1
ENDMDL
MODEL 3
REMARK VINA RESULT: -3.374635144      2.469      3.663
REMARK  1 active torsions:
REMARK  status: ('A' for Active; 'I' for Inactive)
REMARK    1  A    between atoms: N2_3  and  C2_5 
ROOT
HETATM    1  N1  UNL     1      58.751  74.954  23.771  1.00  0.00    -0.097 NA
HETATM    2  C1  UNL     1      59.101  74.803  25.143  1.00  0.00     0.185 C 
HETATM    3  N2  UNL     1      59.884  75.593  25.750  1.00  0.00    -0.383 N 
ATOM      4  H2  UNL     1      60.286  76.376  25.235  1.00  0.00     0.160 HD
ENDROOT
BRANCH   3   5
HETATM    5  C2  UNL     1      60.229  75.432  27.126  1.00  0.00     0.082 A 
HETATM    6  C3  UNL     1      61.256  74.463  27.562  1.00  0.00     0.027 A 
HETATM    7  C4  UNL     1      61.553  75.965  27.545  1.00  0.00     0.027 A 
ENDBRANCH   3   5
TORSDOF 1
ENDMDL
MODEL 4
REMARK VINA RESULT: -3.161460755      1.848      3.337
REMARK  1 active torsions:
REMARK  status: ('A' for Active; 'I' for Inactive)
REMARK    1  A    between atoms: N2_3  and  C2_5 
ROOT
HETATM    1  N1  UNL     1      58.997  75.469  25.043  1.00  0.00    -0.097 NA
HETATM    2  C1  UNL     1      59.915  75.268  26.113  1.00  0.00     0.185 C 
HETATM    3  N2  UNL     1      60.625  76.198  26.602  1.00  0.00    -0.383 N 
ATOM      4  H2  UNL     1      60.537  77.136  26.212  1.00  0.00     0.160 HD
ENDROOT
BRANCH   3   5
HETATM    5  C2  UNL     1      61.542  75.986  27.674  1.00  0.00     0.082 A 
HETATM    6  C3  UNL     1      62.914  75.492  27.437  1.00  0.00     0.027 A 
HETATM    7  C4  UNL     1      62.661  76.959  27.794  1.00  0.00     0.027 A 
ENDBRANCH   3   5
TORSDOF 1
ENDMDL
MODEL 5
REMARK VINA RESULT: -2.753196514      1.622      2.292
REMARK  1 active torsions:
REMARK  status: ('A' for Active; 'I' for Inactive)
REMARK    1  A    between atoms: N2_3  and  C2_5 
ROOT
HETATM    1  N1  UNL     1      62.699  75.475  27.608  1.00  0.00    -0.097 NA
HETATM    2  C1  UNL     1      61.430  75.026  27.143  1.00  0.00     0.185 C 
HETATM    3  N2  UNL     1      60.585  75.791  26.588  1.00  0.00    -0.383 N 
ATOM      4  H2  UNL     1      60.821  76.775  26.467  1.00  0.00     0.160 HD
ENDROOT
BRANCH   3   5
HETATM    5  C2  UNL     1      59.316  75.330  26.125  1.00  0.00     0.082 A 
HETATM    6  C3  UNL     1      58.911  75.462  24.710  1.00  0.00     0.027 A 
HETATM    7  C4  UNL     1      59.321  74.104  25.283  1.00  0.00     0.027 A 
ENDBRANCH   3   5
TORSDOF 1
ENDMDL
