MODEL 1
REMARK VINA RESULT: -10.076182645      0.000      0.000
REMARK  2 active torsions:
REMARK  status: ('A' for Active; 'I' for Inactive)
REMARK    1  A    between atoms: O1_1  and  N1_3 
REMARK    2  A    between atoms: C12_16  and  C13_17 
ROOT
HETATM    1  N1  UNL     1       6.142  27.681  57.791  1.00  0.00    -0.234 N 
HETATM    2  C1  UNL     1       6.983  28.679  57.848  1.00  0.00     0.126 A 
HETATM    3  C2  UNL     1       6.375  29.865  57.418  1.00  0.00     0.052 A 
HETATM    4  C3  UNL     1       5.099  29.568  57.083  1.00  0.00     0.070 A 
HETATM    5  N2  UNL     1       4.055  30.273  56.618  1.00  0.00    -0.309 N 
HETATM    6  C4  UNL     1       2.865  29.627  56.382  1.00  0.00     0.040 A 
HETATM    7  C5  UNL     1       2.737  28.262  56.620  1.00  0.00     0.032 A 
HETATM    8  C6  UNL     1       3.767  27.513  57.091  1.00  0.00     0.037 A 
HETATM    9  C7  UNL     1       4.962  28.120  57.336  1.00  0.00     0.089 A 
HETATM   10  C8  UNL     1       1.760  30.296  55.905  1.00  0.00     0.031 A 
HETATM   11  C9  UNL     1       1.872  31.631  55.668  1.00  0.00     0.016 A 
HETATM   12  C10 UNL     1       3.045  32.310  55.892  1.00  0.00    -0.008 A 
HETATM   13  C11 UNL     1       3.093  33.663  55.632  1.00  0.00     0.026 A 
HETATM   14  C12 UNL     1       4.256  34.360  55.849  1.00  0.00    -0.025 A 
HETATM   15  C19 UNL     1       5.356  33.685  56.325  1.00  0.00     0.014 A 
HETATM   16  C20 UNL     1       5.307  32.315  56.588  1.00  0.00     0.032 A 
HETATM   17  C21 UNL     1       4.164  31.600  56.382  1.00  0.00     0.050 A 
ENDROOT
BRANCH  14  18
HETATM   18  C13 UNL     1       4.294  35.791  55.572  1.00  0.00    -0.026 A 
HETATM   19  C14 UNL     1       3.667  36.678  56.420  1.00  0.00     0.012 A 
HETATM   20  C15 UNL     1       3.704  38.048  56.149  1.00  0.00     0.001 A 
HETATM   21  C16 UNL     1       4.363  38.542  55.039  1.00  0.00     0.000 A 
HETATM   22  C17 UNL     1       4.993  37.632  54.192  1.00  0.00     0.001 A 
HETATM   23  C18 UNL     1       4.955  36.281  54.460  1.00  0.00     0.012 A 
ENDBRANCH  14  18
BRANCH   1  24
HETATM   24  O1  UNL     1       6.361  26.345  58.131  1.00  0.00    -0.283 OA
ATOM     25  H1  UNL     1       7.078  25.974  58.631  1.00  0.00     0.245 HD
ENDBRANCH   1  24
TORSDOF 2
ENDMDL
MODEL 2
REMARK VINA RESULT: -9.947260162      0.641      1.127
REMARK  2 active torsions:
REMARK  status: ('A' for Active; 'I' for Inactive)
REMARK    1  A    between atoms: O1_1  and  N1_3 
REMARK    2  A    between atoms: C12_16  and  C13_17 
ROOT
HETATM    1  N1  UNL     1       5.538  27.109  57.709  1.00  0.00    -0.234 N 
HETATM    2  C1  UNL     1       6.481  28.003  57.842  1.00  0.00     0.126 A 
HETATM    3  C2  UNL     1       6.022  29.269  57.457  1.00  0.00     0.052 A 
HETATM    4  C3  UNL     1       4.734  29.133  57.069  1.00  0.00     0.070 A 
HETATM    5  N2  UNL     1       3.791  29.971  56.611  1.00  0.00    -0.309 N 
HETATM    6  C4  UNL     1       2.546  29.473  56.307  1.00  0.00     0.040 A 
HETATM    7  C5  UNL     1       2.260  28.121  56.470  1.00  0.00     0.032 A 
HETATM    8  C6  UNL     1       3.185  27.240  56.932  1.00  0.00     0.037 A 
HETATM    9  C7  UNL     1       4.430  27.698  57.243  1.00  0.00     0.089 A 
HETATM   10  C8  UNL     1       1.539  30.284  55.833  1.00  0.00     0.031 A 
HETATM   11  C9  UNL     1       1.804  31.607  55.669  1.00  0.00     0.016 A 
HETATM   12  C10 UNL     1       3.036  32.140  55.962  1.00  0.00    -0.008 A 
HETATM   13  C11 UNL     1       3.241  33.491  55.774  1.00  0.00     0.026 A 
HETATM   14  C12 UNL     1       4.466  34.042  56.060  1.00  0.00    -0.025 A 
HETATM   15  C19 UNL     1       5.467  33.227  56.533  1.00  0.00     0.014 A 
HETATM   16  C20 UNL     1       5.259  31.860  56.723  1.00  0.00     0.032 A 
HETATM   17  C21 UNL     1       4.052  31.287  56.447  1.00  0.00     0.050 A 
ENDROOT
BRANCH  14  18
HETATM   18  C13 UNL     1       4.671  35.472  55.859  1.00  0.00    -0.026 A 
HETATM   19  C14 UNL     1       5.761  35.923  55.147  1.00  0.00     0.012 A 
HETATM   20  C15 UNL     1       5.954  37.294  54.959  1.00  0.00     0.001 A 
HETATM   21  C16 UNL     1       5.067  38.219  55.476  1.00  0.00     0.000 A 
HETATM   22  C17 UNL     1       3.969  37.748  56.193  1.00  0.00     0.001 A 
HETATM   23  C18 UNL     1       3.780  36.396  56.378  1.00  0.00     0.012 A 
ENDBRANCH  14  18
BRANCH   1  24
HETATM   24  O1  UNL     1       5.596  25.742  57.986  1.00  0.00    -0.283 OA
ATOM     25  H1  UNL     1       5.386  25.015  57.412  1.00  0.00     0.245 HD
ENDBRANCH   1  24
TORSDOF 2
ENDMDL
MODEL 3
REMARK VINA RESULT: -9.771675021      3.608      7.727
REMARK  2 active torsions:
REMARK  status: ('A' for Active; 'I' for Inactive)
REMARK    1  A    between atoms: O1_1  and  N1_3 
REMARK    2  A    between atoms: C12_16  and  C13_17 
ROOT
HETATM    1  N1  UNL     1       5.791  37.542  55.443  1.00  0.00    -0.234 N 
HETATM    2  C1  UNL     1       4.817  36.938  54.818  1.00  0.00     0.126 A 
HETATM    3  C2  UNL     1       4.683  35.617  55.264  1.00  0.00     0.052 A 
HETATM    4  C3  UNL     1       5.628  35.412  56.209  1.00  0.00     0.070 A 
HETATM    5  N2  UNL     1       5.983  34.371  56.980  1.00  0.00    -0.309 N 
HETATM    6  C4  UNL     1       7.025  34.521  57.863  1.00  0.00     0.040 A 
HETATM    7  C5  UNL     1       7.708  35.730  57.962  1.00  0.00     0.032 A 
HETATM    8  C6  UNL     1       7.380  36.806  57.202  1.00  0.00     0.037 A 
HETATM    9  C7  UNL     1       6.352  36.694  56.315  1.00  0.00     0.089 A 
HETATM   10  C8  UNL     1       7.436  33.490  58.680  1.00  0.00     0.031 A 
HETATM   11  C9  UNL     1       6.778  32.303  58.594  1.00  0.00     0.016 A 
HETATM   12  C10 UNL     1       5.732  32.117  57.723  1.00  0.00    -0.008 A 
HETATM   13  C11 UNL     1       5.106  30.889  57.684  1.00  0.00     0.026 A 
HETATM   14  C12 UNL     1       4.058  30.684  56.820  1.00  0.00    -0.025 A 
HETATM   15  C19 UNL     1       3.655  31.716  56.007  1.00  0.00     0.014 A 
HETATM   16  C20 UNL     1       4.288  32.960  56.047  1.00  0.00     0.032 A 
HETATM   17  C21 UNL     1       5.331  33.190  56.896  1.00  0.00     0.050 A 
ENDROOT
BRANCH  14  18
HETATM   18  C13 UNL     1       3.403  29.381  56.789  1.00  0.00    -0.026 A 
HETATM   19  C14 UNL     1       2.150  29.248  56.229  1.00  0.00     0.012 A 
HETATM   20  C15 UNL     1       1.526  27.999  56.204  1.00  0.00     0.001 A 
HETATM   21  C16 UNL     1       2.141  26.880  56.732  1.00  0.00     0.000 A 
HETATM   22  C17 UNL     1       3.407  27.030  57.294  1.00  0.00     0.001 A 
HETATM   23  C18 UNL     1       4.022  28.263  57.319  1.00  0.00     0.012 A 
ENDBRANCH  14  18
BRANCH   1  24
HETATM   24  O1  UNL     1       6.239  38.855  55.286  1.00  0.00    -0.283 OA
ATOM     25  H1  UNL     1       6.814  39.353  55.854  1.00  0.00     0.245 HD
ENDBRANCH   1  24
TORSDOF 2
ENDMDL
MODEL 4
REMARK VINA RESULT: -9.672773397      4.364      7.212
REMARK  2 active torsions:
REMARK  status: ('A' for Active; 'I' for Inactive)
REMARK    1  A    between atoms: O1_1  and  N1_3 
REMARK    2  A    between atoms: C12_16  and  C13_17 
ROOT
HETATM    1  N1  UNL     1      12.419  30.592  57.663  1.00  0.00    -0.234 N 
HETATM    2  C1  UNL     1      11.938  29.513  57.106  1.00  0.00     0.126 A 
HETATM    3  C2  UNL     1      10.539  29.509  57.157  1.00  0.00     0.052 A 
HETATM    4  C3  UNL     1      10.153  30.646  57.779  1.00  0.00     0.070 A 
HETATM    5  N2  UNL     1       8.970  31.187  58.112  1.00  0.00    -0.309 N 
HETATM    6  C4  UNL     1       8.949  32.399  58.759  1.00  0.00     0.040 A 
HETATM    7  C5  UNL     1      10.133  33.063  59.068  1.00  0.00     0.032 A 
HETATM    8  C6  UNL     1      11.349  32.551  58.749  1.00  0.00     0.037 A 
HETATM    9  C7  UNL     1      11.409  31.350  58.107  1.00  0.00     0.089 A 
HETATM   10  C8  UNL     1       7.767  33.004  59.125  1.00  0.00     0.031 A 
HETATM   11  C9  UNL     1       6.603  32.367  58.829  1.00  0.00     0.016 A 
HETATM   12  C10 UNL     1       6.584  31.155  58.184  1.00  0.00    -0.008 A 
HETATM   13  C11 UNL     1       5.370  30.561  57.912  1.00  0.00     0.026 A 
HETATM   14  C12 UNL     1       5.331  29.348  57.268  1.00  0.00    -0.025 A 
HETATM   15  C19 UNL     1       6.515  28.750  56.905  1.00  0.00     0.014 A 
HETATM   16  C20 UNL     1       7.744  29.352  57.180  1.00  0.00     0.032 A 
HETATM   17  C21 UNL     1       7.811  30.556  57.818  1.00  0.00     0.050 A 
ENDROOT
BRANCH  14  18
HETATM   18  C13 UNL     1       4.041  28.731  56.984  1.00  0.00    -0.026 A 
HETATM   19  C14 UNL     1       3.835  27.397  57.262  1.00  0.00     0.012 A 
HETATM   20  C15 UNL     1       2.597  26.809  56.986  1.00  0.00     0.001 A 
HETATM   21  C16 UNL     1       1.563  27.543  56.436  1.00  0.00     0.000 A 
HETATM   22  C17 UNL     1       1.787  28.890  56.162  1.00  0.00     0.001 A 
HETATM   23  C18 UNL     1       3.008  29.468  56.434  1.00  0.00     0.012 A 
ENDBRANCH  14  18
BRANCH   1  24
HETATM   24  O1  UNL     1      13.755  30.967  57.812  1.00  0.00    -0.283 OA
ATOM     25  H1  UNL     1      14.463  30.886  57.184  1.00  0.00     0.245 HD
ENDBRANCH   1  24
TORSDOF 2
ENDMDL
MODEL 5
REMARK VINA RESULT: -9.476006993      2.908      7.580
REMARK  2 active torsions:
REMARK  status: ('A' for Active; 'I' for Inactive)
REMARK    1  A    between atoms: O1_1  and  N1_3 
REMARK    2  A    between atoms: C12_16  and  C13_17 
ROOT
HETATM    1  N1  UNL     1       5.994  35.007  56.303  1.00  0.00    -0.234 N 
HETATM    2  C1  UNL     1       6.789  34.246  57.006  1.00  0.00     0.126 A 
HETATM    3  C2  UNL     1       6.228  32.975  57.186  1.00  0.00     0.052 A 
HETATM    4  C3  UNL     1       5.030  32.969  56.559  1.00  0.00     0.070 A 
HETATM    5  N2  UNL     1       4.057  32.059  56.387  1.00  0.00    -0.309 N 
HETATM    6  C4  UNL     1       2.939  32.405  55.668  1.00  0.00     0.040 A 
HETATM    7  C5  UNL     1       2.808  33.680  55.123  1.00  0.00     0.032 A 
HETATM    8  C6  UNL     1       3.767  34.629  55.274  1.00  0.00     0.037 A 
HETATM    9  C7  UNL     1       4.891  34.320  55.981  1.00  0.00     0.089 A 
HETATM   10  C8  UNL     1       1.909  31.515  55.458  1.00  0.00     0.031 A 
HETATM   11  C9  UNL     1       2.023  30.267  55.984  1.00  0.00     0.016 A 
HETATM   12  C10 UNL     1       3.127  29.884  56.708  1.00  0.00    -0.008 A 
HETATM   13  C11 UNL     1       3.182  28.604  57.215  1.00  0.00     0.026 A 
HETATM   14  C12 UNL     1       4.276  28.203  57.941  1.00  0.00    -0.025 A 
HETATM   15  C19 UNL     1       5.300  29.097  58.148  1.00  0.00     0.014 A 
HETATM   16  C20 UNL     1       5.244  30.394  57.634  1.00  0.00     0.032 A 
HETATM   17  C21 UNL     1       4.169  30.817  56.909  1.00  0.00     0.050 A 
ENDROOT
BRANCH  14  18
HETATM   18  C13 UNL     1       4.324  26.845  58.471  1.00  0.00    -0.026 A 
HETATM   19  C14 UNL     1       3.199  26.279  59.030  1.00  0.00     0.012 A 
HETATM   20  C15 UNL     1       3.251  24.978  59.538  1.00  0.00     0.001 A 
HETATM   21  C16 UNL     1       4.417  24.237  59.492  1.00  0.00     0.000 A 
HETATM   22  C17 UNL     1       5.545  24.823  58.923  1.00  0.00     0.001 A 
HETATM   23  C18 UNL     1       5.493  26.106  58.422  1.00  0.00     0.012 A 
ENDBRANCH  14  18
BRANCH   1  24
HETATM   24  O1  UNL     1       6.189  36.332  55.910  1.00  0.00    -0.283 OA
ATOM     25  H1  UNL     1       5.968  37.126  56.383  1.00  0.00     0.245 HD
ENDBRANCH   1  24
TORSDOF 2
ENDMDL
