MODEL 1
REMARK VINA RESULT: -10.101563825      0.000      0.000
REMARK  1 active torsions:
REMARK  status: ('A' for Active; 'I' for Inactive)
REMARK    1  A    between atoms: C4_4  and  N1_5 
ROOT
HETATM    1  N1  UNL     1       4.100  32.858  56.052  1.00  0.00    -0.215 N 
HETATM    2  O1  UNL     1       3.072  32.079  55.644  1.00  0.00    -0.228 OA
HETATM    3  C5  UNL     1       3.193  30.865  56.186  1.00  0.00     0.125 A 
HETATM    4  C6  UNL     1       4.311  30.933  56.927  1.00  0.00     0.059 A 
HETATM    5  C7  UNL     1       4.692  29.834  57.604  1.00  0.00     0.059 A 
HETATM    6  N2  UNL     1       5.838  29.971  58.336  1.00  0.00    -0.354 N 
ATOM      7  H2  UNL     1       6.202  29.190  58.881  1.00  0.00     0.166 HD
HETATM    8  C8  UNL     1       6.489  31.181  58.323  1.00  0.00     0.045 A 
HETATM    9  C9  UNL     1       7.646  31.354  59.049  1.00  0.00     0.030 A 
HETATM   10  C10 UNL     1       8.295  32.566  59.034  1.00  0.00     0.002 A 
HETATM   11  C11 UNL     1       7.828  33.639  58.307  1.00  0.00     0.001 A 
HETATM   12  C12 UNL     1       6.651  33.498  57.555  1.00  0.00     0.016 A 
HETATM   13  C13 UNL     1       6.045  32.302  57.595  1.00  0.00     0.021 A 
HETATM   14  C14 UNL     1       4.886  32.148  56.859  1.00  0.00     0.091 A 
HETATM   15  C15 UNL     1       3.666  28.864  57.269  1.00  0.00     0.005 A 
HETATM   16  C16 UNL     1       3.526  27.576  57.662  1.00  0.00     0.014 A 
HETATM   17  C17 UNL     1       2.426  26.879  57.174  1.00  0.00     0.001 A 
HETATM   18  C18 UNL     1       1.499  27.483  56.311  1.00  0.00     0.001 A 
HETATM   19  C19 UNL     1       1.662  28.807  55.919  1.00  0.00     0.015 A 
HETATM   20  C20 UNL     1       2.730  29.480  56.396  1.00  0.00     0.013 A 
ENDROOT
BRANCH   1  21
HETATM   21  C4  UNL     1       4.202  34.185  55.618  1.00  0.00     0.063 A 
HETATM   22  C3  UNL     1       3.675  35.165  56.425  1.00  0.00     0.032 A 
HETATM   23  C2  UNL     1       3.790  36.487  56.082  1.00  0.00     0.002 A 
HETATM   24  C1  UNL     1       4.433  36.891  54.923  1.00  0.00     0.000 A 
HETATM   25  C22 UNL     1       4.953  35.894  54.129  1.00  0.00     0.002 A 
HETATM   26  C21 UNL     1       4.847  34.566  54.456  1.00  0.00     0.032 A 
ENDBRANCH   1  21
TORSDOF 1
ENDMDL
MODEL 2
REMARK VINA RESULT: -9.953780541      1.529      4.268
REMARK  1 active torsions:
REMARK  status: ('A' for Active; 'I' for Inactive)
REMARK    1  A    between atoms: C4_4  and  N1_5 
ROOT
HETATM    1  N1  UNL     1       6.330  31.118  57.237  1.00  0.00    -0.215 N 
HETATM    2  O1  UNL     1       6.128  29.806  57.497  1.00  0.00    -0.228 OA
HETATM    3  C5  UNL     1       4.891  29.466  57.133  1.00  0.00     0.125 A 
HETATM    4  C6  UNL     1       4.355  30.598  56.649  1.00  0.00     0.059 A 
HETATM    5  C7  UNL     1       3.088  30.559  56.197  1.00  0.00     0.059 A 
HETATM    6  N2  UNL     1       2.604  31.744  55.720  1.00  0.00    -0.354 N 
ATOM      7  H2  UNL     1       1.653  31.809  55.357  1.00  0.00     0.166 HD
HETATM    8  C8  UNL     1       3.424  32.847  55.738  1.00  0.00     0.045 A 
HETATM    9  C9  UNL     1       2.970  34.057  55.264  1.00  0.00     0.030 A 
HETATM   10  C10 UNL     1       3.793  35.159  55.284  1.00  0.00     0.002 A 
HETATM   11  C11 UNL     1       5.082  35.102  55.768  1.00  0.00     0.001 A 
HETATM   12  C12 UNL     1       5.578  33.885  56.259  1.00  0.00     0.016 A 
HETATM   13  C13 UNL     1       4.746  32.832  56.223  1.00  0.00     0.021 A 
HETATM   14  C14 UNL     1       5.221  31.627  56.704  1.00  0.00     0.091 A 
HETATM   15  C15 UNL     1       2.701  29.176  56.409  1.00  0.00     0.005 A 
HETATM   16  C16 UNL     1       1.531  28.550  56.142  1.00  0.00     0.014 A 
HETATM   17  C17 UNL     1       1.448  27.198  56.455  1.00  0.00     0.001 A 
HETATM   18  C18 UNL     1       2.530  26.509  57.024  1.00  0.00     0.001 A 
HETATM   19  C19 UNL     1       3.723  27.172  57.291  1.00  0.00     0.015 A 
HETATM   20  C20 UNL     1       3.799  28.483  56.985  1.00  0.00     0.013 A 
ENDROOT
BRANCH   1  21
HETATM   21  C4  UNL     1       7.559  31.721  57.532  1.00  0.00     0.063 A 
HETATM   22  C3  UNL     1       8.550  31.650  56.583  1.00  0.00     0.032 A 
HETATM   23  C2  UNL     1       9.757  32.266  56.788  1.00  0.00     0.002 A 
HETATM   24  C1  UNL     1      10.030  32.978  57.945  1.00  0.00     0.000 A 
HETATM   25  C22 UNL     1       9.023  33.036  58.882  1.00  0.00     0.002 A 
HETATM   26  C21 UNL     1       7.809  32.426  58.694  1.00  0.00     0.032 A 
ENDBRANCH   1  21
TORSDOF 1
ENDMDL
MODEL 3
REMARK VINA RESULT: -9.486994717      2.214      2.838
REMARK  1 active torsions:
REMARK  status: ('A' for Active; 'I' for Inactive)
REMARK    1  A    between atoms: C4_4  and  N1_5 
ROOT
HETATM    1  N1  UNL     1       6.132  31.747  56.891  1.00  0.00    -0.215 N 
HETATM    2  O1  UNL     1       4.806  31.625  56.653  1.00  0.00    -0.228 OA
HETATM    3  C5  UNL     1       4.454  30.341  56.749  1.00  0.00     0.125 A 
HETATM    4  C6  UNL     1       5.593  29.697  57.050  1.00  0.00     0.059 A 
HETATM    5  C7  UNL     1       5.544  28.362  57.211  1.00  0.00     0.059 A 
HETATM    6  N2  UNL     1       6.738  27.770  57.514  1.00  0.00    -0.354 N 
ATOM      7  H2  UNL     1       6.797  26.761  57.654  1.00  0.00     0.166 HD
HETATM    8  C8  UNL     1       7.857  28.559  57.628  1.00  0.00     0.045 A 
HETATM    9  C9  UNL     1       9.076  27.996  57.933  1.00  0.00     0.030 A 
HETATM   10  C10 UNL     1      10.193  28.789  58.046  1.00  0.00     0.002 A 
HETATM   11  C11 UNL     1      10.146  30.154  57.863  1.00  0.00     0.001 A 
HETATM   12  C12 UNL     1       8.920  30.762  57.551  1.00  0.00     0.016 A 
HETATM   13  C13 UNL     1       7.851  29.956  57.449  1.00  0.00     0.021 A 
HETATM   14  C14 UNL     1       6.638  30.541  57.142  1.00  0.00     0.091 A 
HETATM   15  C15 UNL     1       4.146  28.049  56.982  1.00  0.00     0.005 A 
HETATM   16  C16 UNL     1       3.505  26.857  57.012  1.00  0.00     0.014 A 
HETATM   17  C17 UNL     1       2.140  26.863  56.750  1.00  0.00     0.001 A 
HETATM   18  C18 UNL     1       1.452  28.052  56.467  1.00  0.00     0.001 A 
HETATM   19  C19 UNL     1       2.130  29.267  56.441  1.00  0.00     0.015 A 
HETATM   20  C20 UNL     1       3.454  29.257  56.697  1.00  0.00     0.013 A 
ENDROOT
BRANCH   1  21
HETATM   21  C4  UNL     1       6.749  33.003  56.849  1.00  0.00     0.063 A 
HETATM   22  C3  UNL     1       6.831  33.716  58.022  1.00  0.00     0.032 A 
HETATM   23  C2  UNL     1       7.470  34.927  58.057  1.00  0.00     0.002 A 
HETATM   24  C1  UNL     1       8.055  35.482  56.930  1.00  0.00     0.000 A 
HETATM   25  C22 UNL     1       7.962  34.751  55.767  1.00  0.00     0.002 A 
HETATM   26  C21 UNL     1       7.325  33.537  55.713  1.00  0.00     0.032 A 
ENDBRANCH   1  21
TORSDOF 1
ENDMDL
MODEL 4
REMARK VINA RESULT: -9.486567007      2.790      5.089
REMARK  1 active torsions:
REMARK  status: ('A' for Active; 'I' for Inactive)
REMARK    1  A    between atoms: C4_4  and  N1_5 
ROOT
HETATM    1  N1  UNL     1       6.794  29.043  57.150  1.00  0.00    -0.215 N 
HETATM    2  O1  UNL     1       7.055  27.836  57.702  1.00  0.00    -0.228 OA
HETATM    3  C5  UNL     1       5.910  27.262  58.076  1.00  0.00     0.125 A 
HETATM    4  C6  UNL     1       4.959  28.147  57.737  1.00  0.00     0.059 A 
HETATM    5  C7  UNL     1       3.676  27.833  57.998  1.00  0.00     0.059 A 
HETATM    6  N2  UNL     1       2.760  28.777  57.629  1.00  0.00    -0.354 N 
ATOM      7  H2  UNL     1       1.764  28.625  57.788  1.00  0.00     0.166 HD
HETATM    8  C8  UNL     1       3.206  29.934  57.038  1.00  0.00     0.045 A 
HETATM    9  C9  UNL     1       2.311  30.907  56.652  1.00  0.00     0.030 A 
HETATM   10  C10 UNL     1       2.761  32.064  56.062  1.00  0.00     0.002 A 
HETATM   11  C11 UNL     1       4.100  32.298  55.833  1.00  0.00     0.001 A 
HETATM   12  C12 UNL     1       5.040  31.329  56.214  1.00  0.00     0.016 A 
HETATM   13  C13 UNL     1       4.564  30.213  56.786  1.00  0.00     0.021 A 
HETATM   14  C14 UNL     1       5.479  29.249  57.167  1.00  0.00     0.091 A 
HETATM   15  C15 UNL     1       3.772  26.523  58.615  1.00  0.00     0.005 A 
HETATM   16  C16 UNL     1       2.798  25.710  59.087  1.00  0.00     0.014 A 
HETATM   17  C17 UNL     1       3.195  24.493  59.632  1.00  0.00     0.001 A 
HETATM   18  C18 UNL     1       4.546  24.122  59.691  1.00  0.00     0.001 A 
HETATM   19  C19 UNL     1       5.531  24.972  59.201  1.00  0.00     0.015 A 
HETATM   20  C20 UNL     1       5.143  26.150  58.672  1.00  0.00     0.013 A 
ENDROOT
BRANCH   1  21
HETATM   21  C4  UNL     1       7.837  29.848  56.676  1.00  0.00     0.063 A 
HETATM   22  C3  UNL     1       8.386  30.761  57.544  1.00  0.00     0.032 A 
HETATM   23  C2  UNL     1       9.445  31.540  57.157  1.00  0.00     0.002 A 
HETATM   24  C1  UNL     1      10.002  31.446  55.892  1.00  0.00     0.000 A 
HETATM   25  C22 UNL     1       9.437  30.525  55.039  1.00  0.00     0.002 A 
HETATM   26  C21 UNL     1       8.377  29.737  55.409  1.00  0.00     0.032 A 
ENDBRANCH   1  21
TORSDOF 1
ENDMDL
MODEL 5
REMARK VINA RESULT: -9.320135195      2.221      7.099
REMARK  1 active torsions:
REMARK  status: ('A' for Active; 'I' for Inactive)
REMARK    1  A    between atoms: C4_4  and  N1_5 
ROOT
HETATM    1  N1  UNL     1       5.554  29.645  58.119  1.00  0.00    -0.215 N 
HETATM    2  O1  UNL     1       6.772  29.875  58.661  1.00  0.00    -0.228 OA
HETATM    3  C5  UNL     1       7.150  31.126  58.389  1.00  0.00     0.125 A 
HETATM    4  C6  UNL     1       6.136  31.640  57.674  1.00  0.00     0.059 A 
HETATM    5  C7  UNL     1       6.238  32.914  57.251  1.00  0.00     0.059 A 
HETATM    6  N2  UNL     1       5.173  33.373  56.530  1.00  0.00    -0.354 N 
ATOM      7  H2  UNL     1       5.163  34.327  56.168  1.00  0.00     0.166 HD
HETATM    8  C8  UNL     1       4.115  32.526  56.301  1.00  0.00     0.045 A 
HETATM    9  C9  UNL     1       3.025  32.957  55.579  1.00  0.00     0.030 A 
HETATM   10  C10 UNL     1       1.969  32.107  55.351  1.00  0.00     0.002 A 
HETATM   11  C11 UNL     1       1.953  30.813  55.827  1.00  0.00     0.001 A 
HETATM   12  C12 UNL     1       3.048  30.341  56.567  1.00  0.00     0.016 A 
HETATM   13  C13 UNL     1       4.060  31.199  56.768  1.00  0.00     0.021 A 
HETATM   14  C14 UNL     1       5.144  30.748  57.495  1.00  0.00     0.091 A 
HETATM   15  C15 UNL     1       7.531  33.332  57.761  1.00  0.00     0.005 A 
HETATM   16  C16 UNL     1       8.169  34.520  57.646  1.00  0.00     0.014 A 
HETATM   17  C17 UNL     1       9.417  34.632  58.248  1.00  0.00     0.001 A 
HETATM   18  C18 UNL     1       9.994  33.561  58.946  1.00  0.00     0.001 A 
HETATM   19  C19 UNL     1       9.322  32.348  59.052  1.00  0.00     0.015 A 
HETATM   20  C20 UNL     1       8.111  32.243  58.467  1.00  0.00     0.013 A 
ENDROOT
BRANCH   1  21
HETATM   21  C4  UNL     1       4.936  28.397  58.265  1.00  0.00     0.063 A 
HETATM   22  C3  UNL     1       5.415  27.352  57.512  1.00  0.00     0.032 A 
HETATM   23  C2  UNL     1       4.888  26.095  57.650  1.00  0.00     0.002 A 
HETATM   24  C1  UNL     1       3.862  25.823  58.541  1.00  0.00     0.000 A 
HETATM   25  C22 UNL     1       3.397  26.883  59.285  1.00  0.00     0.002 A 
HETATM   26  C21 UNL     1       3.913  28.149  59.160  1.00  0.00     0.032 A 
ENDBRANCH   1  21
TORSDOF 1
ENDMDL
