MODEL 1
REMARK VINA RESULT: -4.367924357      0.000      0.000
REMARK  9 active torsions:
REMARK  status: ('A' for Active; 'I' for Inactive)
REMARK    1  A    between atoms: C2_2  and  O1_3 
REMARK    2  A    between atoms: O1_3  and  C3_4 
REMARK    3  A    between atoms: C3_4  and  C4_5 
REMARK    4  A    between atoms: C4_5  and  N1_6 
REMARK    5  A    between atoms: N1_6  and  C5_8 
REMARK    6  A    between atoms: C5_8  and  C6_9 
REMARK    7  A    between atoms: C6_9  and  N2_10 
REMARK    8  A    between atoms: N2_10  and  C7_12 
REMARK    9  A    between atoms: C10_19  and  N5_20 
ROOT
HETATM    1  C7  UNL     1      59.343  32.264  47.684  1.00  0.00     0.694 A 
HETATM    2  N3  UNL     1      58.476  33.285  47.565  1.00  0.00    -0.180 N 
ATOM      3  H3  UNL     1      57.661  33.336  48.177  1.00  0.00     0.185 HD
HETATM    4  C8  UNL     1      58.684  34.255  46.629  1.00  0.00     0.109 A 
HETATM    5  C9  UNL     1      57.784  35.400  46.442  1.00  0.00     0.090 C 
HETATM    6  N4  UNL     1      59.763  34.159  45.839  1.00  0.00    -0.180 N 
ATOM      7  H4  UNL     1      59.933  34.876  45.133  1.00  0.00     0.185 HD
HETATM    8  C10 UNL     1      60.625  33.133  45.963  1.00  0.00     0.691 A 
HETATM    9  N6  UNL     1      60.430  32.175  46.882  1.00  0.00    -0.023 N 
ATOM     10  H6  UNL     1      61.086  31.398  46.974  1.00  0.00     0.203 HD
ENDROOT
BRANCH   1  11
HETATM   11  N2  UNL     1      59.213  31.322  48.542  1.00  0.00    -0.224 N 
ATOM     12  H2  UNL     1      59.291  31.536  49.537  1.00  0.00     0.177 HD
BRANCH  11  13
HETATM   13  C6  UNL     1      58.960  29.971  48.126  1.00  0.00     0.157 C 
BRANCH  13  14
HETATM   14  C5  UNL     1      57.593  29.873  47.426  1.00  0.00     0.139 C 
BRANCH  14  15
HETATM   15  N1  UNL     1      56.574  30.497  48.174  1.00  0.00    -0.399 N 
ATOM     16  H1  UNL     1      56.721  31.415  48.592  1.00  0.00     0.158 HD
BRANCH  15  17
HETATM   17  C4  UNL     1      55.350  29.820  48.331  1.00  0.00     0.081 C 
BRANCH  17  18
HETATM   18  C3  UNL     1      54.477  30.165  49.471  1.00  0.00     0.211 C 
BRANCH  18  19
HETATM   19  O1  UNL     1      54.594  29.467  50.629  1.00  0.00    -0.387 OA
BRANCH  19  20
HETATM   20  C2  UNL     1      55.538  29.885  51.526  1.00  0.00     0.163 C 
HETATM   21  C1  UNL     1      55.532  31.385  51.733  1.00  0.00     0.033 C 
ENDBRANCH  19  20
ENDBRANCH  18  19
ENDBRANCH  17  18
ENDBRANCH  15  17
ENDBRANCH  14  15
ENDBRANCH  13  14
ENDBRANCH  11  13
ENDBRANCH   1  11
BRANCH   8  22
HETATM   22  N5  UNL     1      61.673  33.048  45.192  1.00  0.00    -0.234 N 
ATOM     23  H52 UNL     1      61.530  32.875  44.197  1.00  0.00     0.174 HD
ATOM     24  H51 UNL     1      62.612  33.150  45.577  1.00  0.00     0.174 HD
ENDBRANCH   8  22
TORSDOF 9
ENDMDL
MODEL 2
REMARK VINA RESULT: -3.271835196      0.682      1.983
REMARK  9 active torsions:
REMARK  status: ('A' for Active; 'I' for Inactive)
REMARK    1  A    between atoms: C2_2  and  O1_3 
REMARK    2  A    between atoms: O1_3  and  C3_4 
REMARK    3  A    between atoms: C3_4  and  C4_5 
REMARK    4  A    between atoms: C4_5  and  N1_6 
REMARK    5  A    between atoms: N1_6  and  C5_8 
REMARK    6  A    between atoms: C5_8  and  C6_9 
REMARK    7  A    between atoms: C6_9  and  N2_10 
REMARK    8  A    between atoms: N2_10  and  C7_12 
REMARK    9  A    between atoms: C10_19  and  N5_20 
ROOT
HETATM    1  C7  UNL     1      59.236  32.367  47.731  1.00  0.00     0.694 A 
HETATM    2  N3  UNL     1      60.288  32.192  46.912  1.00  0.00    -0.180 N 
ATOM      3  H3  UNL     1      60.903  31.387  47.037  1.00  0.00     0.185 HD
HETATM    4  C8  UNL     1      60.537  33.088  45.915  1.00  0.00     0.109 A 
HETATM    5  C9  UNL     1      61.663  32.962  44.981  1.00  0.00     0.090 C 
HETATM    6  N4  UNL     1      59.712  34.136  45.777  1.00  0.00    -0.180 N 
ATOM      7  H4  UNL     1      59.884  34.816  45.036  1.00  0.00     0.185 HD
HETATM    8  C10 UNL     1      58.661  34.306  46.601  1.00  0.00     0.691 A 
HETATM    9  N6  UNL     1      58.408  33.429  47.585  1.00  0.00    -0.023 N 
ATOM     10  H6  UNL     1      57.611  33.560  48.209  1.00  0.00     0.203 HD
ENDROOT
BRANCH   1  11
HETATM   11  N2  UNL     1      58.940  31.565  48.684  1.00  0.00    -0.224 N 
ATOM     12  H2  UNL     1      58.765  31.937  49.617  1.00  0.00     0.177 HD
BRANCH  11  13
HETATM   13  C6  UNL     1      58.853  30.148  48.460  1.00  0.00     0.157 C 
BRANCH  13  14
HETATM   14  C5  UNL     1      57.609  29.816  47.616  1.00  0.00     0.139 C 
BRANCH  14  15
HETATM   15  N1  UNL     1      56.469  30.512  48.065  1.00  0.00    -0.399 N 
ATOM     16  H1  UNL     1      56.489  31.525  48.185  1.00  0.00     0.158 HD
BRANCH  15  17
HETATM   17  C4  UNL     1      55.302  29.776  48.344  1.00  0.00     0.081 C 
BRANCH  17  18
HETATM   18  C3  UNL     1      54.458  30.170  49.491  1.00  0.00     0.211 C 
BRANCH  18  19
HETATM   19  O1  UNL     1      54.567  29.486  50.658  1.00  0.00    -0.387 OA
BRANCH  19  20
HETATM   20  C2  UNL     1      55.541  29.882  51.534  1.00  0.00     0.163 C 
HETATM   21  C1  UNL     1      55.562  31.380  51.754  1.00  0.00     0.033 C 
ENDBRANCH  19  20
ENDBRANCH  18  19
ENDBRANCH  17  18
ENDBRANCH  15  17
ENDBRANCH  14  15
ENDBRANCH  13  14
ENDBRANCH  11  13
ENDBRANCH   1  11
BRANCH   8  22
HETATM   22  N5  UNL     1      57.863  35.326  46.460  1.00  0.00    -0.234 N 
ATOM     23  H52 UNL     1      57.735  35.717  45.527  1.00  0.00     0.174 HD
ATOM     24  H51 UNL     1      57.381  35.725  47.266  1.00  0.00     0.174 HD
ENDBRANCH   8  22
TORSDOF 9
ENDMDL
MODEL 3
REMARK VINA RESULT: -3.143154670      1.292      2.098
REMARK  9 active torsions:
REMARK  status: ('A' for Active; 'I' for Inactive)
REMARK    1  A    between atoms: C2_2  and  O1_3 
REMARK    2  A    between atoms: O1_3  and  C3_4 
REMARK    3  A    between atoms: C3_4  and  C4_5 
REMARK    4  A    between atoms: C4_5  and  N1_6 
REMARK    5  A    between atoms: N1_6  and  C5_8 
REMARK    6  A    between atoms: C5_8  and  C6_9 
REMARK    7  A    between atoms: C6_9  and  N2_10 
REMARK    8  A    between atoms: N2_10  and  C7_12 
REMARK    9  A    between atoms: C10_19  and  N5_20 
ROOT
HETATM    1  C7  UNL     1      59.565  31.130  47.803  1.00  0.00     0.694 A 
HETATM    2  N3  UNL     1      60.144  31.631  46.697  1.00  0.00    -0.180 N 
ATOM      3  H3  UNL     1      60.613  31.007  46.040  1.00  0.00     0.185 HD
HETATM    4  C8  UNL     1      60.108  32.972  46.452  1.00  0.00     0.109 A 
HETATM    5  C9  UNL     1      60.715  33.591  45.267  1.00  0.00     0.090 C 
HETATM    6  N4  UNL     1      59.487  33.767  47.336  1.00  0.00    -0.180 N 
ATOM      7  H4  UNL     1      59.450  34.773  47.167  1.00  0.00     0.185 HD
HETATM    8  C10 UNL     1      58.910  33.258  48.441  1.00  0.00     0.691 A 
HETATM    9  N6  UNL     1      58.940  31.940  48.690  1.00  0.00    -0.023 N 
ATOM     10  H6  UNL     1      58.502  31.557  49.529  1.00  0.00     0.203 HD
ENDROOT
BRANCH   1  11
HETATM   11  N2  UNL     1      59.557  29.884  48.094  1.00  0.00    -0.224 N 
ATOM     12  H2  UNL     1      60.440  29.376  48.151  1.00  0.00     0.177 HD
BRANCH  11  13
HETATM   13  C6  UNL     1      58.324  29.189  48.342  1.00  0.00     0.157 C 
BRANCH  13  14
HETATM   14  C5  UNL     1      57.230  29.678  47.375  1.00  0.00     0.139 C 
BRANCH  14  15
HETATM   15  N1  UNL     1      56.218  30.393  48.047  1.00  0.00    -0.399 N 
ATOM     16  H1  UNL     1      56.320  31.390  48.235  1.00  0.00     0.158 HD
BRANCH  15  17
HETATM   17  C4  UNL     1      55.064  29.697  48.453  1.00  0.00     0.081 C 
BRANCH  17  18
HETATM   18  C3  UNL     1      54.371  30.109  49.690  1.00  0.00     0.211 C 
BRANCH  18  19
HETATM   19  O1  UNL     1      54.635  29.452  50.848  1.00  0.00    -0.387 OA
BRANCH  19  20
HETATM   20  C2  UNL     1      55.642  29.939  51.634  1.00  0.00     0.163 C 
HETATM   21  C1  UNL     1      55.609  31.447  51.768  1.00  0.00     0.033 C 
ENDBRANCH  19  20
ENDBRANCH  18  19
ENDBRANCH  17  18
ENDBRANCH  15  17
ENDBRANCH  14  15
ENDBRANCH  13  14
ENDBRANCH  11  13
ENDBRANCH   1  11
BRANCH   8  22
HETATM   22  N5  UNL     1      58.307  34.037  49.295  1.00  0.00    -0.234 N 
ATOM     23  H52 UNL     1      58.153  33.691  50.242  1.00  0.00     0.174 HD
ATOM     24  H51 UNL     1      57.994  34.968  49.019  1.00  0.00     0.174 HD
ENDBRANCH   8  22
TORSDOF 9
ENDMDL
MODEL 4
REMARK VINA RESULT: -2.762925485      1.147      1.416
REMARK  9 active torsions:
REMARK  status: ('A' for Active; 'I' for Inactive)
REMARK    1  A    between atoms: C2_2  and  O1_3 
REMARK    2  A    between atoms: O1_3  and  C3_4 
REMARK    3  A    between atoms: C3_4  and  C4_5 
REMARK    4  A    between atoms: C4_5  and  N1_6 
REMARK    5  A    between atoms: N1_6  and  C5_8 
REMARK    6  A    between atoms: C5_8  and  C6_9 
REMARK    7  A    between atoms: C6_9  and  N2_10 
REMARK    8  A    between atoms: N2_10  and  C7_12 
REMARK    9  A    between atoms: C10_19  and  N5_20 
ROOT
HETATM    1  C7  UNL     1      59.682  31.288  47.726  1.00  0.00     0.694 A 
HETATM    2  N3  UNL     1      58.941  31.919  48.654  1.00  0.00    -0.180 N 
ATOM      3  H3  UNL     1      58.581  31.402  49.457  1.00  0.00     0.185 HD
HETATM    4  C8  UNL     1      58.667  33.249  48.525  1.00  0.00     0.109 A 
HETATM    5  C9  UNL     1      57.869  34.006  49.497  1.00  0.00     0.090 C 
HETATM    6  N4  UNL     1      59.152  33.900  47.457  1.00  0.00    -0.180 N 
ATOM      7  H4  UNL     1      58.956  34.895  47.345  1.00  0.00     0.185 HD
HETATM    8  C10 UNL     1      59.892  33.261  46.532  1.00  0.00     0.691 A 
HETATM    9  N6  UNL     1      60.167  31.953  46.651  1.00  0.00    -0.023 N 
ATOM     10  H6  UNL     1      60.728  31.472  45.947  1.00  0.00     0.203 HD
ENDROOT
BRANCH   1  11
HETATM   11  N2  UNL     1      59.980  30.045  47.785  1.00  0.00    -0.224 N 
ATOM     12  H2  UNL     1      60.961  29.765  47.817  1.00  0.00     0.177 HD
BRANCH  11  13
HETATM   13  C6  UNL     1      58.956  29.037  47.807  1.00  0.00     0.157 C 
BRANCH  13  14
HETATM   14  C5  UNL     1      57.709  29.558  48.545  1.00  0.00     0.139 C 
BRANCH  14  15
HETATM   15  N1  UNL     1      56.671  29.887  47.651  1.00  0.00    -0.399 N 
ATOM     16  H1  UNL     1      56.815  29.842  46.643  1.00  0.00     0.158 HD
BRANCH  15  17
HETATM   17  C4  UNL     1      55.429  30.282  48.184  1.00  0.00     0.081 C 
BRANCH  17  18
HETATM   18  C3  UNL     1      54.782  29.435  49.207  1.00  0.00     0.211 C 
BRANCH  18  19
HETATM   19  O1  UNL     1      54.437  29.984  50.400  1.00  0.00    -0.387 OA
BRANCH  19  20
HETATM   20  C2  UNL     1      55.375  29.970  51.395  1.00  0.00     0.163 C 
HETATM   21  C1  UNL     1      55.730  31.357  51.889  1.00  0.00     0.033 C 
ENDBRANCH  19  20
ENDBRANCH  18  19
ENDBRANCH  17  18
ENDBRANCH  15  17
ENDBRANCH  14  15
ENDBRANCH  13  14
ENDBRANCH  11  13
ENDBRANCH   1  11
BRANCH   8  22
HETATM   22  N5  UNL     1      60.360  33.902  45.497  1.00  0.00    -0.234 N 
ATOM     23  H52 UNL     1      61.355  34.128  45.477  1.00  0.00     0.174 HD
ATOM     24  H51 UNL     1      59.746  34.171  44.729  1.00  0.00     0.174 HD
ENDBRANCH   8  22
TORSDOF 9
ENDMDL
MODEL 5
REMARK VINA RESULT: -2.409465387      2.685      6.212
REMARK  9 active torsions:
REMARK  status: ('A' for Active; 'I' for Inactive)
REMARK    1  A    between atoms: C2_2  and  O1_3 
REMARK    2  A    between atoms: O1_3  and  C3_4 
REMARK    3  A    between atoms: C3_4  and  C4_5 
REMARK    4  A    between atoms: C4_5  and  N1_6 
REMARK    5  A    between atoms: N1_6  and  C5_8 
REMARK    6  A    between atoms: C5_8  and  C6_9 
REMARK    7  A    between atoms: C6_9  and  N2_10 
REMARK    8  A    between atoms: N2_10  and  C7_12 
REMARK    9  A    between atoms: C10_19  and  N5_20 
ROOT
HETATM    1  C7  UNL     1      57.096  29.759  48.674  1.00  0.00     0.694 A 
HETATM    2  N3  UNL     1      57.009  29.783  50.016  1.00  0.00    -0.180 N 
ATOM      3  H3  UNL     1      57.842  29.624  50.583  1.00  0.00     0.185 HD
HETATM    4  C8  UNL     1      55.811  30.020  50.621  1.00  0.00     0.109 A 
HETATM    5  C9  UNL     1      55.639  30.064  52.079  1.00  0.00     0.090 C 
HETATM    6  N4  UNL     1      54.734  30.224  49.849  1.00  0.00    -0.180 N 
ATOM      7  H4  UNL     1      53.829  30.402  50.286  1.00  0.00     0.185 HD
HETATM    8  C10 UNL     1      54.828  30.197  48.506  1.00  0.00     0.691 A 
HETATM    9  N6  UNL     1      56.003  29.966  47.901  1.00  0.00    -0.023 N 
ATOM     10  H6  UNL     1      56.071  29.946  46.883  1.00  0.00     0.203 HD
ENDROOT
BRANCH   1  11
HETATM   11  N2  UNL     1      58.187  29.548  48.040  1.00  0.00    -0.224 N 
ATOM     12  H2  UNL     1      58.534  28.593  47.941  1.00  0.00     0.177 HD
BRANCH  11  13
HETATM   13  C6  UNL     1      58.932  30.633  47.464  1.00  0.00     0.157 C 
BRANCH  13  14
HETATM   14  C5  UNL     1      59.510  31.533  48.571  1.00  0.00     0.139 C 
BRANCH  14  15
HETATM   15  N1  UNL     1      58.829  32.763  48.657  1.00  0.00    -0.399 N 
ATOM     16  H1  UNL     1      58.802  33.285  49.533  1.00  0.00     0.158 HD
BRANCH  15  17
HETATM   17  C4  UNL     1      58.187  33.255  47.505  1.00  0.00     0.081 C 
BRANCH  17  18
HETATM   18  C3  UNL     1      58.939  34.121  46.575  1.00  0.00     0.211 C 
BRANCH  18  19
HETATM   19  O1  UNL     1      60.286  33.983  46.484  1.00  0.00    -0.387 OA
BRANCH  19  20
HETATM   20  C2  UNL     1      60.769  33.122  45.537  1.00  0.00     0.163 C 
HETATM   21  C1  UNL     1      59.913  33.077  44.289  1.00  0.00     0.033 C 
ENDBRANCH  19  20
ENDBRANCH  18  19
ENDBRANCH  17  18
ENDBRANCH  15  17
ENDBRANCH  14  15
ENDBRANCH  13  14
ENDBRANCH  11  13
ENDBRANCH   1  11
BRANCH   8  22
HETATM   22  N5  UNL     1      53.777  30.398  47.762  1.00  0.00    -0.234 N 
ATOM     23  H52 UNL     1      53.874  30.985  46.934  1.00  0.00     0.174 HD
ATOM     24  H51 UNL     1      52.879  29.979  48.004  1.00  0.00     0.174 HD
ENDBRANCH   8  22
TORSDOF 9
ENDMDL
