MODEL 1
REMARK VINA RESULT: -8.554867186      0.000      0.000
REMARK  14 active torsions:
REMARK  status: ('A' for Active; 'I' for Inactive)
REMARK    1  A    between atoms: C2_2  and  C3_3 
REMARK    2  A    between atoms: C3_3  and  C4_4 
REMARK    3  A    between atoms: C4_4  and  C5_5 
REMARK    4  A    between atoms: N2_13  and  C10_14 
REMARK    5  A    between atoms: C10_14  and  C11_15 
REMARK       I    between atoms: C11_15  and  N3_17 
REMARK    6  A    between atoms: N3_17  and  C12_19 
REMARK    7  A    between atoms: C12_19  and  C13_20 
REMARK    8  A    between atoms: C13_20  and  C14_21 
REMARK    9  A    between atoms: C14_21  and  N4_22 
REMARK   10  A    between atoms: N5_25  and  C17_26 
REMARK   11  A    between atoms: C17_26  and  C18_27 
REMARK   12  A    between atoms: C17_26  and  C20_29 
REMARK   13  A    between atoms: C25_35  and  C26_36 
REMARK   14  A    between atoms: N7_41  and  C29_42 
ROOT
HETATM    1  C5  UNL     1      22.198  32.424  13.820  1.00  0.00     0.041 A 
HETATM    2  C6  UNL     1      21.100  33.227  14.289  1.00  0.00     0.052 A 
HETATM    3  C7  UNL     1      20.229  32.108  13.869  1.00  0.00    -0.018 A 
HETATM    4  C8  UNL     1      21.242  31.427  13.450  1.00  0.00     0.025 A 
HETATM    5  N1  UNL     1      21.225  30.132  12.804  1.00  0.00    -0.311 N 
ATOM      6  H1  UNL     1      21.995  29.956  12.158  1.00  0.00     0.170 HD
HETATM    7  C9  UNL     1      20.294  29.074  12.939  1.00  0.00     0.330 C 
HETATM    8  O1  UNL     1      20.684  27.913  12.613  1.00  0.00    -0.246 OA
HETATM    9  N2  UNL     1      18.953  29.206  13.412  1.00  0.00    -0.257 N 
HETATM   10  C24 UNL     1      18.313  30.475  13.646  1.00  0.00     0.263 C 
HETATM   11  O3  UNL     1      17.035  30.375  13.597  1.00  0.00    -0.267 OA
HETATM   12  C25 UNL     1      18.774  31.795  13.909  1.00  0.00     0.055 C 
ENDROOT
BRANCH   9  13
HETATM   13  C10 UNL     1      18.243  27.994  13.657  1.00  0.00     0.239 C 
BRANCH  13  14
HETATM   14  C11 UNL     1      17.865  27.388  12.342  1.00  0.00     0.236 C 
HETATM   15  O2  UNL     1      17.838  26.135  12.202  1.00  0.00    -0.272 OA
HETATM   16  N3  UNL     1      17.535  28.211  11.245  1.00  0.00    -0.360 N 
ATOM     17  H3  UNL     1      17.553  29.225  11.361  1.00  0.00     0.162 HD
BRANCH  16  18
HETATM   18  C12 UNL     1      17.178  27.663   9.983  1.00  0.00     0.124 C 
BRANCH  18  19
HETATM   19  C13 UNL     1      18.328  27.552   9.018  1.00  0.00     0.050 C 
BRANCH  19  20
HETATM   20  C14 UNL     1      18.412  26.056   8.661  1.00  0.00     0.274 C 
BRANCH  20  21
HETATM   21  N4  UNL     1      19.762  25.588   8.658  1.00  0.00     0.091 N 
HETATM   22  C15 UNL     1      20.093  24.671   7.606  1.00  0.00     0.302 C 
HETATM   23  C16 UNL     1      21.483  24.123   7.933  1.00  0.00     0.303 C 
HETATM   24  N5  UNL     1      22.209  25.164   8.605  1.00  0.00     0.096 N 
HETATM   25  C22 UNL     1      21.736  25.323   9.959  1.00  0.00     0.303 C 
HETATM   26  C23 UNL     1      20.223  25.132   9.931  1.00  0.00     0.302 C 
BRANCH  24  27
HETATM   27  C17 UNL     1      23.614  24.943   8.538  1.00  0.00     0.222 C 
BRANCH  27  28
HETATM   28  C18 UNL     1      24.032  23.658   7.882  1.00  0.00     0.031 C 
HETATM   29  C19 UNL     1      24.899  24.025   6.670  1.00  0.00     0.007 C 
ENDBRANCH  27  28
BRANCH  27  30
HETATM   30  C20 UNL     1      24.221  25.017   9.937  1.00  0.00     0.031 C 
HETATM   31  C21 UNL     1      25.306  26.096   9.929  1.00  0.00     0.007 C 
ENDBRANCH  27  30
ENDBRANCH  24  27
ENDBRANCH  20  21
ENDBRANCH  19  20
ENDBRANCH  18  19
ENDBRANCH  16  18
ENDBRANCH  13  14
ENDBRANCH   9  13
BRANCH  12  32
HETATM   32  C26 UNL     1      18.115  32.455  15.067  1.00  0.00     0.028 A 
HETATM   33  C27 UNL     1      18.034  32.037  16.379  1.00  0.00     0.035 A 
HETATM   34  C28 UNL     1      18.710  30.857  16.988  1.00  0.00     0.070 C 
HETATM   35  N6  UNL     1      17.243  32.911  17.067  1.00  0.00    -0.302 N 
HETATM   36  N7  UNL     1      16.818  33.858  16.279  1.00  0.00    -0.291 N 
ATOM     37  H6  UNL     1      17.017  32.834  18.058  1.00  0.00     0.187 HD
HETATM   38  C34 UNL     1      17.330  33.615  15.043  1.00  0.00     0.038 A 
HETATM   39  C35 UNL     1      17.020  34.465  13.880  1.00  0.00     0.071 C 
BRANCH  36  40
HETATM   40  C29 UNL     1      15.954  34.969  16.665  1.00  0.00     0.112 C 
HETATM   41  C30 UNL     1      15.301  34.678  17.997  1.00  0.00     0.053 C 
HETATM   42  C31 UNL     1      15.033  35.945  18.777  1.00  0.00     0.169 C 
HETATM   43  O4  UNL     1      16.161  36.690  19.014  1.00  0.00    -0.391 OA
HETATM   44  C32 UNL     1      17.253  36.222  18.294  1.00  0.00     0.169 C 
HETATM   45  C33 UNL     1      16.859  36.189  16.834  1.00  0.00     0.053 C 
ENDBRANCH  36  40
ENDBRANCH  12  32
BRANCH   1  46
HETATM   46  C4  UNL     1      23.388  32.207  14.651  1.00  0.00     0.011 C 
BRANCH  46  47
HETATM   47  C3  UNL     1      23.585  32.842  15.938  1.00  0.00     0.000 C 
BRANCH  47  48
HETATM   48  C2  UNL     1      22.682  32.456  17.071  1.00  0.00    -0.005 C 
HETATM   49  C1  UNL     1      22.077  33.666  17.754  1.00  0.00     0.005 C 
ENDBRANCH  47  48
ENDBRANCH  46  47
ENDBRANCH   1  46
TORSDOF 14
ENDMDL
MODEL 2
REMARK VINA RESULT: -8.544512458      3.007      9.449
REMARK  14 active torsions:
REMARK  status: ('A' for Active; 'I' for Inactive)
REMARK    1  A    between atoms: C2_2  and  C3_3 
REMARK    2  A    between atoms: C3_3  and  C4_4 
REMARK    3  A    between atoms: C4_4  and  C5_5 
REMARK    4  A    between atoms: N2_13  and  C10_14 
REMARK    5  A    between atoms: C10_14  and  C11_15 
REMARK       I    between atoms: C11_15  and  N3_17 
REMARK    6  A    between atoms: N3_17  and  C12_19 
REMARK    7  A    between atoms: C12_19  and  C13_20 
REMARK    8  A    between atoms: C13_20  and  C14_21 
REMARK    9  A    between atoms: C14_21  and  N4_22 
REMARK   10  A    between atoms: N5_25  and  C17_26 
REMARK   11  A    between atoms: C17_26  and  C18_27 
REMARK   12  A    between atoms: C17_26  and  C20_29 
REMARK   13  A    between atoms: C25_35  and  C26_36 
REMARK   14  A    between atoms: N7_41  and  C29_42 
ROOT
HETATM    1  C5  UNL     1      17.202  28.194  11.394  1.00  0.00     0.041 A 
HETATM    2  C6  UNL     1      16.688  29.260  12.213  1.00  0.00     0.052 A 
HETATM    3  C7  UNL     1      17.882  29.053  13.061  1.00  0.00    -0.018 A 
HETATM    4  C8  UNL     1      18.299  28.094  12.304  1.00  0.00     0.025 A 
HETATM    5  N1  UNL     1      19.475  27.271  12.495  1.00  0.00    -0.311 N 
ATOM      6  H1  UNL     1      19.415  26.328  12.110  1.00  0.00     0.170 HD
HETATM    7  C9  UNL     1      20.696  27.586  13.137  1.00  0.00     0.330 C 
HETATM    8  O1  UNL     1      21.709  26.888  12.834  1.00  0.00    -0.246 OA
HETATM    9  N2  UNL     1      20.882  28.626  14.100  1.00  0.00    -0.257 N 
HETATM   10  C24 UNL     1      19.798  29.378  14.676  1.00  0.00     0.263 C 
HETATM   11  O3  UNL     1      20.127  29.887  15.807  1.00  0.00    -0.267 OA
HETATM   12  C25 UNL     1      18.464  29.675  14.283  1.00  0.00     0.055 C 
ENDROOT
BRANCH   9  13
HETATM   13  C10 UNL     1      22.226  28.905  14.481  1.00  0.00     0.239 C 
BRANCH  13  14
HETATM   14  C11 UNL     1      22.452  30.382  14.391  1.00  0.00     0.236 C 
HETATM   15  O2  UNL     1      22.401  30.967  13.275  1.00  0.00    -0.272 OA
HETATM   16  N3  UNL     1      22.722  31.135  15.552  1.00  0.00    -0.360 N 
ATOM     17  H3  UNL     1      22.758  30.661  16.455  1.00  0.00     0.162 HD
BRANCH  16  18
HETATM   18  C12 UNL     1      22.945  32.539  15.495  1.00  0.00     0.124 C 
BRANCH  18  19
HETATM   19  C13 UNL     1      21.701  33.362  15.702  1.00  0.00     0.050 C 
BRANCH  19  20
HETATM   20  C14 UNL     1      21.537  33.467  17.230  1.00  0.00     0.274 C 
BRANCH  20  21
HETATM   21  N4  UNL     1      21.096  34.767  17.626  1.00  0.00     0.091 N 
HETATM   22  C15 UNL     1      21.327  35.812  16.671  1.00  0.00     0.302 C 
HETATM   23  C16 UNL     1      21.009  37.127  17.385  1.00  0.00     0.303 C 
HETATM   24  N5  UNL     1      19.962  36.861  18.331  1.00  0.00     0.096 N 
HETATM   25  C22 UNL     1      20.474  36.137  19.469  1.00  0.00     0.303 C 
HETATM   26  C23 UNL     1      21.506  35.145  18.942  1.00  0.00     0.302 C 
BRANCH  24  27
HETATM   27  C17 UNL     1      19.284  38.057  18.702  1.00  0.00     0.222 C 
BRANCH  27  28
HETATM   28  C18 UNL     1      17.790  38.025  18.546  1.00  0.00     0.031 C 
HETATM   29  C19 UNL     1      17.468  38.540  17.136  1.00  0.00     0.007 C 
ENDBRANCH  27  28
BRANCH  27  30
HETATM   30  C20 UNL     1      19.849  39.241  17.923  1.00  0.00     0.031 C 
HETATM   31  C21 UNL     1      20.180  40.354  18.920  1.00  0.00     0.007 C 
ENDBRANCH  27  30
ENDBRANCH  24  27
ENDBRANCH  20  21
ENDBRANCH  19  20
ENDBRANCH  18  19
ENDBRANCH  16  18
ENDBRANCH  13  14
ENDBRANCH   9  13
BRANCH  12  32
HETATM   32  C26 UNL     1      18.102  31.114  14.375  1.00  0.00     0.028 A 
HETATM   33  C27 UNL     1      18.627  32.191  13.694  1.00  0.00     0.035 A 
HETATM   34  C28 UNL     1      19.621  32.153  12.584  1.00  0.00     0.070 C 
HETATM   35  N6  UNL     1      18.059  33.333  14.180  1.00  0.00    -0.302 N 
HETATM   36  N7  UNL     1      17.206  33.052  15.124  1.00  0.00    -0.291 N 
ATOM     37  H6  UNL     1      18.272  34.274  13.850  1.00  0.00     0.187 HD
HETATM   38  C34 UNL     1      17.202  31.700  15.276  1.00  0.00     0.038 A 
HETATM   39  C35 UNL     1      16.382  31.024  16.295  1.00  0.00     0.071 C 
BRANCH  36  40
HETATM   40  C29 UNL     1      16.407  34.018  15.872  1.00  0.00     0.112 C 
HETATM   41  C30 UNL     1      15.515  33.297  16.858  1.00  0.00     0.053 C 
HETATM   42  C31 UNL     1      15.251  34.135  18.088  1.00  0.00     0.169 C 
HETATM   43  O4  UNL     1      16.393  34.510  18.750  1.00  0.00    -0.391 OA
HETATM   44  C32 UNL     1      17.537  34.222  18.015  1.00  0.00     0.169 C 
HETATM   45  C33 UNL     1      17.390  34.881  16.662  1.00  0.00     0.053 C 
ENDBRANCH  36  40
ENDBRANCH  12  32
BRANCH   1  46
HETATM   46  C4  UNL     1      17.304  28.339   9.937  1.00  0.00     0.011 C 
BRANCH  46  47
HETATM   47  C3  UNL     1      17.951  27.363   9.085  1.00  0.00     0.000 C 
BRANCH  47  48
HETATM   48  C2  UNL     1      17.650  25.911   9.303  1.00  0.00    -0.005 C 
HETATM   49  C1  UNL     1      17.201  25.225   8.029  1.00  0.00     0.005 C 
ENDBRANCH  47  48
ENDBRANCH  46  47
ENDBRANCH   1  46
TORSDOF 14
ENDMDL
MODEL 3
REMARK VINA RESULT: -8.379372582      3.477     11.976
REMARK  14 active torsions:
REMARK  status: ('A' for Active; 'I' for Inactive)
REMARK    1  A    between atoms: C2_2  and  C3_3 
REMARK    2  A    between atoms: C3_3  and  C4_4 
REMARK    3  A    between atoms: C4_4  and  C5_5 
REMARK    4  A    between atoms: N2_13  and  C10_14 
REMARK    5  A    between atoms: C10_14  and  C11_15 
REMARK       I    between atoms: C11_15  and  N3_17 
REMARK    6  A    between atoms: N3_17  and  C12_19 
REMARK    7  A    between atoms: C12_19  and  C13_20 
REMARK    8  A    between atoms: C13_20  and  C14_21 
REMARK    9  A    between atoms: C14_21  and  N4_22 
REMARK   10  A    between atoms: N5_25  and  C17_26 
REMARK   11  A    between atoms: C17_26  and  C18_27 
REMARK   12  A    between atoms: C17_26  and  C20_29 
REMARK   13  A    between atoms: C25_35  and  C26_36 
REMARK   14  A    between atoms: N7_41  and  C29_42 
ROOT
HETATM    1  C5  UNL     1      16.707  34.331  15.351  1.00  0.00     0.041 A 
HETATM    2  C6  UNL     1      17.472  33.386  14.582  1.00  0.00     0.052 A 
HETATM    3  C7  UNL     1      18.631  33.804  15.401  1.00  0.00    -0.018 A 
HETATM    4  C8  UNL     1      17.909  34.649  16.058  1.00  0.00     0.025 A 
HETATM    5  N1  UNL     1      18.346  35.563  17.092  1.00  0.00    -0.311 N 
ATOM      6  H1  UNL     1      17.803  36.424  17.171  1.00  0.00     0.170 HD
HETATM    7  C9  UNL     1      19.417  35.435  18.008  1.00  0.00     0.330 C 
HETATM    8  O1  UNL     1      19.365  36.135  19.063  1.00  0.00    -0.246 OA
HETATM    9  N2  UNL     1      20.552  34.583  17.843  1.00  0.00    -0.257 N 
HETATM   10  C24 UNL     1      20.841  33.871  16.624  1.00  0.00     0.263 C 
HETATM   11  O3  UNL     1      22.086  33.579  16.534  1.00  0.00    -0.267 OA
HETATM   12  C25 UNL     1      20.068  33.431  15.514  1.00  0.00     0.055 C 
ENDROOT
BRANCH   9  13
HETATM   13  C10 UNL     1      21.419  34.455  18.966  1.00  0.00     0.239 C 
BRANCH  13  14
HETATM   14  C11 UNL     1      22.258  35.690  19.066  1.00  0.00     0.236 C 
HETATM   15  O2  UNL     1      22.702  36.071  20.183  1.00  0.00    -0.272 OA
HETATM   16  N3  UNL     1      22.561  36.442  17.912  1.00  0.00    -0.360 N 
ATOM     17  H3  UNL     1      22.204  36.131  17.008  1.00  0.00     0.162 HD
BRANCH  16  18
HETATM   18  C12 UNL     1      23.351  37.623  17.978  1.00  0.00     0.124 C 
BRANCH  18  19
HETATM   19  C13 UNL     1      22.656  38.852  17.454  1.00  0.00     0.050 C 
BRANCH  19  20
HETATM   20  C14 UNL     1      21.441  38.322  16.668  1.00  0.00     0.274 C 
BRANCH  20  21
HETATM   21  N4  UNL     1      20.227  38.950  17.084  1.00  0.00     0.091 N 
HETATM   22  C15 UNL     1      19.592  39.774  16.097  1.00  0.00     0.302 C 
HETATM   23  C16 UNL     1      18.471  40.525  16.819  1.00  0.00     0.303 C 
HETATM   24  N5  UNL     1      17.979  39.667  17.860  1.00  0.00     0.096 N 
HETATM   25  C22 UNL     1      18.916  39.607  18.956  1.00  0.00     0.303 C 
HETATM   26  C23 UNL     1      20.316  39.604  18.351  1.00  0.00     0.302 C 
BRANCH  24  27
HETATM   27  C17 UNL     1      16.673  40.052  18.275  1.00  0.00     0.222 C 
BRANCH  27  28
HETATM   28  C18 UNL     1      15.724  38.920  18.546  1.00  0.00     0.031 C 
HETATM   29  C19 UNL     1      15.634  38.755  20.069  1.00  0.00     0.007 C 
ENDBRANCH  27  28
BRANCH  27  30
HETATM   30  C20 UNL     1      16.055  40.995  17.246  1.00  0.00     0.031 C 
HETATM   31  C21 UNL     1      15.081  41.924  17.975  1.00  0.00     0.007 C 
ENDBRANCH  27  30
ENDBRANCH  24  27
ENDBRANCH  20  21
ENDBRANCH  19  20
ENDBRANCH  18  19
ENDBRANCH  16  18
ENDBRANCH  13  14
ENDBRANCH   9  13
BRANCH  12  32
HETATM   32  C26 UNL     1      20.283  32.008  15.143  1.00  0.00     0.028 A 
HETATM   33  C27 UNL     1      19.760  30.868  15.715  1.00  0.00     0.035 A 
HETATM   34  C28 UNL     1      18.730  30.795  16.790  1.00  0.00     0.070 C 
HETATM   35  N6  UNL     1      20.318  29.780  15.108  1.00  0.00    -0.302 N 
HETATM   36  N7  UNL     1      21.160  30.154  14.187  1.00  0.00    -0.291 N 
ATOM     37  H6  UNL     1      20.106  28.811  15.343  1.00  0.00     0.187 HD
HETATM   38  C34 UNL     1      21.169  31.514  14.176  1.00  0.00     0.038 A 
HETATM   39  C35 UNL     1      22.048  32.289  13.283  1.00  0.00     0.071 C 
BRANCH  36  40
HETATM   40  C29 UNL     1      21.942  29.268  13.332  1.00  0.00     0.112 C 
HETATM   41  C30 UNL     1      21.644  27.825  13.673  1.00  0.00     0.053 C 
HETATM   42  C31 UNL     1      21.785  26.925  12.467  1.00  0.00     0.169 C 
HETATM   43  O4  UNL     1      20.976  27.285  11.418  1.00  0.00    -0.391 OA
HETATM   44  C32 UNL     1      20.379  28.523  11.625  1.00  0.00     0.169 C 
HETATM   45  C33 UNL     1      21.480  29.523  11.897  1.00  0.00     0.053 C 
ENDBRANCH  36  40
ENDBRANCH  12  32
BRANCH   1  46
HETATM   46  C4  UNL     1      15.427  33.953  15.960  1.00  0.00     0.011 C 
BRANCH  46  47
HETATM   47  C3  UNL     1      15.301  33.498  17.329  1.00  0.00     0.000 C 
BRANCH  47  48
HETATM   48  C2  UNL     1      15.144  34.523  18.412  1.00  0.00    -0.005 C 
HETATM   49  C1  UNL     1      14.385  35.745  17.934  1.00  0.00     0.005 C 
ENDBRANCH  47  48
ENDBRANCH  46  47
ENDBRANCH   1  46
TORSDOF 14
ENDMDL
MODEL 4
REMARK VINA RESULT: -8.322248969      1.014      1.717
REMARK  14 active torsions:
REMARK  status: ('A' for Active; 'I' for Inactive)
REMARK    1  A    between atoms: C2_2  and  C3_3 
REMARK    2  A    between atoms: C3_3  and  C4_4 
REMARK    3  A    between atoms: C4_4  and  C5_5 
REMARK    4  A    between atoms: N2_13  and  C10_14 
REMARK    5  A    between atoms: C10_14  and  C11_15 
REMARK       I    between atoms: C11_15  and  N3_17 
REMARK    6  A    between atoms: N3_17  and  C12_19 
REMARK    7  A    between atoms: C12_19  and  C13_20 
REMARK    8  A    between atoms: C13_20  and  C14_21 
REMARK    9  A    between atoms: C14_21  and  N4_22 
REMARK   10  A    between atoms: N5_25  and  C17_26 
REMARK   11  A    between atoms: C17_26  and  C18_27 
REMARK   12  A    between atoms: C17_26  and  C20_29 
REMARK   13  A    between atoms: C25_35  and  C26_36 
REMARK   14  A    between atoms: N7_41  and  C29_42 
ROOT
HETATM    1  C5  UNL     1      22.156  32.462  13.845  1.00  0.00     0.041 A 
HETATM    2  C6  UNL     1      21.057  33.260  14.321  1.00  0.00     0.052 A 
HETATM    3  C7  UNL     1      20.187  32.141  13.897  1.00  0.00    -0.018 A 
HETATM    4  C8  UNL     1      21.201  31.465  13.472  1.00  0.00     0.025 A 
HETATM    5  N1  UNL     1      21.186  30.173  12.819  1.00  0.00    -0.311 N 
ATOM      6  H1  UNL     1      21.954  30.003  12.170  1.00  0.00     0.170 HD
HETATM    7  C9  UNL     1      20.258  29.112  12.951  1.00  0.00     0.330 C 
HETATM    8  O1  UNL     1      20.649  27.954  12.617  1.00  0.00    -0.246 OA
HETATM    9  N2  UNL     1      18.917  29.238  13.428  1.00  0.00    -0.257 N 
HETATM   10  C24 UNL     1      18.275  30.505  13.670  1.00  0.00     0.263 C 
HETATM   11  O3  UNL     1      16.997  30.402  13.624  1.00  0.00    -0.267 OA
HETATM   12  C25 UNL     1      18.733  31.824  13.940  1.00  0.00     0.055 C 
ENDROOT
BRANCH   9  13
HETATM   13  C10 UNL     1      18.211  28.024  13.668  1.00  0.00     0.239 C 
BRANCH  13  14
HETATM   14  C11 UNL     1      17.947  27.358  12.354  1.00  0.00     0.236 C 
HETATM   15  O2  UNL     1      17.357  27.982  11.431  1.00  0.00    -0.272 OA
HETATM   16  N3  UNL     1      18.355  26.026  12.135  1.00  0.00    -0.360 N 
ATOM     17  H3  UNL     1      18.836  25.523  12.881  1.00  0.00     0.162 HD
BRANCH  16  18
HETATM   18  C12 UNL     1      18.112  25.366  10.898  1.00  0.00     0.124 C 
BRANCH  18  19
HETATM   19  C13 UNL     1      19.248  25.476   9.916  1.00  0.00     0.050 C 
BRANCH  19  20
HETATM   20  C14 UNL     1      20.489  24.976  10.679  1.00  0.00     0.274 C 
BRANCH  20  21
HETATM   21  N4  UNL     1      21.574  24.691   9.794  1.00  0.00     0.091 N 
HETATM   22  C15 UNL     1      22.878  24.718  10.391  1.00  0.00     0.302 C 
HETATM   23  C16 UNL     1      23.882  24.632   9.239  1.00  0.00     0.303 C 
HETATM   24  N5  UNL     1      23.281  23.837   8.205  1.00  0.00     0.096 N 
HETATM   25  C22 UNL     1      22.256  24.586   7.518  1.00  0.00     0.303 C 
HETATM   26  C23 UNL     1      21.531  25.422   8.567  1.00  0.00     0.302 C 
BRANCH  24  27
HETATM   27  C17 UNL     1      24.264  23.314   7.318  1.00  0.00     0.222 C 
BRANCH  27  28
HETATM   28  C18 UNL     1      24.442  24.074   6.034  1.00  0.00     0.031 C 
HETATM   29  C19 UNL     1      25.654  23.471   5.312  1.00  0.00     0.007 C 
ENDBRANCH  27  28
BRANCH  27  30
HETATM   30  C20 UNL     1      23.956  21.853   7.002  1.00  0.00     0.031 C 
HETATM   31  C21 UNL     1      24.801  20.976   7.930  1.00  0.00     0.007 C 
ENDBRANCH  27  30
ENDBRANCH  24  27
ENDBRANCH  20  21
ENDBRANCH  19  20
ENDBRANCH  18  19
ENDBRANCH  16  18
ENDBRANCH  13  14
ENDBRANCH   9  13
BRANCH  12  32
HETATM   32  C26 UNL     1      18.076  32.476  15.103  1.00  0.00     0.028 A 
HETATM   33  C27 UNL     1      18.007  32.055  16.414  1.00  0.00     0.035 A 
HETATM   34  C28 UNL     1      18.698  30.880  17.018  1.00  0.00     0.070 C 
HETATM   35  N6  UNL     1      17.213  32.921  17.109  1.00  0.00    -0.302 N 
HETATM   36  N7  UNL     1      16.774  33.865  16.326  1.00  0.00    -0.291 N 
ATOM     37  H6  UNL     1      16.993  32.840  18.101  1.00  0.00     0.187 HD
HETATM   38  C34 UNL     1      17.280  33.629  15.085  1.00  0.00     0.038 A 
HETATM   39  C35 UNL     1      16.954  34.478  13.926  1.00  0.00     0.071 C 
BRANCH  36  40
HETATM   40  C29 UNL     1      15.902  34.968  16.718  1.00  0.00     0.112 C 
HETATM   41  C30 UNL     1      15.398  34.751  18.128  1.00  0.00     0.053 C 
HETATM   42  C31 UNL     1      15.150  36.061  18.840  1.00  0.00     0.169 C 
HETATM   43  O4  UNL     1      16.261  36.865  18.909  1.00  0.00    -0.391 OA
HETATM   44  C32 UNL     1      17.297  36.387  18.115  1.00  0.00     0.169 C 
HETATM   45  C33 UNL     1      16.762  36.231  16.710  1.00  0.00     0.053 C 
ENDBRANCH  36  40
ENDBRANCH  12  32
BRANCH   1  46
HETATM   46  C4  UNL     1      23.348  32.244  14.671  1.00  0.00     0.011 C 
BRANCH  46  47
HETATM   47  C3  UNL     1      23.554  32.884  15.954  1.00  0.00     0.000 C 
BRANCH  47  48
HETATM   48  C2  UNL     1      22.670  32.490  17.100  1.00  0.00    -0.005 C 
HETATM   49  C1  UNL     1      22.039  33.693  17.772  1.00  0.00     0.005 C 
ENDBRANCH  47  48
ENDBRANCH  46  47
ENDBRANCH   1  46
TORSDOF 14
ENDMDL
MODEL 5
REMARK VINA RESULT: -8.251922296      1.912      3.444
REMARK  14 active torsions:
REMARK  status: ('A' for Active; 'I' for Inactive)
REMARK    1  A    between atoms: C2_2  and  C3_3 
REMARK    2  A    between atoms: C3_3  and  C4_4 
REMARK    3  A    between atoms: C4_4  and  C5_5 
REMARK    4  A    between atoms: N2_13  and  C10_14 
REMARK    5  A    between atoms: C10_14  and  C11_15 
REMARK       I    between atoms: C11_15  and  N3_17 
REMARK    6  A    between atoms: N3_17  and  C12_19 
REMARK    7  A    between atoms: C12_19  and  C13_20 
REMARK    8  A    between atoms: C13_20  and  C14_21 
REMARK    9  A    between atoms: C14_21  and  N4_22 
REMARK   10  A    between atoms: N5_25  and  C17_26 
REMARK   11  A    between atoms: C17_26  and  C18_27 
REMARK   12  A    between atoms: C17_26  and  C20_29 
REMARK   13  A    between atoms: C25_35  and  C26_36 
REMARK   14  A    between atoms: N7_41  and  C29_42 
ROOT
HETATM    1  C5  UNL     1      22.274  32.509  13.983  1.00  0.00     0.041 A 
HETATM    2  C6  UNL     1      21.140  33.289  14.405  1.00  0.00     0.052 A 
HETATM    3  C7  UNL     1      20.312  32.148  13.955  1.00  0.00    -0.018 A 
HETATM    4  C8  UNL     1      21.357  31.489  13.580  1.00  0.00     0.025 A 
HETATM    5  N1  UNL     1      21.396  30.191  12.940  1.00  0.00    -0.311 N 
ATOM      6  H1  UNL     1      22.195  30.032  12.326  1.00  0.00     0.170 HD
HETATM    7  C9  UNL     1      20.485  29.112  13.043  1.00  0.00     0.330 C 
HETATM    8  O1  UNL     1      20.914  27.960  12.738  1.00  0.00    -0.246 OA
HETATM    9  N2  UNL     1      19.123  29.215  13.461  1.00  0.00    -0.257 N 
HETATM   10  C24 UNL     1      18.446  30.470  13.663  1.00  0.00     0.263 C 
HETATM   11  O3  UNL     1      17.173  30.340  13.563  1.00  0.00    -0.267 OA
HETATM   12  C25 UNL     1      18.864  31.801  13.938  1.00  0.00     0.055 C 
ENDROOT
BRANCH   9  13
HETATM   13  C10 UNL     1      18.433  27.988  13.683  1.00  0.00     0.239 C 
BRANCH  13  14
HETATM   14  C11 UNL     1      18.272  27.287  12.371  1.00  0.00     0.236 C 
HETATM   15  O2  UNL     1      17.562  27.793  11.460  1.00  0.00    -0.272 OA
HETATM   16  N3  UNL     1      18.914  26.053  12.138  1.00  0.00    -0.360 N 
ATOM     17  H3  UNL     1      19.492  25.646  12.874  1.00  0.00     0.162 HD
BRANCH  16  18
HETATM   18  C12 UNL     1      18.774  25.362  10.902  1.00  0.00     0.124 C 
BRANCH  18  19
HETATM   19  C13 UNL     1      20.049  25.277  10.105  1.00  0.00     0.050 C 
BRANCH  19  20
HETATM   20  C14 UNL     1      20.180  26.646   9.410  1.00  0.00     0.274 C 
BRANCH  20  21
HETATM   21  N4  UNL     1      19.522  26.661   8.142  1.00  0.00     0.091 N 
HETATM   22  C15 UNL     1      18.136  27.031   8.172  1.00  0.00     0.302 C 
HETATM   23  C16 UNL     1      17.584  26.746   6.774  1.00  0.00     0.303 C 
HETATM   24  N5  UNL     1      18.649  26.968   5.837  1.00  0.00     0.096 N 
HETATM   25  C22 UNL     1      19.609  25.891   5.893  1.00  0.00     0.303 C 
HETATM   26  C23 UNL     1      19.746  25.488   7.357  1.00  0.00     0.302 C 
BRANCH  24  27
HETATM   27  C17 UNL     1      18.146  27.185   4.523  1.00  0.00     0.222 C 
BRANCH  27  28
HETATM   28  C18 UNL     1      16.848  27.938   4.447  1.00  0.00     0.031 C 
HETATM   29  C19 UNL     1      17.187  29.402   4.138  1.00  0.00     0.007 C 
ENDBRANCH  27  28
BRANCH  27  30
HETATM   30  C20 UNL     1      18.002  25.853   3.792  1.00  0.00     0.031 C 
HETATM   31  C21 UNL     1      17.219  26.101   2.500  1.00  0.00     0.007 C 
ENDBRANCH  27  30
ENDBRANCH  24  27
ENDBRANCH  20  21
ENDBRANCH  19  20
ENDBRANCH  18  19
ENDBRANCH  16  18
ENDBRANCH  13  14
ENDBRANCH   9  13
BRANCH  12  32
HETATM   32  C26 UNL     1      18.145  32.449  15.066  1.00  0.00     0.028 A 
HETATM   33  C27 UNL     1      18.007  32.026  16.371  1.00  0.00     0.035 A 
HETATM   34  C28 UNL     1      18.667  30.851  17.009  1.00  0.00     0.070 C 
HETATM   35  N6  UNL     1      17.175  32.889  17.024  1.00  0.00    -0.302 N 
HETATM   36  N7  UNL     1      16.777  33.834  16.220  1.00  0.00    -0.291 N 
ATOM     37  H6  UNL     1      16.903  32.806  18.003  1.00  0.00     0.187 HD
HETATM   38  C34 UNL     1      17.349  33.601  15.008  1.00  0.00     0.038 A 
HETATM   39  C35 UNL     1      17.084  34.451  13.834  1.00  0.00     0.071 C 
BRANCH  36  40
HETATM   40  C29 UNL     1      15.883  34.934  16.567  1.00  0.00     0.112 C 
HETATM   41  C30 UNL     1      15.201  34.649  17.887  1.00  0.00     0.053 C 
HETATM   42  C31 UNL     1      14.890  35.921  18.641  1.00  0.00     0.169 C 
HETATM   43  O4  UNL     1      15.997  36.690  18.897  1.00  0.00    -0.391 OA
HETATM   44  C32 UNL     1      17.116  36.232  18.212  1.00  0.00     0.169 C 
HETATM   45  C33 UNL     1      16.760  36.173  16.743  1.00  0.00     0.053 C 
ENDBRANCH  36  40
ENDBRANCH  12  32
BRANCH   1  46
HETATM   46  C4  UNL     1      23.434  32.323  14.862  1.00  0.00     0.011 C 
BRANCH  46  47
HETATM   47  C3  UNL     1      23.568  32.973  16.150  1.00  0.00     0.000 C 
BRANCH  47  48
HETATM   48  C2  UNL     1      22.615  32.596  17.244  1.00  0.00    -0.005 C 
HETATM   49  C1  UNL     1      21.984  33.811  17.894  1.00  0.00     0.005 C 
ENDBRANCH  47  48
ENDBRANCH  46  47
ENDBRANCH   1  46
TORSDOF 14
ENDMDL
