MODEL 1
REMARK VINA RESULT: -7.852313759      0.000      0.000
REMARK  2 active torsions:
REMARK  status: ('A' for Active; 'I' for Inactive)
REMARK    1  A    between atoms: C5_5  and  C6_6 
REMARK    2  A    between atoms: C7_9  and  N2_10 
ROOT
HETATM    1  C6  UNL     1      77.475  39.882  71.334  1.00  0.00     0.080 A 
HETATM    2  N1  UNL     1      78.435  40.362  72.118  1.00  0.00    -0.190 N 
ATOM      3  H1  UNL     1      78.469  40.149  73.115  1.00  0.00     0.184 HD
HETATM    4  C7  UNL     1      79.369  41.149  71.525  1.00  0.00     0.676 A 
HETATM    5  N3  UNL     1      79.332  41.430  70.231  1.00  0.00    -0.190 N 
ATOM      6  H3  UNL     1      80.067  42.030  69.853  1.00  0.00     0.184 HD
HETATM    7  C8  UNL     1      78.372  40.970  69.364  1.00  0.00     0.075 A 
HETATM    8  C9  UNL     1      78.241  41.191  68.039  1.00  0.00    -0.021 A 
HETATM    9  C10 UNL     1      79.212  42.052  67.232  1.00  0.00     0.052 C 
HETATM   10  C11 UNL     1      77.176  40.603  67.407  1.00  0.00    -0.012 A 
HETATM   11  C12 UNL     1      76.799  40.688  65.953  1.00  0.00     0.057 C 
HETATM   12  S1  UNL     1      76.399  39.767  68.668  1.00  0.00    -0.090 SA
HETATM   13  C13 UNL     1      77.432  40.177  69.957  1.00  0.00     0.061 A 
ENDROOT
BRANCH   1  14
HETATM   14  C5  UNL     1      76.384  39.006  71.757  1.00  0.00     0.015 A 
HETATM   15  C4  UNL     1      75.276  39.641  72.344  1.00  0.00     0.017 A 
HETATM   16  C3  UNL     1      74.241  38.850  72.777  1.00  0.00     0.025 A 
HETATM   17  C2  UNL     1      74.290  37.482  72.639  1.00  0.00     0.005 A 
HETATM   18  C1  UNL     1      73.136  36.691  73.141  1.00  0.00     0.068 C 
HETATM   19  N4  UNL     1      75.370  36.925  72.071  1.00  0.00    -0.363 N 
HETATM   20  C14 UNL     1      76.424  37.668  71.624  1.00  0.00     0.018 A 
ATOM     21  H4  UNL     1      75.404  35.911  71.969  1.00  0.00     0.165 HD
HETATM   22  C15 UNL     1      77.581  37.006  71.011  1.00  0.00     0.069 C 
ENDBRANCH   1  14
BRANCH   4  23
HETATM   23  N2  UNL     1      80.333  41.644  72.276  1.00  0.00    -0.234 N 
ATOM     24  H22 UNL     1      80.816  41.042  72.943  1.00  0.00     0.174 HD
ATOM     25  H21 UNL     1      80.574  42.629  72.164  1.00  0.00     0.174 HD
ENDBRANCH   4  23
TORSDOF 2
ENDMDL
MODEL 2
REMARK VINA RESULT: -7.838389449      1.552      2.085
REMARK  2 active torsions:
REMARK  status: ('A' for Active; 'I' for Inactive)
REMARK    1  A    between atoms: C5_5  and  C6_6 
REMARK    2  A    between atoms: C7_9  and  N2_10 
ROOT
HETATM    1  C6  UNL     1      76.806  38.571  71.029  1.00  0.00     0.080 A 
HETATM    2  N1  UNL     1      78.047  38.423  71.482  1.00  0.00    -0.190 N 
ATOM      3  H1  UNL     1      78.269  37.765  72.229  1.00  0.00     0.184 HD
HETATM    4  C7  UNL     1      79.003  39.190  70.901  1.00  0.00     0.676 A 
HETATM    5  N3  UNL     1      78.723  40.048  69.930  1.00  0.00    -0.190 N 
ATOM      6  H3  UNL     1      79.492  40.593  69.540  1.00  0.00     0.184 HD
HETATM    7  C8  UNL     1      77.467  40.252  69.414  1.00  0.00     0.075 A 
HETATM    8  C9  UNL     1      77.073  41.091  68.434  1.00  0.00    -0.021 A 
HETATM    9  C10 UNL     1      78.030  42.016  67.684  1.00  0.00     0.052 C 
HETATM   10  C11 UNL     1      75.740  41.096  68.111  1.00  0.00    -0.012 A 
HETATM   11  C12 UNL     1      75.042  41.929  67.070  1.00  0.00     0.057 C 
HETATM   12  S1  UNL     1      75.085  39.941  69.175  1.00  0.00    -0.090 SA
HETATM   13  C13 UNL     1      76.503  39.481  69.997  1.00  0.00     0.061 A 
ENDROOT
BRANCH   1  14
HETATM   14  C5  UNL     1      75.631  37.839  71.498  1.00  0.00     0.015 A 
HETATM   15  C4  UNL     1      75.156  36.826  70.647  1.00  0.00     0.017 A 
HETATM   16  C3  UNL     1      74.039  36.132  71.042  1.00  0.00     0.025 A 
HETATM   17  C2  UNL     1      73.410  36.420  72.231  1.00  0.00     0.005 A 
HETATM   18  C1  UNL     1      72.200  35.632  72.585  1.00  0.00     0.068 C 
HETATM   19  N4  UNL     1      73.904  37.396  73.007  1.00  0.00    -0.363 N 
HETATM   20  C14 UNL     1      75.011  38.114  72.660  1.00  0.00     0.018 A 
ATOM     21  H4  UNL     1      73.436  37.607  73.888  1.00  0.00     0.165 HD
HETATM   22  C15 UNL     1      75.508  39.172  73.547  1.00  0.00     0.069 C 
ENDBRANCH   1  14
BRANCH   4  23
HETATM   23  N2  UNL     1      80.245  39.070  71.329  1.00  0.00    -0.234 N 
ATOM     24  H22 UNL     1      80.896  38.465  70.830  1.00  0.00     0.174 HD
ATOM     25  H21 UNL     1      80.521  39.595  72.159  1.00  0.00     0.174 HD
ENDBRANCH   4  23
TORSDOF 2
ENDMDL
MODEL 3
REMARK VINA RESULT: -7.472279171      1.242      1.264
REMARK  2 active torsions:
REMARK  status: ('A' for Active; 'I' for Inactive)
REMARK    1  A    between atoms: C5_5  and  C6_6 
REMARK    2  A    between atoms: C7_9  and  N2_10 
ROOT
HETATM    1  C6  UNL     1      77.024  38.944  70.897  1.00  0.00     0.080 A 
HETATM    2  N1  UNL     1      78.242  38.974  71.432  1.00  0.00    -0.190 N 
ATOM      3  H1  UNL     1      78.456  38.489  72.303  1.00  0.00     0.184 HD
HETATM    4  C7  UNL     1      79.185  39.681  70.759  1.00  0.00     0.676 A 
HETATM    5  N3  UNL     1      78.915  40.313  69.626  1.00  0.00    -0.190 N 
ATOM      6  H3  UNL     1      79.672  40.826  69.175  1.00  0.00     0.184 HD
HETATM    7  C8  UNL     1      77.683  40.325  69.019  1.00  0.00     0.075 A 
HETATM    8  C9  UNL     1      77.301  40.930  67.875  1.00  0.00    -0.021 A 
HETATM    9  C10 UNL     1      78.247  41.758  67.006  1.00  0.00     0.052 C 
HETATM   10  C11 UNL     1      75.993  40.778  67.492  1.00  0.00    -0.012 A 
HETATM   11  C12 UNL     1      75.313  41.343  66.274  1.00  0.00     0.057 C 
HETATM   12  S1  UNL     1      75.344  39.807  68.728  1.00  0.00    -0.090 SA
HETATM   13  C13 UNL     1      76.732  39.614  69.693  1.00  0.00     0.061 A 
ENDROOT
BRANCH   1  14
HETATM   14  C5  UNL     1      75.868  38.235  71.443  1.00  0.00     0.015 A 
HETATM   15  C4  UNL     1      75.187  38.879  72.489  1.00  0.00     0.017 A 
HETATM   16  C3  UNL     1      74.110  38.232  73.044  1.00  0.00     0.025 A 
HETATM   17  C2  UNL     1      73.715  36.996  72.589  1.00  0.00     0.005 A 
HETATM   18  C1  UNL     1      72.547  36.354  73.246  1.00  0.00     0.068 C 
HETATM   19  N4  UNL     1      74.399  36.424  71.586  1.00  0.00    -0.363 N 
HETATM   20  C14 UNL     1      75.475  37.026  71.002  1.00  0.00     0.018 A 
ATOM     21  H4  UNL     1      74.104  35.508  71.250  1.00  0.00     0.165 HD
HETATM   22  C15 UNL     1      76.188  36.354  69.909  1.00  0.00     0.069 C 
ENDBRANCH   1  14
BRANCH   4  23
HETATM   23  N2  UNL     1      80.402  39.733  71.264  1.00  0.00    -0.234 N 
ATOM     24  H22 UNL     1      80.531  39.953  72.251  1.00  0.00     0.174 HD
ATOM     25  H21 UNL     1      81.189  39.546  70.643  1.00  0.00     0.174 HD
ENDBRANCH   4  23
TORSDOF 2
ENDMDL
MODEL 4
REMARK VINA RESULT: -7.430163572      2.304      3.589
REMARK  2 active torsions:
REMARK  status: ('A' for Active; 'I' for Inactive)
REMARK    1  A    between atoms: C5_5  and  C6_6 
REMARK    2  A    between atoms: C7_9  and  N2_10 
ROOT
HETATM    1  C6  UNL     1      75.374  39.271  70.097  1.00  0.00     0.080 A 
HETATM    2  N1  UNL     1      74.746  40.026  69.200  1.00  0.00    -0.190 N 
ATOM      3  H1  UNL     1      73.748  39.922  69.017  1.00  0.00     0.184 HD
HETATM    4  C7  UNL     1      75.500  40.942  68.541  1.00  0.00     0.676 A 
HETATM    5  N3  UNL     1      76.797  41.083  68.773  1.00  0.00    -0.190 N 
ATOM      6  H3  UNL     1      77.301  41.792  68.239  1.00  0.00     0.184 HD
HETATM    7  C8  UNL     1      77.508  40.340  69.682  1.00  0.00     0.075 A 
HETATM    8  C9  UNL     1      78.819  40.401  69.996  1.00  0.00    -0.021 A 
HETATM    9  C10 UNL     1      79.794  41.379  69.343  1.00  0.00     0.052 C 
HETATM   10  C11 UNL     1      79.276  39.531  70.953  1.00  0.00    -0.012 A 
HETATM   11  C12 UNL     1      80.677  39.389  71.482  1.00  0.00     0.057 C 
HETATM   12  S1  UNL     1      77.876  38.665  71.381  1.00  0.00    -0.090 SA
HETATM   13  C13 UNL     1      76.752  39.418  70.348  1.00  0.00     0.061 A 
ENDROOT
BRANCH   1  14
HETATM   14  C5  UNL     1      74.756  38.239  70.928  1.00  0.00     0.015 A 
HETATM   15  C4  UNL     1      74.395  37.052  70.269  1.00  0.00     0.017 A 
HETATM   16  C3  UNL     1      73.789  36.068  71.011  1.00  0.00     0.025 A 
HETATM   17  C2  UNL     1      73.547  36.242  72.353  1.00  0.00     0.005 A 
HETATM   18  C1  UNL     1      72.878  35.135  73.088  1.00  0.00     0.068 C 
HETATM   19  N4  UNL     1      73.912  37.394  72.936  1.00  0.00    -0.363 N 
HETATM   20  C14 UNL     1      74.517  38.401  72.242  1.00  0.00     0.018 A 
ATOM     21  H4  UNL     1      73.732  37.520  73.931  1.00  0.00     0.165 HD
HETATM   22  C15 UNL     1      74.895  39.642  72.929  1.00  0.00     0.069 C 
ENDBRANCH   1  14
BRANCH   4  23
HETATM   23  N2  UNL     1      74.909  41.705  67.642  1.00  0.00    -0.234 N 
ATOM     24  H22 UNL     1      75.075  42.711  67.643  1.00  0.00     0.174 HD
ATOM     25  H21 UNL     1      74.295  41.258  66.960  1.00  0.00     0.174 HD
ENDBRANCH   4  23
TORSDOF 2
ENDMDL
MODEL 5
REMARK VINA RESULT: -7.280220594      2.408      3.488
REMARK  2 active torsions:
REMARK  status: ('A' for Active; 'I' for Inactive)
REMARK    1  A    between atoms: C5_5  and  C6_6 
REMARK    2  A    between atoms: C7_9  and  N2_10 
ROOT
HETATM    1  C6  UNL     1      75.473  39.957  69.919  1.00  0.00     0.080 A 
HETATM    2  N1  UNL     1      74.883  40.586  68.907  1.00  0.00    -0.190 N 
ATOM      3  H1  UNL     1      73.961  40.310  68.570  1.00  0.00     0.184 HD
HETATM    4  C7  UNL     1      75.570  41.612  68.345  1.00  0.00     0.676 A 
HETATM    5  N3  UNL     1      76.768  41.977  68.776  1.00  0.00    -0.190 N 
ATOM      6  H3  UNL     1      77.227  42.757  68.305  1.00  0.00     0.184 HD
HETATM    7  C8  UNL     1      77.436  41.374  69.813  1.00  0.00     0.075 A 
HETATM    8  C9  UNL     1      78.648  41.662  70.331  1.00  0.00    -0.021 A 
HETATM    9  C10 UNL     1      79.538  42.789  69.809  1.00  0.00     0.052 C 
HETATM   10  C11 UNL     1      79.081  40.892  71.380  1.00  0.00    -0.012 A 
HETATM   11  C12 UNL     1      80.380  40.997  72.131  1.00  0.00     0.057 C 
HETATM   12  S1  UNL     1      77.797  39.801  71.608  1.00  0.00    -0.090 SA
HETATM   13  C13 UNL     1      76.747  40.341  70.382  1.00  0.00     0.061 A 
ENDROOT
BRANCH   1  14
HETATM   14  C5  UNL     1      74.911  38.841  70.677  1.00  0.00     0.015 A 
HETATM   15  C4  UNL     1      74.874  39.000  72.073  1.00  0.00     0.017 A 
HETATM   16  C3  UNL     1      74.375  37.962  72.821  1.00  0.00     0.025 A 
HETATM   17  C2  UNL     1      73.928  36.808  72.221  1.00  0.00     0.005 A 
HETATM   18  C1  UNL     1      73.410  35.725  73.098  1.00  0.00     0.068 C 
HETATM   19  N4  UNL     1      73.983  36.707  70.884  1.00  0.00    -0.363 N 
HETATM   20  C14 UNL     1      74.470  37.709  70.097  1.00  0.00     0.018 A 
ATOM     21  H4  UNL     1      73.650  35.850  70.442  1.00  0.00     0.165 HD
HETATM   22  C15 UNL     1      74.509  37.545  68.639  1.00  0.00     0.069 C 
ENDBRANCH   1  14
BRANCH   4  23
HETATM   23  N2  UNL     1      75.014  42.255  67.336  1.00  0.00    -0.234 N 
ATOM     24  H22 UNL     1      75.506  43.033  66.898  1.00  0.00     0.174 HD
ATOM     25  H21 UNL     1      74.095  41.947  67.017  1.00  0.00     0.174 HD
ENDBRANCH   4  23
TORSDOF 2
ENDMDL
