MODEL 1
REMARK VINA RESULT: -5.913680514      0.000      0.000
REMARK  5 active torsions:
REMARK  status: ('A' for Active; 'I' for Inactive)
REMARK    1  A    between atoms: C2_2  and  C3_3 
REMARK    2  A    between atoms: C3_3  and  C4_4 
REMARK    3  A    between atoms: C4_4  and  C5_5 
REMARK    4  A    between atoms: C5_5  and  C6_6 
REMARK    5  A    between atoms: C18_23  and  C19_24 
REMARK       I    between atoms: C19_24  and  N3_26 
ROOT
HETATM    1  C4  UNL     1      77.247  64.841  12.197  1.00  0.00     0.061 C 
HETATM    2  C8  UNL     1      76.425  64.711  10.900  1.00  0.00     0.038 C 
HETATM    3  C9  UNL     1      76.996  63.774   9.910  1.00  0.00     0.003 C 
HETATM    4  C10 UNL     1      76.471  62.361   9.995  1.00  0.00     0.000 C 
HETATM    5  C11 UNL     1      76.732  61.712   8.648  1.00  0.00     0.002 C 
HETATM    6  C12 UNL     1      76.989  60.234   8.769  1.00  0.00     0.020 C 
HETATM    7  C13 UNL     1      78.375  59.992   9.332  1.00  0.00     0.122 C 
HETATM    8  N1  UNL     1      79.335  59.977   8.251  1.00  0.00    -0.361 N 
ATOM      9  H1  UNL     1      79.100  59.463   7.402  1.00  0.00     0.162 HD
HETATM   10  C14 UNL     1      80.580  60.639   8.310  1.00  0.00     0.226 C 
HETATM   11  O1  UNL     1      81.034  61.286   7.333  1.00  0.00    -0.273 OA
HETATM   12  C15 UNL     1      81.457  60.621   9.537  1.00  0.00     0.205 C 
HETATM   13  C16 UNL     1      81.276  59.306  10.184  1.00  0.00     0.229 C 
HETATM   14  O2  UNL     1      81.093  58.313   9.437  1.00  0.00    -0.273 OA
HETATM   15  N2  UNL     1      81.295  59.086  11.593  1.00  0.00    -0.342 N 
HETATM   16  C17 UNL     1      80.609  57.980  12.217  1.00  0.00     0.153 C 
HETATM   17  C18 UNL     1      82.028  59.979  12.496  1.00  0.00     0.188 C 
HETATM   18  C21 UNL     1      81.016  60.527  13.474  1.00  0.00     0.146 C 
HETATM   19  C22 UNL     1      80.923  61.996  13.386  1.00  0.00     0.261 C 
HETATM   20  O4  UNL     1      81.738  62.697  12.752  1.00  0.00    -0.265 OA
HETATM   21  O5  UNL     1      79.881  62.606  14.046  1.00  0.00    -0.319 OA
HETATM   22  C23 UNL     1      78.544  62.154  14.075  1.00  0.00     0.205 C 
HETATM   23  C24 UNL     1      77.639  63.393  13.996  1.00  0.00     0.195 C 
HETATM   24  O6  UNL     1      77.230  63.513  12.698  1.00  0.00    -0.378 OA
ENDROOT
BRANCH  17  25
HETATM   25  C19 UNL     1      83.078  59.229  13.223  1.00  0.00     0.247 C 
HETATM   26  O3  UNL     1      83.410  58.081  12.724  1.00  0.00    -0.271 OA
HETATM   27  N3  UNL     1      83.748  59.600  14.371  1.00  0.00    -0.302 N 
HETATM   28  C20 UNL     1      84.413  60.588  14.746  1.00  0.00     0.203 C 
ATOM     29  H3  UNL     1      83.683  58.887  15.097  1.00  0.00     0.171 HD
HETATM   30  N4  UNL     1      84.996  60.654  16.052  1.00  0.00    -0.066 NA
HETATM   31  N5  UNL     1      84.622  61.693  13.888  1.00  0.00    -0.066 NA
ENDBRANCH  17  25
BRANCH   1  32
HETATM   32  C3  UNL     1      78.636  65.190  11.945  1.00  0.00     0.038 C 
BRANCH  32  33
HETATM   33  C2  UNL     1      79.287  66.373  12.524  1.00  0.00    -0.002 C 
HETATM   34  C1  UNL     1      79.371  67.414  11.371  1.00  0.00     0.005 C 
ENDBRANCH  32  33
ENDBRANCH   1  32
BRANCH   1  35
HETATM   35  C5  UNL     1      76.400  65.640  13.110  1.00  0.00     0.038 C 
BRANCH  35  36
HETATM   36  C6  UNL     1      75.599  66.759  12.563  1.00  0.00    -0.002 C 
HETATM   37  C7  UNL     1      76.079  68.027  13.331  1.00  0.00     0.005 C 
ENDBRANCH  35  36
ENDBRANCH   1  35
TORSDOF 5
ENDMDL
MODEL 2
REMARK VINA RESULT: -5.751166416      3.570      4.933
REMARK  5 active torsions:
REMARK  status: ('A' for Active; 'I' for Inactive)
REMARK    1  A    between atoms: C2_2  and  C3_3 
REMARK    2  A    between atoms: C3_3  and  C4_4 
REMARK    3  A    between atoms: C4_4  and  C5_5 
REMARK    4  A    between atoms: C5_5  and  C6_6 
REMARK    5  A    between atoms: C18_23  and  C19_24 
REMARK       I    between atoms: C19_24  and  N3_26 
ROOT
HETATM    1  C4  UNL     1      79.848  61.306  11.661  1.00  0.00     0.061 C 
HETATM    2  C8  UNL     1      79.394  61.278  10.188  1.00  0.00     0.038 C 
HETATM    3  C9  UNL     1      80.497  61.131   9.216  1.00  0.00     0.003 C 
HETATM    4  C10 UNL     1      80.798  59.710   8.806  1.00  0.00     0.000 C 
HETATM    5  C11 UNL     1      81.533  59.779   7.480  1.00  0.00     0.002 C 
HETATM    6  C12 UNL     1      82.520  58.655   7.316  1.00  0.00     0.020 C 
HETATM    7  C13 UNL     1      83.737  58.901   8.184  1.00  0.00     0.122 C 
HETATM    8  N1  UNL     1      84.686  59.716   7.459  1.00  0.00    -0.361 N 
ATOM      9  H1  UNL     1      84.871  59.489   6.482  1.00  0.00     0.162 HD
HETATM   10  C14 UNL     1      85.369  60.809   8.034  1.00  0.00     0.226 C 
HETATM   11  O1  UNL     1      85.528  61.891   7.414  1.00  0.00    -0.273 OA
HETATM   12  C15 UNL     1      85.956  60.766   9.421  1.00  0.00     0.205 C 
HETATM   13  C16 UNL     1      86.423  59.385   9.656  1.00  0.00     0.229 C 
HETATM   14  O2  UNL     1      86.893  58.758   8.675  1.00  0.00    -0.273 OA
HETATM   15  N2  UNL     1      86.376  58.717  10.915  1.00  0.00    -0.342 N 
HETATM   16  C17 UNL     1      86.312  57.280  11.031  1.00  0.00     0.153 C 
HETATM   17  C18 UNL     1      86.400  59.463  12.178  1.00  0.00     0.188 C 
HETATM   18  C21 UNL     1      85.137  59.094  12.919  1.00  0.00     0.146 C 
HETATM   19  C22 UNL     1      84.289  60.276  13.160  1.00  0.00     0.261 C 
HETATM   20  O4  UNL     1      84.679  61.447  12.975  1.00  0.00    -0.265 OA
HETATM   21  O5  UNL     1      83.009  60.055  13.612  1.00  0.00    -0.319 OA
HETATM   22  C23 UNL     1      82.126  59.058  13.142  1.00  0.00     0.205 C 
HETATM   23  C24 UNL     1      80.719  59.674  13.099  1.00  0.00     0.195 C 
HETATM   24  O6  UNL     1      80.477  60.042  11.805  1.00  0.00    -0.378 OA
ENDROOT
BRANCH  17  25
HETATM   25  C19 UNL     1      87.586  59.083  12.980  1.00  0.00     0.247 C 
HETATM   26  O3  UNL     1      87.418  58.117  13.828  1.00  0.00    -0.271 OA
HETATM   27  N3  UNL     1      88.851  59.632  12.940  1.00  0.00    -0.302 N 
HETATM   28  C20 UNL     1      89.710  59.851  12.061  1.00  0.00     0.203 C 
ATOM     29  H3  UNL     1      89.163  59.937  13.861  1.00  0.00     0.171 HD
HETATM   30  N4  UNL     1      90.969  60.457  12.371  1.00  0.00    -0.066 NA
HETATM   31  N5  UNL     1      89.473  59.505  10.710  1.00  0.00    -0.066 NA
ENDBRANCH  17  25
BRANCH   1  32
HETATM   32  C3  UNL     1      80.858  62.322  11.915  1.00  0.00     0.038 C 
BRANCH  32  33
HETATM   33  C2  UNL     1      80.691  63.392  12.908  1.00  0.00    -0.002 C 
HETATM   34  C1  UNL     1      79.978  64.554  12.158  1.00  0.00     0.005 C 
ENDBRANCH  32  33
ENDBRANCH   1  32
BRANCH   1  35
HETATM   35  C5  UNL     1      78.598  61.240  12.450  1.00  0.00     0.038 C 
BRANCH  35  36
HETATM   36  C6  UNL     1      77.364  61.851  11.905  1.00  0.00    -0.002 C 
HETATM   37  C7  UNL     1      76.791  62.726  13.059  1.00  0.00     0.005 C 
ENDBRANCH  35  36
ENDBRANCH   1  35
TORSDOF 5
ENDMDL
MODEL 3
REMARK VINA RESULT: -5.427624088      5.950      9.055
REMARK  5 active torsions:
REMARK  status: ('A' for Active; 'I' for Inactive)
REMARK    1  A    between atoms: C2_2  and  C3_3 
REMARK    2  A    between atoms: C3_3  and  C4_4 
REMARK    3  A    between atoms: C4_4  and  C5_5 
REMARK    4  A    between atoms: C5_5  and  C6_6 
REMARK    5  A    between atoms: C18_23  and  C19_24 
REMARK       I    between atoms: C19_24  and  N3_26 
ROOT
HETATM    1  C4  UNL     1      72.045  62.787  18.891  1.00  0.00     0.061 C 
HETATM    2  C8  UNL     1      71.114  63.996  19.107  1.00  0.00     0.038 C 
HETATM    3  C9  UNL     1      71.517  65.212  18.372  1.00  0.00     0.003 C 
HETATM    4  C10 UNL     1      70.874  65.378  17.016  1.00  0.00     0.000 C 
HETATM    5  C11 UNL     1      70.967  66.850  16.661  1.00  0.00     0.002 C 
HETATM    6  C12 UNL     1      71.097  67.071  15.178  1.00  0.00     0.020 C 
HETATM    7  C13 UNL     1      72.496  66.710  14.720  1.00  0.00     0.122 C 
HETATM    8  N1  UNL     1      73.362  67.857  14.873  1.00  0.00    -0.361 N 
ATOM      9  H1  UNL     1      73.014  68.769  14.575  1.00  0.00     0.162 HD
HETATM   10  C14 UNL     1      74.663  67.780  15.414  1.00  0.00     0.226 C 
HETATM   11  O1  UNL     1      75.095  68.638  16.226  1.00  0.00    -0.273 OA
HETATM   12  C15 UNL     1      75.628  66.677  15.065  1.00  0.00     0.205 C 
HETATM   13  C16 UNL     1      75.381  66.309  13.657  1.00  0.00     0.229 C 
HETATM   14  O2  UNL     1      75.050  67.228  12.867  1.00  0.00    -0.273 OA
HETATM   15  N2  UNL     1      75.491  64.987  13.133  1.00  0.00    -0.342 N 
HETATM   16  C17 UNL     1      74.759  64.548  11.969  1.00  0.00     0.153 C 
HETATM   17  C18 UNL     1      76.372  63.990  13.751  1.00  0.00     0.188 C 
HETATM   18  C21 UNL     1      75.495  62.825  14.143  1.00  0.00     0.146 C 
HETATM   19  C22 UNL     1      75.530  62.590  15.598  1.00  0.00     0.261 C 
HETATM   20  O4  UNL     1      76.353  63.138  16.361  1.00  0.00    -0.265 OA
HETATM   21  O5  UNL     1      74.604  61.718  16.122  1.00  0.00    -0.319 OA
HETATM   22  C23 UNL     1      73.238  61.655  15.771  1.00  0.00     0.205 C 
HETATM   23  C24 UNL     1      72.445  61.382  17.060  1.00  0.00     0.195 C 
HETATM   24  O6  UNL     1      71.947  62.579  17.490  1.00  0.00    -0.378 OA
ENDROOT
BRANCH  17  25
HETATM   25  C19 UNL     1      77.404  63.544  12.787  1.00  0.00     0.247 C 
HETATM   26  O3  UNL     1      77.691  64.372  11.832  1.00  0.00    -0.271 OA
HETATM   27  N3  UNL     1      78.100  62.353  12.776  1.00  0.00    -0.302 N 
HETATM   28  C20 UNL     1      78.803  61.713  13.586  1.00  0.00     0.203 C 
ATOM     29  H3  UNL     1      78.018  61.872  11.880  1.00  0.00     0.171 HD
HETATM   30  N4  UNL     1      79.403  60.460  13.239  1.00  0.00    -0.066 NA
HETATM   31  N5  UNL     1      79.040  62.205  14.890  1.00  0.00    -0.066 NA
ENDBRANCH  17  25
BRANCH   1  32
HETATM   32  C3  UNL     1      73.436  63.093  19.186  1.00  0.00     0.038 C 
BRANCH  32  33
HETATM   33  C2  UNL     1      73.932  63.360  20.543  1.00  0.00    -0.002 C 
HETATM   34  C1  UNL     1      75.298  64.080  20.358  1.00  0.00     0.005 C 
ENDBRANCH  32  33
ENDBRANCH   1  32
BRANCH   1  35
HETATM   35  C5  UNL     1      71.350  61.647  19.529  1.00  0.00     0.038 C 
BRANCH  35  36
HETATM   36  C6  UNL     1      70.504  61.889  20.720  1.00  0.00    -0.002 C 
HETATM   37  C7  UNL     1      71.153  61.058  21.866  1.00  0.00     0.005 C 
ENDBRANCH  35  36
ENDBRANCH   1  35
TORSDOF 5
ENDMDL
MODEL 4
REMARK VINA RESULT: -5.101836229      1.902      2.368
REMARK  5 active torsions:
REMARK  status: ('A' for Active; 'I' for Inactive)
REMARK    1  A    between atoms: C2_2  and  C3_3 
REMARK    2  A    between atoms: C3_3  and  C4_4 
REMARK    3  A    between atoms: C4_4  and  C5_5 
REMARK    4  A    between atoms: C5_5  and  C6_6 
REMARK    5  A    between atoms: C18_23  and  C19_24 
REMARK       I    between atoms: C19_24  and  N3_26 
ROOT
HETATM    1  C4  UNL     1      76.778  63.027  12.835  1.00  0.00     0.061 C 
HETATM    2  C8  UNL     1      75.900  62.292  11.804  1.00  0.00     0.038 C 
HETATM    3  C9  UNL     1      76.657  61.489  10.822  1.00  0.00     0.003 C 
HETATM    4  C10 UNL     1      76.850  60.040  11.199  1.00  0.00     0.000 C 
HETATM    5  C11 UNL     1      77.146  59.286   9.916  1.00  0.00     0.002 C 
HETATM    6  C12 UNL     1      78.059  58.111  10.144  1.00  0.00     0.020 C 
HETATM    7  C13 UNL     1      79.478  58.594  10.374  1.00  0.00     0.122 C 
HETATM    8  N1  UNL     1      80.144  58.747   9.101  1.00  0.00    -0.361 N 
ATOM      9  H1  UNL     1      80.028  58.012   8.402  1.00  0.00     0.162 HD
HETATM   10  C14 UNL     1      80.946  59.861   8.774  1.00  0.00     0.226 C 
HETATM   11  O1  UNL     1      80.888  60.413   7.646  1.00  0.00    -0.273 OA
HETATM   12  C15 UNL     1      81.928  60.472   9.742  1.00  0.00     0.205 C 
HETATM   13  C16 UNL     1      82.472  59.373  10.564  1.00  0.00     0.229 C 
HETATM   14  O2  UNL     1      82.636  58.259  10.007  1.00  0.00    -0.273 OA
HETATM   15  N2  UNL     1      82.825  59.488  11.941  1.00  0.00    -0.342 N 
HETATM   16  C17 UNL     1      82.828  58.359  12.840  1.00  0.00     0.153 C 
HETATM   17  C18 UNL     1      83.215  60.775  12.526  1.00  0.00     0.188 C 
HETATM   18  C21 UNL     1      82.245  61.049  13.649  1.00  0.00     0.146 C 
HETATM   19  C22 UNL     1      81.485  62.291  13.415  1.00  0.00     0.261 C 
HETATM   20  O4  UNL     1      81.776  63.113  12.521  1.00  0.00    -0.265 OA
HETATM   21  O5  UNL     1      80.407  62.539  14.233  1.00  0.00    -0.319 OA
HETATM   22  C23 UNL     1      79.445  61.591  14.642  1.00  0.00     0.205 C 
HETATM   23  C24 UNL     1      78.078  62.294  14.641  1.00  0.00     0.195 C 
HETATM   24  O6  UNL     1      77.448  61.953  13.478  1.00  0.00    -0.378 OA
ENDROOT
BRANCH  17  25
HETATM   25  C19 UNL     1      84.596  60.704  13.056  1.00  0.00     0.247 C 
HETATM   26  O3  UNL     1      84.738  60.124  14.206  1.00  0.00    -0.271 OA
HETATM   27  N3  UNL     1      85.754  61.182  12.479  1.00  0.00    -0.302 N 
HETATM   28  C20 UNL     1      86.335  61.048  11.382  1.00  0.00     0.203 C 
ATOM     29  H3  UNL     1      86.265  61.802  13.107  1.00  0.00     0.171 HD
HETATM   30  N4  UNL     1      87.574  61.708  11.099  1.00  0.00    -0.066 NA
HETATM   31  N5  UNL     1      85.791  60.229  10.366  1.00  0.00    -0.066 NA
ENDBRANCH  17  25
BRANCH   1  32
HETATM   32  C3  UNL     1      77.796  63.858  12.211  1.00  0.00     0.038 C 
BRANCH  32  33
HETATM   33  C2  UNL     1      77.868  65.315  12.391  1.00  0.00    -0.002 C 
HETATM   34  C1  UNL     1      79.340  65.617  12.792  1.00  0.00     0.005 C 
ENDBRANCH  32  33
ENDBRANCH   1  32
BRANCH   1  35
HETATM   35  C5  UNL     1      75.829  63.577  13.827  1.00  0.00     0.038 C 
BRANCH  35  36
HETATM   36  C6  UNL     1      74.410  63.762  13.447  1.00  0.00    -0.002 C 
HETATM   37  C7  UNL     1      74.211  65.301  13.317  1.00  0.00     0.005 C 
ENDBRANCH  35  36
ENDBRANCH   1  35
TORSDOF 5
ENDMDL
MODEL 5
REMARK VINA RESULT: -5.061892906      5.261      8.217
REMARK  5 active torsions:
REMARK  status: ('A' for Active; 'I' for Inactive)
REMARK    1  A    between atoms: C2_2  and  C3_3 
REMARK    2  A    between atoms: C3_3  and  C4_4 
REMARK    3  A    between atoms: C4_4  and  C5_5 
REMARK    4  A    between atoms: C5_5  and  C6_6 
REMARK    5  A    between atoms: C18_23  and  C19_24 
REMARK       I    between atoms: C19_24  and  N3_26 
ROOT
HETATM    1  C4  UNL     1      72.289  63.788  18.130  1.00  0.00     0.061 C 
HETATM    2  C8  UNL     1      71.545  65.137  18.143  1.00  0.00     0.038 C 
HETATM    3  C9  UNL     1      72.164  66.181  17.301  1.00  0.00     0.003 C 
HETATM    4  C10 UNL     1      71.620  66.270  15.895  1.00  0.00     0.000 C 
HETATM    5  C11 UNL     1      71.954  67.657  15.380  1.00  0.00     0.002 C 
HETATM    6  C12 UNL     1      72.187  67.672  13.893  1.00  0.00     0.020 C 
HETATM    7  C13 UNL     1      73.535  67.056  13.573  1.00  0.00     0.122 C 
HETATM    8  N1  UNL     1      74.557  68.075  13.650  1.00  0.00    -0.361 N 
ATOM      9  H1  UNL     1      74.368  68.984  13.227  1.00  0.00     0.162 HD
HETATM   10  C14 UNL     1      75.804  67.877  14.281  1.00  0.00     0.226 C 
HETATM   11  O1  UNL     1      76.322  68.756  15.015  1.00  0.00    -0.273 OA
HETATM   12  C15 UNL     1      76.605  66.609  14.126  1.00  0.00     0.205 C 
HETATM   13  C16 UNL     1      76.372  66.110  12.757  1.00  0.00     0.229 C 
HETATM   14  O2  UNL     1      76.224  66.962  11.846  1.00  0.00    -0.273 OA
HETATM   15  N2  UNL     1      76.304  64.731  12.396  1.00  0.00    -0.342 N 
HETATM   16  C17 UNL     1      75.570  64.263  11.245  1.00  0.00     0.153 C 
HETATM   17  C18 UNL     1      76.991  63.701  13.182  1.00  0.00     0.188 C 
HETATM   18  C21 UNL     1      75.929  62.734  13.646  1.00  0.00     0.146 C 
HETATM   19  C22 UNL     1      75.857  62.678  15.119  1.00  0.00     0.261 C 
HETATM   20  O4  UNL     1      76.717  63.191  15.866  1.00  0.00    -0.265 OA
HETATM   21  O5  UNL     1      74.785  62.023  15.677  1.00  0.00    -0.319 OA
HETATM   22  C23 UNL     1      73.443  62.117  15.246  1.00  0.00     0.205 C 
HETATM   23  C24 UNL     1      72.557  62.124  16.502  1.00  0.00     0.195 C 
HETATM   24  O6  UNL     1      72.228  63.425  16.759  1.00  0.00    -0.378 OA
ENDROOT
BRANCH  17  25
HETATM   25  C19 UNL     1      77.988  62.993  12.346  1.00  0.00     0.247 C 
HETATM   26  O3  UNL     1      78.338  63.586  11.249  1.00  0.00    -0.271 OA
HETATM   27  N3  UNL     1      78.591  61.776  12.589  1.00  0.00    -0.302 N 
HETATM   28  C20 UNL     1      79.242  61.264  13.523  1.00  0.00     0.203 C 
ATOM     29  H3  UNL     1      78.475  61.131  11.808  1.00  0.00     0.171 HD
HETATM   30  N4  UNL     1      79.746  59.926  13.447  1.00  0.00    -0.066 NA
HETATM   31  N5  UNL     1      79.514  61.992  14.705  1.00  0.00    -0.066 NA
ENDBRANCH  17  25
BRANCH   1  32
HETATM   32  C3  UNL     1      73.695  63.921  18.478  1.00  0.00     0.038 C 
BRANCH  32  33
HETATM   33  C2  UNL     1      74.313  63.223  19.614  1.00  0.00    -0.002 C 
HETATM   34  C1  UNL     1      75.340  64.225  20.215  1.00  0.00     0.005 C 
ENDBRANCH  32  33
ENDBRANCH   1  32
BRANCH   1  35
HETATM   35  C5  UNL     1      71.398  62.850  18.847  1.00  0.00     0.038 C 
BRANCH  35  36
HETATM   36  C6  UNL     1      70.407  63.383  19.809  1.00  0.00    -0.002 C 
HETATM   37  C7  UNL     1      70.967  63.030  21.220  1.00  0.00     0.005 C 
ENDBRANCH  35  36
ENDBRANCH   1  35
TORSDOF 5
ENDMDL
