MODEL 1
REMARK VINA RESULT: -7.771405910      0.000      0.000
REMARK  6 active torsions:
REMARK  status: ('A' for Active; 'I' for Inactive)
REMARK    1  A    between atoms: N1_5  and  S1_6 
REMARK    2  A    between atoms: S1_6  and  N2_9 
REMARK    3  A    between atoms: N2_9  and  C5_11 
REMARK    4  A    between atoms: N3_14  and  C8_15 
REMARK    5  A    between atoms: C13_23  and  C14_24 
REMARK       I    between atoms: C14_24  and  N5_26 
REMARK    6  A    between atoms: N5_26  and  C15_28 
ROOT
HETATM    1  C1  UNL     1      78.552  65.163   9.425  1.00  0.00     0.010 C 
HETATM    2  C2  UNL     1      78.270  65.557  10.860  1.00  0.00    -0.015 C 
HETATM    3  C3  UNL     1      79.484  65.579  11.709  1.00  0.00     0.025 C 
HETATM    4  C4  UNL     1      79.810  64.335  12.465  1.00  0.00     0.138 C 
HETATM    5  N1  UNL     1      78.669  63.675  13.017  1.00  0.00    -0.281 N 
HETATM    6  C13 UNL     1      77.553  64.523  12.932  1.00  0.00     0.189 C 
HETATM    7  C25 UNL     1      77.201  64.700  11.479  1.00  0.00     0.040 C 
ENDROOT
BRANCH   5   8
HETATM    8  S1  UNL     1      78.566  62.044  12.666  1.00  0.00     0.318 S 
HETATM    9  O1  UNL     1      77.217  61.411  12.756  1.00  0.00    -0.183 OA
HETATM   10  O2  UNL     1      78.977  61.843  11.195  1.00  0.00    -0.183 OA
BRANCH   8  11
HETATM   11  N2  UNL     1      79.714  61.197  13.660  1.00  0.00    -0.296 N 
ATOM     12  H2  UNL     1      79.465  60.764  14.549  1.00  0.00     0.174 HD
BRANCH  11  13
HETATM   13  C5  UNL     1      81.030  61.161  13.126  1.00  0.00     0.124 C 
HETATM   14  C6  UNL     1      81.494  59.697  13.112  1.00  0.00     0.058 C 
HETATM   15  C7  UNL     1      82.969  59.726  13.493  1.00  0.00     0.277 C 
HETATM   16  N3  UNL     1      83.274  61.119  13.526  1.00  0.00     0.121 N 
HETATM   17  C12 UNL     1      82.088  61.786  14.018  1.00  0.00     0.300 C 
BRANCH  16  18
HETATM   18  C8  UNL     1      84.464  61.492  14.214  1.00  0.00     0.419 C 
HETATM   19  C9  UNL     1      85.059  60.337  14.962  1.00  0.00     0.067 C 
HETATM   20  C10 UNL     1      84.907  60.739  16.412  1.00  0.00     0.031 C 
HETATM   21  C11 UNL     1      84.899  62.250  16.373  1.00  0.00     0.235 C 
HETATM   22  N4  UNL     1      84.362  62.619  15.080  1.00  0.00    -0.043 N 
ATOM     23  H42 UNL     1      84.807  63.452  14.694  1.00  0.00     0.279 HD
ATOM     24  H41 UNL     1      83.412  62.983  15.140  1.00  0.00     0.279 HD
ENDBRANCH  16  18
ENDBRANCH  11  13
ENDBRANCH   8  11
ENDBRANCH   5   8
BRANCH   6  25
HETATM   25  C14 UNL     1      76.432  64.298  13.837  1.00  0.00     0.242 C 
HETATM   26  O3  UNL     1      75.289  64.665  13.532  1.00  0.00    -0.271 OA
HETATM   27  N5  UNL     1      76.640  63.656  15.071  1.00  0.00    -0.350 N 
ATOM     28  H5  UNL     1      77.591  63.365  15.294  1.00  0.00     0.163 HD
BRANCH  27  29
HETATM   29  C15 UNL     1      75.613  63.378  16.046  1.00  0.00     0.034 C 
HETATM   30  C16 UNL     1      74.480  62.548  15.518  1.00  0.00     0.035 C 
HETATM   31  C17 UNL     1      73.456  62.408  16.636  1.00  0.00    -0.012 C 
HETATM   32  C18 UNL     1      74.081  61.713  17.836  1.00  0.00     0.009 C 
HETATM   33  C22 UNL     1      72.933  63.738  17.071  1.00  0.00     0.009 C 
HETATM   34  C19 UNL     1      75.245  62.533  18.353  1.00  0.00    -0.012 C 
HETATM   35  C20 UNL     1      74.714  63.845  18.833  1.00  0.00     0.009 C 
HETATM   36  C24 UNL     1      76.244  62.669  17.222  1.00  0.00     0.035 C 
HETATM   37  C21 UNL     1      74.074  64.543  17.657  1.00  0.00    -0.012 C 
HETATM   38  C23 UNL     1      75.110  64.712  16.594  1.00  0.00     0.035 C 
ENDBRANCH  27  29
ENDBRANCH   6  25
TORSDOF 6
ENDMDL
MODEL 2
REMARK VINA RESULT: -7.619164930      0.174      1.286
REMARK  6 active torsions:
REMARK  status: ('A' for Active; 'I' for Inactive)
REMARK    1  A    between atoms: N1_5  and  S1_6 
REMARK    2  A    between atoms: S1_6  and  N2_9 
REMARK    3  A    between atoms: N2_9  and  C5_11 
REMARK    4  A    between atoms: N3_14  and  C8_15 
REMARK    5  A    between atoms: C13_23  and  C14_24 
REMARK       I    between atoms: C14_24  and  N5_26 
REMARK    6  A    between atoms: N5_26  and  C15_28 
ROOT
HETATM    1  C1  UNL     1      78.635  65.208   9.462  1.00  0.00     0.010 C 
HETATM    2  C2  UNL     1      78.331  65.628  10.886  1.00  0.00    -0.015 C 
HETATM    3  C3  UNL     1      79.527  65.630  11.761  1.00  0.00     0.025 C 
HETATM    4  C4  UNL     1      79.803  64.389  12.541  1.00  0.00     0.138 C 
HETATM    5  N1  UNL     1      78.632  63.767  13.075  1.00  0.00    -0.281 N 
HETATM    6  C13 UNL     1      77.542  64.643  12.954  1.00  0.00     0.189 C 
HETATM    7  C25 UNL     1      77.226  64.809  11.491  1.00  0.00     0.040 C 
ENDROOT
BRANCH   5   8
HETATM    8  S1  UNL     1      78.493  62.134  12.743  1.00  0.00     0.318 S 
HETATM    9  O1  UNL     1      77.135  61.527  12.865  1.00  0.00    -0.183 OA
HETATM   10  O2  UNL     1      78.873  61.911  11.267  1.00  0.00    -0.183 OA
BRANCH   8  11
HETATM   11  N2  UNL     1      79.645  61.277  13.725  1.00  0.00    -0.296 N 
ATOM     12  H2  UNL     1      79.406  60.862  14.626  1.00  0.00     0.174 HD
BRANCH  11  13
HETATM   13  C5  UNL     1      80.948  61.205  13.164  1.00  0.00     0.124 C 
HETATM   14  C6  UNL     1      81.380  59.731  13.161  1.00  0.00     0.058 C 
HETATM   15  C7  UNL     1      82.864  59.735  13.509  1.00  0.00     0.277 C 
HETATM   16  N3  UNL     1      83.198  61.121  13.516  1.00  0.00     0.121 N 
HETATM   17  C12 UNL     1      82.038  61.820  14.023  1.00  0.00     0.300 C 
BRANCH  16  18
HETATM   18  C8  UNL     1      84.410  61.478  14.172  1.00  0.00     0.419 C 
HETATM   19  C9  UNL     1      85.011  60.313  14.901  1.00  0.00     0.067 C 
HETATM   20  C10 UNL     1      84.903  60.714  16.356  1.00  0.00     0.031 C 
HETATM   21  C11 UNL     1      84.913  62.225  16.320  1.00  0.00     0.235 C 
HETATM   22  N4  UNL     1      84.346  62.604  15.043  1.00  0.00    -0.043 N 
ATOM     23  H42 UNL     1      84.790  63.432  14.648  1.00  0.00     0.279 HD
ATOM     24  H41 UNL     1      83.401  62.979  15.130  1.00  0.00     0.279 HD
ENDBRANCH  16  18
ENDBRANCH  11  13
ENDBRANCH   8  11
ENDBRANCH   5   8
BRANCH   6  25
HETATM   25  C14 UNL     1      76.395  64.459  13.837  1.00  0.00     0.242 C 
HETATM   26  O3  UNL     1      75.264  64.824  13.488  1.00  0.00    -0.271 OA
HETATM   27  N5  UNL     1      76.565  63.863  15.098  1.00  0.00    -0.350 N 
ATOM     28  H5  UNL     1      77.508  63.572  15.357  1.00  0.00     0.163 HD
BRANCH  27  29
HETATM   29  C15 UNL     1      75.511  63.629  16.056  1.00  0.00     0.034 C 
HETATM   30  C16 UNL     1      74.903  64.883  16.610  1.00  0.00     0.035 C 
HETATM   31  C17 UNL     1      73.869  64.470  17.650  1.00  0.00    -0.012 C 
HETATM   32  C18 UNL     1      72.786  63.621  17.004  1.00  0.00     0.009 C 
HETATM   33  C22 UNL     1      74.491  63.690  18.761  1.00  0.00     0.009 C 
HETATM   34  C19 UNL     1      73.401  62.367  16.416  1.00  0.00    -0.012 C 
HETATM   35  C20 UNL     1      73.980  61.564  17.534  1.00  0.00     0.009 C 
HETATM   36  C24 UNL     1      74.432  62.803  15.394  1.00  0.00     0.035 C 
HETATM   37  C21 UNL     1      75.049  62.399  18.199  1.00  0.00    -0.012 C 
HETATM   38  C23 UNL     1      76.074  62.750  17.171  1.00  0.00     0.035 C 
ENDBRANCH  27  29
ENDBRANCH   6  25
TORSDOF 6
ENDMDL
MODEL 3
REMARK VINA RESULT: -7.109529188      1.057      1.432
REMARK  6 active torsions:
REMARK  status: ('A' for Active; 'I' for Inactive)
REMARK    1  A    between atoms: N1_5  and  S1_6 
REMARK    2  A    between atoms: S1_6  and  N2_9 
REMARK    3  A    between atoms: N2_9  and  C5_11 
REMARK    4  A    between atoms: N3_14  and  C8_15 
REMARK    5  A    between atoms: C13_23  and  C14_24 
REMARK       I    between atoms: C14_24  and  N5_26 
REMARK    6  A    between atoms: N5_26  and  C15_28 
ROOT
HETATM    1  C1  UNL     1      78.635  64.950   9.371  1.00  0.00     0.010 C 
HETATM    2  C2  UNL     1      78.237  65.454  10.743  1.00  0.00    -0.015 C 
HETATM    3  C3  UNL     1      79.397  65.724  11.625  1.00  0.00     0.025 C 
HETATM    4  C4  UNL     1      79.838  64.620  12.527  1.00  0.00     0.138 C 
HETATM    5  N1  UNL     1      78.762  63.882  13.109  1.00  0.00    -0.281 N 
HETATM    6  C13 UNL     1      77.555  64.565  12.892  1.00  0.00     0.189 C 
HETATM    7  C25 UNL     1      77.254  64.538  11.417  1.00  0.00     0.040 C 
ENDROOT
BRANCH   5   8
HETATM    8  S1  UNL     1      78.879  62.222  12.940  1.00  0.00     0.318 S 
HETATM    9  O1  UNL     1      77.662  61.417  13.253  1.00  0.00    -0.183 OA
HETATM   10  O2  UNL     1      79.164  61.910  11.459  1.00  0.00    -0.183 OA
BRANCH   8  11
HETATM   11  N2  UNL     1      80.241  61.673  13.871  1.00  0.00    -0.296 N 
ATOM     12  H2  UNL     1      80.257  61.683  14.891  1.00  0.00     0.174 HD
BRANCH  11  13
HETATM   13  C5  UNL     1      81.331  61.207  13.088  1.00  0.00     0.124 C 
HETATM   14  C6  UNL     1      81.333  59.672  13.147  1.00  0.00     0.058 C 
HETATM   15  C7  UNL     1      82.799  59.263  13.213  1.00  0.00     0.277 C 
HETATM   16  N3  UNL     1      83.495  60.493  13.025  1.00  0.00     0.121 N 
HETATM   17  C12 UNL     1      82.699  61.516  13.668  1.00  0.00     0.300 C 
BRANCH  16  18
HETATM   18  C8  UNL     1      84.866  60.512  13.408  1.00  0.00     0.419 C 
HETATM   19  C9  UNL     1      85.770  60.694  12.226  1.00  0.00     0.067 C 
HETATM   20  C10 UNL     1      86.516  59.379  12.148  1.00  0.00     0.031 C 
HETATM   21  C11 UNL     1      86.510  58.871  13.572  1.00  0.00     0.235 C 
HETATM   22  N4  UNL     1      85.317  59.409  14.189  1.00  0.00    -0.043 N 
ATOM     23  H42 UNL     1      85.458  59.653  15.169  1.00  0.00     0.279 HD
ATOM     24  H41 UNL     1      84.593  58.703  14.324  1.00  0.00     0.279 HD
ENDBRANCH  16  18
ENDBRANCH  11  13
ENDBRANCH   8  11
ENDBRANCH   5   8
BRANCH   6  25
HETATM   25  C14 UNL     1      76.428  64.295  13.777  1.00  0.00     0.242 C 
HETATM   26  O3  UNL     1      75.269  64.553  13.423  1.00  0.00    -0.271 OA
HETATM   27  N5  UNL     1      76.649  63.737  15.048  1.00  0.00    -0.350 N 
ATOM     28  H5  UNL     1      77.613  63.535  15.312  1.00  0.00     0.163 HD
BRANCH  27  29
HETATM   29  C15 UNL     1      75.618  63.426  16.010  1.00  0.00     0.034 C 
HETATM   30  C16 UNL     1      74.502  62.589  15.457  1.00  0.00     0.035 C 
HETATM   31  C17 UNL     1      73.471  62.414  16.564  1.00  0.00    -0.012 C 
HETATM   32  C18 UNL     1      74.096  61.707  17.756  1.00  0.00     0.009 C 
HETATM   33  C22 UNL     1      72.924  63.727  17.018  1.00  0.00     0.009 C 
HETATM   34  C19 UNL     1      75.243  62.535  18.298  1.00  0.00    -0.012 C 
HETATM   35  C20 UNL     1      74.688  63.830  18.796  1.00  0.00     0.009 C 
HETATM   36  C24 UNL     1      76.249  62.705  17.178  1.00  0.00     0.035 C 
HETATM   37  C21 UNL     1      74.048  64.539  17.627  1.00  0.00    -0.012 C 
HETATM   38  C23 UNL     1      75.090  64.743  16.577  1.00  0.00     0.035 C 
ENDBRANCH  27  29
ENDBRANCH   6  25
TORSDOF 6
ENDMDL
MODEL 4
REMARK VINA RESULT: -7.095065151      1.628      2.054
REMARK  6 active torsions:
REMARK  status: ('A' for Active; 'I' for Inactive)
REMARK    1  A    between atoms: N1_5  and  S1_6 
REMARK    2  A    between atoms: S1_6  and  N2_9 
REMARK    3  A    between atoms: N2_9  and  C5_11 
REMARK    4  A    between atoms: N3_14  and  C8_15 
REMARK    5  A    between atoms: C13_23  and  C14_24 
REMARK       I    between atoms: C14_24  and  N5_26 
REMARK    6  A    between atoms: N5_26  and  C15_28 
ROOT
HETATM    1  C1  UNL     1      78.840  63.934   9.432  1.00  0.00     0.010 C 
HETATM    2  C2  UNL     1      78.200  64.473  10.695  1.00  0.00    -0.015 C 
HETATM    3  C3  UNL     1      79.105  65.345  11.481  1.00  0.00     0.025 C 
HETATM    4  C4  UNL     1      79.905  64.699  12.562  1.00  0.00     0.138 C 
HETATM    5  N1  UNL     1      79.188  63.707  13.300  1.00  0.00    -0.281 N 
HETATM    6  C13 UNL     1      77.822  63.790  12.989  1.00  0.00     0.189 C 
HETATM    7  C25 UNL     1      77.635  63.376  11.554  1.00  0.00     0.040 C 
ENDROOT
BRANCH   5   8
HETATM    8  S1  UNL     1      79.972  62.237  13.441  1.00  0.00     0.318 S 
HETATM    9  O1  UNL     1      79.778  61.480  14.713  1.00  0.00    -0.183 OA
HETATM   10  O2  UNL     1      79.423  61.294  12.355  1.00  0.00    -0.183 OA
BRANCH   8  11
HETATM   11  N2  UNL     1      81.664  62.487  13.123  1.00  0.00    -0.296 N 
ATOM     12  H2  UNL     1      82.030  63.348  12.717  1.00  0.00     0.174 HD
BRANCH  11  13
HETATM   13  C5  UNL     1      82.492  61.390  13.480  1.00  0.00     0.124 C 
HETATM   14  C6  UNL     1      83.465  61.866  14.569  1.00  0.00     0.058 C 
HETATM   15  C7  UNL     1      84.794  61.186  14.262  1.00  0.00     0.277 C 
HETATM   16  N3  UNL     1      84.470  60.294  13.197  1.00  0.00     0.121 N 
HETATM   17  C12 UNL     1      83.464  60.957  12.397  1.00  0.00     0.300 C 
BRANCH  16  18
HETATM   18  C8  UNL     1      85.563  59.791  12.436  1.00  0.00     0.419 C 
HETATM   19  C9  UNL     1      85.962  58.415  12.878  1.00  0.00     0.067 C 
HETATM   20  C10 UNL     1      87.345  58.617  13.458  1.00  0.00     0.031 C 
HETATM   21  C11 UNL     1      87.874  59.829  12.726  1.00  0.00     0.235 C 
HETATM   22  N4  UNL     1      86.718  60.623  12.368  1.00  0.00    -0.043 N 
ATOM     23  H42 UNL     1      86.821  61.079  11.461  1.00  0.00     0.279 HD
ATOM     24  H41 UNL     1      86.629  61.464  12.937  1.00  0.00     0.279 HD
ENDBRANCH  16  18
ENDBRANCH  11  13
ENDBRANCH   8  11
ENDBRANCH   5   8
BRANCH   6  25
HETATM   25  C14 UNL     1      76.854  63.252  13.938  1.00  0.00     0.242 C 
HETATM   26  O3  UNL     1      76.402  62.107  13.801  1.00  0.00    -0.271 OA
HETATM   27  N5  UNL     1      76.423  64.034  15.025  1.00  0.00    -0.350 N 
ATOM     28  H5  UNL     1      76.812  64.972  15.112  1.00  0.00     0.163 HD
BRANCH  27  29
HETATM   29  C15 UNL     1      75.472  63.613  16.026  1.00  0.00     0.034 C 
HETATM   30  C16 UNL     1      74.277  62.897  15.468  1.00  0.00     0.035 C 
HETATM   31  C17 UNL     1      73.344  62.588  16.632  1.00  0.00    -0.012 C 
HETATM   32  C18 UNL     1      74.046  61.697  17.644  1.00  0.00     0.009 C 
HETATM   33  C22 UNL     1      72.895  63.835  17.320  1.00  0.00     0.009 C 
HETATM   34  C19 UNL     1      75.271  62.405  18.188  1.00  0.00    -0.012 C 
HETATM   35  C20 UNL     1      74.816  63.627  18.918  1.00  0.00     0.009 C 
HETATM   36  C24 UNL     1      76.177  62.711  17.012  1.00  0.00     0.035 C 
HETATM   37  C21 UNL     1      74.102  64.518  17.929  1.00  0.00    -0.012 C 
HETATM   38  C23 UNL     1      75.052  64.845  16.824  1.00  0.00     0.035 C 
ENDBRANCH  27  29
ENDBRANCH   6  25
TORSDOF 6
ENDMDL
MODEL 5
REMARK VINA RESULT: -6.985250704      1.074      1.909
REMARK  6 active torsions:
REMARK  status: ('A' for Active; 'I' for Inactive)
REMARK    1  A    between atoms: N1_5  and  S1_6 
REMARK    2  A    between atoms: S1_6  and  N2_9 
REMARK    3  A    between atoms: N2_9  and  C5_11 
REMARK    4  A    between atoms: N3_14  and  C8_15 
REMARK    5  A    between atoms: C13_23  and  C14_24 
REMARK       I    between atoms: C14_24  and  N5_26 
REMARK    6  A    between atoms: N5_26  and  C15_28 
ROOT
HETATM    1  C1  UNL     1      78.634  65.090   9.470  1.00  0.00     0.010 C 
HETATM    2  C2  UNL     1      78.229  65.620  10.830  1.00  0.00    -0.015 C 
HETATM    3  C3  UNL     1      79.383  65.870  11.726  1.00  0.00     0.025 C 
HETATM    4  C4  UNL     1      79.782  64.765  12.646  1.00  0.00     0.138 C 
HETATM    5  N1  UNL     1      78.679  64.061  13.220  1.00  0.00    -0.281 N 
HETATM    6  C13 UNL     1      77.493  64.772  12.978  1.00  0.00     0.189 C 
HETATM    7  C25 UNL     1      77.213  64.737  11.499  1.00  0.00     0.040 C 
ENDROOT
BRANCH   5   8
HETATM    8  S1  UNL     1      78.756  62.397  13.071  1.00  0.00     0.318 S 
HETATM    9  O1  UNL     1      77.534  61.623  13.435  1.00  0.00    -0.183 OA
HETATM   10  O2  UNL     1      78.985  62.060  11.585  1.00  0.00    -0.183 OA
BRANCH   8  11
HETATM   11  N2  UNL     1      80.137  61.832  13.964  1.00  0.00    -0.296 N 
ATOM     12  H2  UNL     1      80.179  61.838  14.983  1.00  0.00     0.174 HD
BRANCH  11  13
HETATM   13  C5  UNL     1      81.201  61.359  13.151  1.00  0.00     0.124 C 
HETATM   14  C6  UNL     1      81.193  59.825  13.207  1.00  0.00     0.058 C 
HETATM   15  C7  UNL     1      82.658  59.404  13.233  1.00  0.00     0.277 C 
HETATM   16  N3  UNL     1      83.358  60.629  13.029  1.00  0.00     0.121 N 
HETATM   17  C12 UNL     1      82.588  61.657  13.695  1.00  0.00     0.300 C 
BRANCH  16  18
HETATM   18  C8  UNL     1      84.739  60.638  13.376  1.00  0.00     0.419 C 
HETATM   19  C9  UNL     1      85.615  60.728  12.163  1.00  0.00     0.067 C 
HETATM   20  C10 UNL     1      86.329  59.394  12.143  1.00  0.00     0.031 C 
HETATM   21  C11 UNL     1      86.349  58.969  13.593  1.00  0.00     0.235 C 
HETATM   22  N4  UNL     1      85.185  59.571  14.208  1.00  0.00    -0.043 N 
ATOM     23  H42 UNL     1      85.358  59.868  15.168  1.00  0.00     0.279 HD
ATOM     24  H41 UNL     1      84.450  58.891  14.402  1.00  0.00     0.279 HD
ENDBRANCH  16  18
ENDBRANCH  11  13
ENDBRANCH   8  11
ENDBRANCH   5   8
BRANCH   6  25
HETATM   25  C14 UNL     1      76.347  64.541  13.850  1.00  0.00     0.242 C 
HETATM   26  O3  UNL     1      75.206  64.866  13.494  1.00  0.00    -0.271 OA
HETATM   27  N5  UNL     1      76.529  63.943  15.109  1.00  0.00    -0.350 N 
ATOM     28  H5  UNL     1      77.480  63.687  15.374  1.00  0.00     0.163 HD
BRANCH  27  29
HETATM   29  C15 UNL     1      75.477  63.664  16.056  1.00  0.00     0.034 C 
HETATM   30  C16 UNL     1      74.860  64.892  16.660  1.00  0.00     0.035 C 
HETATM   31  C17 UNL     1      73.830  64.431  17.682  1.00  0.00    -0.012 C 
HETATM   32  C18 UNL     1      72.752  63.601  17.003  1.00  0.00     0.009 C 
HETATM   33  C22 UNL     1      74.457  63.611  18.762  1.00  0.00     0.009 C 
HETATM   34  C19 UNL     1      73.375  62.375  16.366  1.00  0.00    -0.012 C 
HETATM   35  C20 UNL     1      73.960  61.532  17.452  1.00  0.00     0.009 C 
HETATM   36  C24 UNL     1      74.403  62.858  15.363  1.00  0.00     0.035 C 
HETATM   37  C21 UNL     1      75.023  62.347  18.149  1.00  0.00    -0.012 C 
HETATM   38  C23 UNL     1      76.046  62.746  17.136  1.00  0.00     0.035 C 
ENDBRANCH  27  29
ENDBRANCH   6  25
TORSDOF 6
ENDMDL
