MODEL 1
REMARK VINA RESULT: -8.374435434      0.000      0.000
REMARK  7 active torsions:
REMARK  status: ('A' for Active; 'I' for Inactive)
REMARK    1  A    between atoms: N3_10  and  C6_12 
REMARK    2  A    between atoms: C6_12  and  C7_13 
REMARK    3  A    between atoms: C7_13  and  C8_14 
REMARK    4  A    between atoms: C11_17  and  C12_18 
REMARK    5  A    between atoms: C12_18  and  C13_19 
REMARK    6  A    between atoms: C13_19  and  N4_20 
REMARK    7  A    between atoms: C20_27  and  O1_28 
REMARK       I    between atoms: N5_32  and  C23_34 
ROOT
HETATM    1  C1  UNL     1      87.694  58.777  13.208  1.00  0.00     0.021 C 
HETATM    2  C2  UNL     1      86.790  59.470  13.621  1.00  0.00    -0.040 C 
HETATM    3  C3  UNL     1      85.691  60.279  14.112  1.00  0.00     0.178 A 
HETATM    4  N1  UNL     1      85.746  60.819  15.327  1.00  0.00    -0.330 N 
ATOM      5  H1  UNL     1      86.566  60.660  15.911  1.00  0.00     0.168 HD
HETATM    6  C4  UNL     1      84.736  61.572  15.795  1.00  0.00     0.200 A 
HETATM    7  N2  UNL     1      83.656  61.772  15.005  1.00  0.00    -0.188 N 
ATOM      8  H2  UNL     1      82.886  62.342  15.354  1.00  0.00     0.185 HD
HETATM    9  C5  UNL     1      83.571  61.238  13.771  1.00  0.00     0.682 A 
HETATM   10  N3  UNL     1      82.572  61.405  13.002  1.00  0.00    -0.225 N 
ATOM     11  H3  UNL     1      82.628  60.949  12.091  1.00  0.00     0.177 HD
HETATM   12  N9  UNL     1      84.597  60.495  13.339  1.00  0.00    -0.164 N 
HETATM   13  C27 UNL     1      84.537  59.906  12.018  1.00  0.00     0.177 C 
ENDROOT
BRANCH  10  14
HETATM   14  C6  UNL     1      81.382  62.154  13.256  1.00  0.00     0.142 C 
BRANCH  14  15
HETATM   15  C7  UNL     1      80.662  62.348  11.945  1.00  0.00     0.058 C 
BRANCH  15  16
HETATM   16  C8  UNL     1      80.068  63.705  11.811  1.00  0.00    -0.057 A 
HETATM   17  C9  UNL     1      80.230  64.644  12.804  1.00  0.00     0.008 A 
HETATM   18  C10 UNL     1      79.681  65.903  12.684  1.00  0.00     0.014 A 
HETATM   19  C11 UNL     1      78.939  66.306  11.574  1.00  0.00    -0.012 A 
HETATM   20  C25 UNL     1      78.781  65.369  10.590  1.00  0.00     0.014 A 
HETATM   21  C26 UNL     1      79.341  64.091  10.716  1.00  0.00     0.008 A 
BRANCH  19  22
HETATM   22  C12 UNL     1      78.398  67.667  11.544  1.00  0.00     0.040 C 
HETATM   23  N5  UNL     1      77.407  68.133  12.109  1.00  0.00    -0.331 N 
HETATM   24  C23 UNL     1      76.390  67.763  12.949  1.00  0.00     0.201 C 
ATOM     25  H5  UNL     1      77.312  69.120  11.873  1.00  0.00     0.168 HD
HETATM   26  N6  UNL     1      75.171  67.249  12.428  1.00  0.00    -0.062 NA
HETATM   27  N7  UNL     1      76.498  67.880  14.227  1.00  0.00    -0.267 N 
HETATM   28  C24 UNL     1      75.494  67.518  15.121  1.00  0.00     0.184 C 
ATOM     29  H7  UNL     1      77.367  68.257  14.604  1.00  0.00     0.180 HD
HETATM   30  N8  UNL     1      74.659  67.223  15.880  1.00  0.00    -0.172 NA
BRANCH  22  31
HETATM   31  C13 UNL     1      79.163  68.674  10.675  1.00  0.00     0.181 C 
BRANCH  31  32
HETATM   32  N4  UNL     1      78.934  68.424   9.275  1.00  0.00    -0.375 N 
HETATM   33  C14 UNL     1      77.643  68.281   8.680  1.00  0.00     0.123 C 
HETATM   34  C15 UNL     1      77.489  67.163   7.718  1.00  0.00     0.024 C 
HETATM   35  C16 UNL     1      78.726  66.724   7.026  1.00  0.00     0.042 C 
HETATM   36  C17 UNL     1      79.942  67.486   7.315  1.00  0.00    -0.031 A 
HETATM   37  C18 UNL     1      81.015  67.353   6.437  1.00  0.00     0.012 A 
HETATM   38  C22 UNL     1      80.078  68.327   8.408  1.00  0.00     0.039 A 
HETATM   39  C19 UNL     1      82.180  68.072   6.701  1.00  0.00     0.037 A 
HETATM   40  C20 UNL     1      82.307  68.903   7.788  1.00  0.00     0.067 A 
HETATM   41  C21 UNL     1      81.232  69.038   8.666  1.00  0.00     0.066 A 
BRANCH  40  42
HETATM   42  O1  UNL     1      83.496  69.595   7.996  1.00  0.00    -0.361 OA
ATOM     43  H1  UNL     1      84.223  69.164   8.430  1.00  0.00     0.217 HD
ENDBRANCH  40  42
ENDBRANCH  31  32
ENDBRANCH  22  31
ENDBRANCH  19  22
ENDBRANCH  15  16
ENDBRANCH  14  15
ENDBRANCH  10  14
TORSDOF 7
ENDMDL
MODEL 2
REMARK VINA RESULT: -7.985024512      1.051      1.412
REMARK  7 active torsions:
REMARK  status: ('A' for Active; 'I' for Inactive)
REMARK    1  A    between atoms: N3_10  and  C6_12 
REMARK    2  A    between atoms: C6_12  and  C7_13 
REMARK    3  A    between atoms: C7_13  and  C8_14 
REMARK    4  A    between atoms: C11_17  and  C12_18 
REMARK    5  A    between atoms: C12_18  and  C13_19 
REMARK    6  A    between atoms: C13_19  and  N4_20 
REMARK    7  A    between atoms: C20_27  and  O1_28 
REMARK       I    between atoms: N5_32  and  C23_34 
ROOT
HETATM    1  C1  UNL     1      87.390  58.856  13.198  1.00  0.00     0.021 C 
HETATM    2  C2  UNL     1      86.505  59.567  13.622  1.00  0.00    -0.040 C 
HETATM    3  C3  UNL     1      85.429  60.397  14.127  1.00  0.00     0.178 A 
HETATM    4  N1  UNL     1      85.494  60.910  15.353  1.00  0.00    -0.330 N 
ATOM      5  H1  UNL     1      86.307  60.714  15.936  1.00  0.00     0.168 HD
HETATM    6  C4  UNL     1      84.505  61.683  15.834  1.00  0.00     0.200 A 
HETATM    7  N2  UNL     1      83.435  61.931  15.044  1.00  0.00    -0.188 N 
ATOM      8  H2  UNL     1      82.680  62.516  15.402  1.00  0.00     0.185 HD
HETATM    9  C5  UNL     1      83.339  61.426  13.799  1.00  0.00     0.682 A 
HETATM   10  N3  UNL     1      82.349  61.639  13.030  1.00  0.00    -0.225 N 
ATOM     11  H3  UNL     1      82.395  61.201  12.110  1.00  0.00     0.177 HD
HETATM   12  N9  UNL     1      84.344  60.662  13.355  1.00  0.00    -0.164 N 
HETATM   13  C27 UNL     1      84.272  60.103  12.021  1.00  0.00     0.177 C 
ENDROOT
BRANCH  10  14
HETATM   14  C6  UNL     1      81.180  62.417  13.296  1.00  0.00     0.142 C 
BRANCH  14  15
HETATM   15  C7  UNL     1      80.517  62.732  11.978  1.00  0.00     0.058 C 
BRANCH  15  16
HETATM   16  C8  UNL     1      79.671  63.954  12.037  1.00  0.00    -0.057 A 
HETATM   17  C9  UNL     1      78.378  63.937  11.569  1.00  0.00     0.008 A 
HETATM   18  C10 UNL     1      77.591  65.068  11.621  1.00  0.00     0.014 A 
HETATM   19  C11 UNL     1      78.039  66.281  12.141  1.00  0.00    -0.012 A 
HETATM   20  C25 UNL     1      79.325  66.293  12.606  1.00  0.00     0.014 A 
HETATM   21  C26 UNL     1      80.121  65.141  12.551  1.00  0.00     0.008 A 
BRANCH  19  22
HETATM   22  C12 UNL     1      77.123  67.425  12.152  1.00  0.00     0.040 C 
HETATM   23  N5  UNL     1      76.119  67.623  12.838  1.00  0.00    -0.331 N 
HETATM   24  C23 UNL     1      75.369  67.034  13.821  1.00  0.00     0.201 C 
ATOM     25  H5  UNL     1      75.710  68.524  12.591  1.00  0.00     0.168 HD
HETATM   26  N6  UNL     1      74.299  66.159  13.490  1.00  0.00    -0.062 NA
HETATM   27  N7  UNL     1      75.599  67.260  15.068  1.00  0.00    -0.267 N 
HETATM   28  C24 UNL     1      74.866  66.686  16.103  1.00  0.00     0.184 C 
ATOM     29  H7  UNL     1      76.359  67.895  15.310  1.00  0.00     0.180 HD
HETATM   30  N8  UNL     1      74.258  66.214  16.980  1.00  0.00    -0.172 NA
BRANCH  22  31
HETATM   31  C13 UNL     1      77.443  68.550  11.158  1.00  0.00     0.181 C 
BRANCH  31  32
HETATM   32  N4  UNL     1      77.367  68.074   9.801  1.00  0.00    -0.375 N 
HETATM   33  C14 UNL     1      76.168  67.619   9.169  1.00  0.00     0.123 C 
HETATM   34  C15 UNL     1      76.282  66.372   8.376  1.00  0.00     0.024 C 
HETATM   35  C16 UNL     1      77.625  66.075   7.819  1.00  0.00     0.042 C 
HETATM   36  C17 UNL     1      78.666  67.077   8.053  1.00  0.00    -0.031 A 
HETATM   37  C18 UNL     1      79.809  67.022   7.259  1.00  0.00     0.012 A 
HETATM   38  C22 UNL     1      78.572  68.069   9.016  1.00  0.00     0.039 A 
HETATM   39  C19 UNL     1      80.809  67.970   7.471  1.00  0.00     0.037 A 
HETATM   40  C20 UNL     1      80.708  68.951   8.429  1.00  0.00     0.067 A 
HETATM   41  C21 UNL     1      79.563  69.006   9.223  1.00  0.00     0.066 A 
BRANCH  40  42
HETATM   42  O1  UNL     1      81.741  69.868   8.592  1.00  0.00    -0.361 OA
ATOM     43  H1  UNL     1      82.252  69.868   9.393  1.00  0.00     0.217 HD
ENDBRANCH  40  42
ENDBRANCH  31  32
ENDBRANCH  22  31
ENDBRANCH  19  22
ENDBRANCH  15  16
ENDBRANCH  14  15
ENDBRANCH  10  14
TORSDOF 7
ENDMDL
MODEL 3
REMARK VINA RESULT: -7.905975362      1.824      2.552
REMARK  7 active torsions:
REMARK  status: ('A' for Active; 'I' for Inactive)
REMARK    1  A    between atoms: N3_10  and  C6_12 
REMARK    2  A    between atoms: C6_12  and  C7_13 
REMARK    3  A    between atoms: C7_13  and  C8_14 
REMARK    4  A    between atoms: C11_17  and  C12_18 
REMARK    5  A    between atoms: C12_18  and  C13_19 
REMARK    6  A    between atoms: C13_19  and  N4_20 
REMARK    7  A    between atoms: C20_27  and  O1_28 
REMARK       I    between atoms: N5_32  and  C23_34 
ROOT
HETATM    1  C1  UNL     1      87.563  58.776  13.172  1.00  0.00     0.021 C 
HETATM    2  C2  UNL     1      86.676  59.476  13.610  1.00  0.00    -0.040 C 
HETATM    3  C3  UNL     1      85.599  60.294  14.132  1.00  0.00     0.178 A 
HETATM    4  N1  UNL     1      85.694  60.839  15.342  1.00  0.00    -0.330 N 
ATOM      5  H1  UNL     1      86.531  60.676  15.901  1.00  0.00     0.168 HD
HETATM    6  C4  UNL     1      84.705  61.600  15.838  1.00  0.00     0.200 A 
HETATM    7  N2  UNL     1      83.602  61.804  15.081  1.00  0.00    -0.188 N 
ATOM      8  H2  UNL     1      82.847  62.380  15.451  1.00  0.00     0.185 HD
HETATM    9  C5  UNL     1      83.475  61.267  13.852  1.00  0.00     0.682 A 
HETATM   10  N3  UNL     1      82.455  61.438  13.113  1.00  0.00    -0.225 N 
ATOM     11  H3  UNL     1      82.480  60.978  12.203  1.00  0.00     0.177 HD
HETATM   12  N9  UNL     1      84.483  60.515  13.392  1.00  0.00    -0.164 N 
HETATM   13  C27 UNL     1      84.379  59.922  12.075  1.00  0.00     0.177 C 
ENDROOT
BRANCH  10  14
HETATM   14  C6  UNL     1      81.278  62.195  13.402  1.00  0.00     0.142 C 
BRANCH  14  15
HETATM   15  C7  UNL     1      80.915  62.984  12.168  1.00  0.00     0.058 C 
BRANCH  15  16
HETATM   16  C8  UNL     1      79.736  63.868  12.376  1.00  0.00    -0.057 A 
HETATM   17  C9  UNL     1      78.459  63.357  12.328  1.00  0.00     0.008 A 
HETATM   18  C10 UNL     1      77.363  64.173  12.521  1.00  0.00     0.014 A 
HETATM   19  C11 UNL     1      77.469  65.540  12.772  1.00  0.00    -0.012 A 
HETATM   20  C25 UNL     1      78.741  66.042  12.819  1.00  0.00     0.014 A 
HETATM   21  C26 UNL     1      79.851  65.210  12.623  1.00  0.00     0.008 A 
BRANCH  19  22
HETATM   22  C12 UNL     1      76.243  66.318  12.963  1.00  0.00     0.040 C 
HETATM   23  N5  UNL     1      75.330  66.162  13.775  1.00  0.00    -0.331 N 
HETATM   24  C23 UNL     1      74.950  65.341  14.803  1.00  0.00     0.201 C 
ATOM     25  H5  UNL     1      74.622  66.883  13.635  1.00  0.00     0.168 HD
HETATM   26  N6  UNL     1      74.186  64.169  14.550  1.00  0.00    -0.062 NA
HETATM   27  N7  UNL     1      75.258  65.607  16.025  1.00  0.00    -0.267 N 
HETATM   28  C24 UNL     1      74.896  64.804  17.103  1.00  0.00     0.184 C 
ATOM     29  H7  UNL     1      75.797  66.452  16.213  1.00  0.00     0.180 HD
HETATM   30  N8  UNL     1      74.595  64.142  18.015  1.00  0.00    -0.172 NA
BRANCH  22  31
HETATM   31  C13 UNL     1      76.046  67.505  12.009  1.00  0.00     0.181 C 
BRANCH  31  32
HETATM   32  N4  UNL     1      76.442  67.157  10.668  1.00  0.00    -0.375 N 
HETATM   33  C14 UNL     1      75.751  66.220   9.839  1.00  0.00     0.123 C 
HETATM   34  C15 UNL     1      76.600  65.255   9.100  1.00  0.00     0.024 C 
HETATM   35  C16 UNL     1      77.982  65.701   8.799  1.00  0.00     0.042 C 
HETATM   36  C17 UNL     1      78.331  67.065   9.199  1.00  0.00    -0.031 A 
HETATM   37  C18 UNL     1      79.462  67.641   8.625  1.00  0.00     0.012 A 
HETATM   38  C22 UNL     1      77.599  67.806  10.113  1.00  0.00     0.039 A 
HETATM   39  C19 UNL     1      79.806  68.939   8.999  1.00  0.00     0.037 A 
HETATM   40  C20 UNL     1      79.074  69.667   9.907  1.00  0.00     0.067 A 
HETATM   41  C21 UNL     1      77.942  69.091  10.480  1.00  0.00     0.066 A 
BRANCH  40  42
HETATM   42  O1  UNL     1      79.470  70.959  10.238  1.00  0.00    -0.361 OA
ATOM     43  H1  UNL     1      80.342  71.113  10.583  1.00  0.00     0.217 HD
ENDBRANCH  40  42
ENDBRANCH  31  32
ENDBRANCH  22  31
ENDBRANCH  19  22
ENDBRANCH  15  16
ENDBRANCH  14  15
ENDBRANCH  10  14
TORSDOF 7
ENDMDL
MODEL 4
REMARK VINA RESULT: -7.832882399      2.742      4.029
REMARK  7 active torsions:
REMARK  status: ('A' for Active; 'I' for Inactive)
REMARK    1  A    between atoms: N3_10  and  C6_12 
REMARK    2  A    between atoms: C6_12  and  C7_13 
REMARK    3  A    between atoms: C7_13  and  C8_14 
REMARK    4  A    between atoms: C11_17  and  C12_18 
REMARK    5  A    between atoms: C12_18  and  C13_19 
REMARK    6  A    between atoms: C13_19  and  N4_20 
REMARK    7  A    between atoms: C20_27  and  O1_28 
REMARK       I    between atoms: N5_32  and  C23_34 
ROOT
HETATM    1  C1  UNL     1      87.358  58.779  13.157  1.00  0.00     0.021 C 
HETATM    2  C2  UNL     1      86.497  59.494  13.621  1.00  0.00    -0.040 C 
HETATM    3  C3  UNL     1      85.450  60.330  14.175  1.00  0.00     0.178 A 
HETATM    4  N1  UNL     1      85.583  60.857  15.390  1.00  0.00    -0.330 N 
ATOM      5  H1  UNL     1      86.426  60.668  15.929  1.00  0.00     0.168 HD
HETATM    6  C4  UNL     1      84.621  61.634  15.915  1.00  0.00     0.200 A 
HETATM    7  N2  UNL     1      83.508  61.873  15.183  1.00  0.00    -0.188 N 
ATOM      8  H2  UNL     1      82.774  62.462  15.576  1.00  0.00     0.185 HD
HETATM    9  C5  UNL     1      83.344  61.354  13.951  1.00  0.00     0.682 A 
HETATM   10  N3  UNL     1      82.313  61.558  13.236  1.00  0.00    -0.225 N 
ATOM     11  H3  UNL     1      82.309  61.109  12.320  1.00  0.00     0.177 HD
HETATM   12  N9  UNL     1      84.324  60.585  13.461  1.00  0.00    -0.164 N 
HETATM   13  C27 UNL     1      84.179  60.011  12.140  1.00  0.00     0.177 C 
ENDROOT
BRANCH  10  14
HETATM   14  C6  UNL     1      81.160  62.338  13.557  1.00  0.00     0.142 C 
BRANCH  14  15
HETATM   15  C7  UNL     1      80.871  63.250  12.390  1.00  0.00     0.058 C 
BRANCH  15  16
HETATM   16  C8  UNL     1      79.675  64.105  12.611  1.00  0.00    -0.057 A 
HETATM   17  C9  UNL     1      78.429  63.543  12.776  1.00  0.00     0.008 A 
HETATM   18  C10 UNL     1      77.318  64.333  12.981  1.00  0.00     0.014 A 
HETATM   19  C11 UNL     1      77.374  65.725  13.035  1.00  0.00    -0.012 A 
HETATM   20  C25 UNL     1      78.614  66.278  12.871  1.00  0.00     0.014 A 
HETATM   21  C26 UNL     1      79.741  65.472  12.663  1.00  0.00     0.008 A 
BRANCH  19  22
HETATM   22  C12 UNL     1      76.135  66.472  13.257  1.00  0.00     0.040 C 
HETATM   23  N5  UNL     1      75.210  66.249  14.041  1.00  0.00    -0.331 N 
HETATM   24  C23 UNL     1      74.825  65.353  15.004  1.00  0.00     0.201 C 
ATOM     25  H5  UNL     1      74.495  66.968  13.940  1.00  0.00     0.168 HD
HETATM   26  N6  UNL     1      74.082  64.192  14.657  1.00  0.00    -0.062 NA
HETATM   27  N7  UNL     1      75.110  65.538  16.246  1.00  0.00    -0.267 N 
HETATM   28  C24 UNL     1      74.742  64.658  17.260  1.00  0.00     0.184 C 
ATOM     29  H7  UNL     1      75.634  66.375  16.501  1.00  0.00     0.180 HD
HETATM   30  N8  UNL     1      74.436  63.931  18.119  1.00  0.00    -0.172 NA
BRANCH  22  31
HETATM   31  C13 UNL     1      75.937  67.719  12.385  1.00  0.00     0.181 C 
BRANCH  31  32
HETATM   32  N4  UNL     1      76.316  68.912  13.099  1.00  0.00    -0.375 N 
HETATM   33  C14 UNL     1      76.017  69.159  14.475  1.00  0.00     0.123 C 
HETATM   34  C15 UNL     1      75.519  70.518  14.798  1.00  0.00     0.024 C 
HETATM   35  C16 UNL     1      75.939  71.602  13.878  1.00  0.00     0.042 C 
HETATM   36  C17 UNL     1      76.854  71.226  12.798  1.00  0.00    -0.031 A 
HETATM   37  C18 UNL     1      77.549  72.245  12.152  1.00  0.00     0.012 A 
HETATM   38  C22 UNL     1      77.061  69.918  12.391  1.00  0.00     0.039 A 
HETATM   39  C19 UNL     1      78.422  71.900  11.121  1.00  0.00     0.037 A 
HETATM   40  C20 UNL     1      78.621  70.600  10.723  1.00  0.00     0.067 A 
HETATM   41  C21 UNL     1      77.926  69.580  11.371  1.00  0.00     0.066 A 
BRANCH  40  42
HETATM   42  O1  UNL     1      79.507  70.321   9.687  1.00  0.00    -0.361 OA
ATOM     43  H1  UNL     1      79.654  69.421   9.420  1.00  0.00     0.217 HD
ENDBRANCH  40  42
ENDBRANCH  31  32
ENDBRANCH  22  31
ENDBRANCH  19  22
ENDBRANCH  15  16
ENDBRANCH  14  15
ENDBRANCH  10  14
TORSDOF 7
ENDMDL
MODEL 5
REMARK VINA RESULT: -7.641490459      3.962      6.633
REMARK  7 active torsions:
REMARK  status: ('A' for Active; 'I' for Inactive)
REMARK    1  A    between atoms: N3_10  and  C6_12 
REMARK    2  A    between atoms: C6_12  and  C7_13 
REMARK    3  A    between atoms: C7_13  and  C8_14 
REMARK    4  A    between atoms: C11_17  and  C12_18 
REMARK    5  A    between atoms: C12_18  and  C13_19 
REMARK    6  A    between atoms: C13_19  and  N4_20 
REMARK    7  A    between atoms: C20_27  and  O1_28 
REMARK       I    between atoms: N5_32  and  C23_34 
ROOT
HETATM    1  C1  UNL     1      87.749  59.201  12.926  1.00  0.00     0.021 C 
HETATM    2  C2  UNL     1      86.813  59.773  13.441  1.00  0.00    -0.040 C 
HETATM    3  C3  UNL     1      85.679  60.436  14.053  1.00  0.00     0.178 A 
HETATM    4  N1  UNL     1      85.735  60.828  15.324  1.00  0.00    -0.330 N 
ATOM      5  H1  UNL     1      86.581  60.658  15.865  1.00  0.00     0.168 HD
HETATM    6  C4  UNL     1      84.691  61.446  15.903  1.00  0.00     0.200 A 
HETATM    7  N2  UNL     1      83.576  61.663  15.168  1.00  0.00    -0.188 N 
ATOM      8  H2  UNL     1      82.780  62.131  15.602  1.00  0.00     0.185 HD
HETATM    9  C5  UNL     1      83.489  61.278  13.880  1.00  0.00     0.682 A 
HETATM   10  N3  UNL     1      82.458  61.466  13.160  1.00  0.00    -0.225 N 
ATOM     11  H3  UNL     1      82.516  61.128  12.199  1.00  0.00     0.177 HD
HETATM   12  N9  UNL     1      84.549  60.667  13.337  1.00  0.00    -0.164 N 
HETATM   13  C27 UNL     1      84.488  60.239  11.955  1.00  0.00     0.177 C 
ENDROOT
BRANCH  10  14
HETATM   14  C6  UNL     1      81.228  62.092  13.532  1.00  0.00     0.142 C 
BRANCH  14  15
HETATM   15  C7  UNL     1      81.000  63.261  12.606  1.00  0.00     0.058 C 
BRANCH  15  16
HETATM   16  C8  UNL     1      79.673  63.903  12.807  1.00  0.00    -0.057 A 
HETATM   17  C9  UNL     1      78.580  63.155  13.180  1.00  0.00     0.008 A 
HETATM   18  C10 UNL     1      77.348  63.746  13.367  1.00  0.00     0.014 A 
HETATM   19  C11 UNL     1      77.128  65.112  13.197  1.00  0.00    -0.012 A 
HETATM   20  C25 UNL     1      78.218  65.851  12.827  1.00  0.00     0.014 A 
HETATM   21  C26 UNL     1      79.467  65.246  12.638  1.00  0.00     0.008 A 
BRANCH  19  22
HETATM   22  C12 UNL     1      75.781  65.642  13.422  1.00  0.00     0.040 C 
HETATM   23  N5  UNL     1      75.414  66.801  13.621  1.00  0.00    -0.331 N 
HETATM   24  C23 UNL     1      75.916  68.071  13.738  1.00  0.00     0.201 C 
ATOM     25  H5  UNL     1      74.401  66.823  13.740  1.00  0.00     0.168 HD
HETATM   26  N6  UNL     1      76.340  68.569  14.999  1.00  0.00    -0.062 NA
HETATM   27  N7  UNL     1      76.008  68.853  12.719  1.00  0.00    -0.267 N 
HETATM   28  C24 UNL     1      76.511  70.150  12.786  1.00  0.00     0.184 C 
ATOM     29  H7  UNL     1      75.696  68.503  11.813  1.00  0.00     0.180 HD
HETATM   30  N8  UNL     1      76.926  71.238  12.829  1.00  0.00    -0.172 NA
BRANCH  22  31
HETATM   31  C13 UNL     1      74.645  64.610  13.420  1.00  0.00     0.181 C 
BRANCH  31  32
HETATM   32  N4  UNL     1      73.780  64.796  14.557  1.00  0.00    -0.375 N 
HETATM   33  C14 UNL     1      72.425  65.245  14.478  1.00  0.00     0.123 C 
HETATM   34  C15 UNL     1      72.022  66.275  15.465  1.00  0.00     0.024 C 
HETATM   35  C16 UNL     1      72.782  66.290  16.739  1.00  0.00     0.042 C 
HETATM   36  C17 UNL     1      73.792  65.244  16.910  1.00  0.00    -0.031 A 
HETATM   37  C18 UNL     1      74.258  64.997  18.199  1.00  0.00     0.012 A 
HETATM   38  C22 UNL     1      74.303  64.495  15.862  1.00  0.00     0.039 A 
HETATM   39  C19 UNL     1      75.222  64.005  18.375  1.00  0.00     0.037 A 
HETATM   40  C20 UNL     1      75.724  63.266  17.331  1.00  0.00     0.067 A 
HETATM   41  C21 UNL     1      75.256  63.513  16.041  1.00  0.00     0.066 A 
BRANCH  40  42
HETATM   42  O1  UNL     1      76.685  62.289  17.573  1.00  0.00    -0.361 OA
ATOM     43  H1  UNL     1      77.598  62.467  17.381  1.00  0.00     0.217 HD
ENDBRANCH  40  42
ENDBRANCH  31  32
ENDBRANCH  22  31
ENDBRANCH  19  22
ENDBRANCH  15  16
ENDBRANCH  14  15
ENDBRANCH  10  14
TORSDOF 7
ENDMDL
