MODEL 1
REMARK VINA RESULT: -8.604092717      0.000      0.000
REMARK  12 active torsions:
REMARK  status: ('A' for Active; 'I' for Inactive)
REMARK    1  A    between atoms: C2_2  and  C3_3 
REMARK    2  A    between atoms: C3_3  and  N1_4 
REMARK    3  A    between atoms: N1_4  and  C4_5 
REMARK    4  A    between atoms: N1_4  and  C10_15 
REMARK    5  A    between atoms: C4_5  and  C5_6 
REMARK    6  A    between atoms: C10_15  and  O1_16 
REMARK    7  A    between atoms: C11_18  and  N4_19 
REMARK    8  A    between atoms: C16_25  and  N5_26 
REMARK    9  A    between atoms: C22_33  and  C24_35 
REMARK   10  A    between atoms: C24_35  and  C25_36 
REMARK   11  A    between atoms: C25_36  and  C26_37 
REMARK   12  A    between atoms: C26_37  and  N6_38 
ROOT
HETATM    1  N4  UNL     1      17.555  24.552  18.484  1.00  0.00    -0.305 N 
HETATM    2  C12 UNL     1      17.949  24.250  19.831  1.00  0.00     0.229 C 
HETATM    3  O2  UNL     1      17.000  24.174  20.623  1.00  0.00    -0.273 OA
HETATM    4  C13 UNL     1      19.256  24.023  20.422  1.00  0.00     0.143 C 
HETATM    5  C14 UNL     1      20.140  25.198  20.342  1.00  0.00    -0.030 A 
HETATM    6  C15 UNL     1      20.632  25.628  21.547  1.00  0.00     0.038 A 
HETATM    7  C16 UNL     1      21.477  26.747  21.623  1.00  0.00     0.029 A 
HETATM    8  C19 UNL     1      21.813  27.417  20.473  1.00  0.00     0.030 A 
HETATM    9  C20 UNL     1      21.331  27.002  19.265  1.00  0.00     0.021 A 
HETATM   10  C21 UNL     1      20.487  25.880  19.198  1.00  0.00     0.009 A 
HETATM   11  S1  UNL     1      19.981  25.501  17.553  1.00  0.00    -0.098 SA
HETATM   12  C22 UNL     1      18.335  24.877  17.341  1.00  0.00     0.089 C 
HETATM   13  C23 UNL     1      18.475  23.713  16.356  1.00  0.00     0.052 C 
ENDROOT
BRANCH   1  14
HETATM   14  C11 UNL     1      16.150  24.611  18.326  1.00  0.00     0.151 C 
HETATM   15  C10 UNL     1      15.289  23.597  17.864  1.00  0.00     0.154 C 
BRANCH  15  16
HETATM   16  N1  UNL     1      15.360  22.266  17.520  1.00  0.00    -0.355 N 
BRANCH  16  17
HETATM   17  C3  UNL     1      15.753  21.604  16.299  1.00  0.00     0.125 C 
BRANCH  17  18
HETATM   18  C2  UNL     1      15.279  22.323  15.041  1.00  0.00     0.015 C 
HETATM   19  C1  UNL     1      14.184  21.440  14.455  1.00  0.00     0.006 C 
ENDBRANCH  17  18
ENDBRANCH  16  17
BRANCH  16  20
HETATM   20  C4  UNL     1      14.941  21.256  18.554  1.00  0.00     0.183 C 
BRANCH  20  21
HETATM   21  C5  UNL     1      13.730  20.541  18.167  1.00  0.00     0.042 A 
HETATM   22  C6  UNL     1      13.791  19.151  18.187  1.00  0.00     0.114 A 
HETATM   23  N2  UNL     1      12.726  18.412  17.842  1.00  0.00    -0.366 N 
HETATM   24  C7  UNL     1      11.572  18.993  17.465  1.00  0.00     0.020 A 
ATOM     25  H2  UNL     1      12.792  17.395  17.864  1.00  0.00     0.165 HD
HETATM   26  C8  UNL     1      10.371  18.231  17.086  1.00  0.00     0.069 C 
HETATM   27  C9  UNL     1      11.496  20.385  17.439  1.00  0.00     0.112 A 
HETATM   28  N3  UNL     1      12.579  21.094  17.791  1.00  0.00    -0.365 N 
ATOM     29  H3  UNL     1      12.517  22.112  17.769  1.00  0.00     0.165 HD
ENDBRANCH  20  21
ENDBRANCH  16  20
ENDBRANCH  15  16
BRANCH  15  30
HETATM   30  O1  UNL     1      14.044  24.045  17.714  1.00  0.00    -0.345 OA
ATOM     31  H1  UNL     1      14.010  24.980  17.877  1.00  0.00     0.219 HD
ENDBRANCH  15  30
ENDBRANCH   1  14
BRANCH  12  32
HETATM   32  C24 UNL     1      17.588  25.939  16.513  1.00  0.00     0.045 C 
BRANCH  32  33
HETATM   33  C25 UNL     1      17.433  25.456  15.056  1.00  0.00     0.033 C 
BRANCH  33  34
HETATM   34  C26 UNL     1      17.961  26.636  14.224  1.00  0.00     0.272 C 
BRANCH  34  35
HETATM   35  N6  UNL     1      19.139  27.215  14.786  1.00  0.00     0.091 N 
HETATM   36  C27 UNL     1      20.297  26.476  14.336  1.00  0.00     0.300 C 
HETATM   37  C28 UNL     1      21.590  27.117  14.737  1.00  0.00     0.262 C 
HETATM   38  N7  UNL     1      21.596  28.547  14.573  1.00  0.00    -0.072 N 
HETATM   39  C29 UNL     1      20.507  28.990  13.747  1.00  0.00     0.262 C 
ATOM     40  H72 UNL     1      21.597  29.025  15.474  1.00  0.00     0.277 HD
ATOM     41  H71 UNL     1      22.492  28.877  14.216  1.00  0.00     0.277 HD
HETATM   42  C30 UNL     1      19.213  28.607  14.391  1.00  0.00     0.300 C 
ENDBRANCH  34  35
ENDBRANCH  33  34
ENDBRANCH  32  33
ENDBRANCH  12  32
BRANCH   7  43
HETATM   43  N5  UNL     1      21.980  27.190  22.858  1.00  0.00    -0.390 N 
HETATM   44  C17 UNL     1      23.441  27.240  23.000  1.00  0.00     0.149 C 
HETATM   45  C18 UNL     1      21.084  27.560  23.913  1.00  0.00     0.149 C 
ENDBRANCH   7  43
TORSDOF 12
ENDMDL
MODEL 2
REMARK VINA RESULT: -8.570332786      1.138      1.780
REMARK  12 active torsions:
REMARK  status: ('A' for Active; 'I' for Inactive)
REMARK    1  A    between atoms: C2_2  and  C3_3 
REMARK    2  A    between atoms: C3_3  and  N1_4 
REMARK    3  A    between atoms: N1_4  and  C4_5 
REMARK    4  A    between atoms: N1_4  and  C10_15 
REMARK    5  A    between atoms: C4_5  and  C5_6 
REMARK    6  A    between atoms: C10_15  and  O1_16 
REMARK    7  A    between atoms: C11_18  and  N4_19 
REMARK    8  A    between atoms: C16_25  and  N5_26 
REMARK    9  A    between atoms: C22_33  and  C24_35 
REMARK   10  A    between atoms: C24_35  and  C25_36 
REMARK   11  A    between atoms: C25_36  and  C26_37 
REMARK   12  A    between atoms: C26_37  and  N6_38 
ROOT
HETATM    1  N4  UNL     1      17.597  24.673  18.632  1.00  0.00    -0.305 N 
HETATM    2  C12 UNL     1      18.004  24.406  19.983  1.00  0.00     0.229 C 
HETATM    3  O2  UNL     1      17.074  24.435  20.800  1.00  0.00    -0.273 OA
HETATM    4  C13 UNL     1      19.307  24.112  20.553  1.00  0.00     0.143 C 
HETATM    5  C14 UNL     1      20.271  25.215  20.397  1.00  0.00    -0.030 A 
HETATM    6  C15 UNL     1      20.824  25.663  21.568  1.00  0.00     0.038 A 
HETATM    7  C16 UNL     1      21.749  26.720  21.570  1.00  0.00     0.029 A 
HETATM    8  C19 UNL     1      22.100  27.310  20.381  1.00  0.00     0.030 A 
HETATM    9  C20 UNL     1      21.558  26.876  19.206  1.00  0.00     0.021 A 
HETATM   10  C21 UNL     1      20.634  25.817  19.214  1.00  0.00     0.009 A 
HETATM   11  S1  UNL     1      20.058  25.399  17.601  1.00  0.00    -0.098 SA
HETATM   12  C22 UNL     1      18.366  24.887  17.458  1.00  0.00     0.089 C 
HETATM   13  C23 UNL     1      18.397  23.672  16.526  1.00  0.00     0.052 C 
ENDROOT
BRANCH   1  14
HETATM   14  C11 UNL     1      16.196  24.826  18.506  1.00  0.00     0.151 C 
HETATM   15  C10 UNL     1      15.263  23.886  18.027  1.00  0.00     0.154 C 
BRANCH  15  16
HETATM   16  N1  UNL     1      15.242  22.565  17.637  1.00  0.00    -0.355 N 
BRANCH  16  17
HETATM   17  C3  UNL     1      15.238  21.336  18.394  1.00  0.00     0.125 C 
BRANCH  17  18
HETATM   18  C2  UNL     1      14.082  21.239  19.384  1.00  0.00     0.015 C 
HETATM   19  C1  UNL     1      13.244  20.055  18.919  1.00  0.00     0.006 C 
ENDBRANCH  17  18
ENDBRANCH  16  17
BRANCH  16  20
HETATM   20  C4  UNL     1      15.249  22.274  16.161  1.00  0.00     0.183 C 
BRANCH  20  21
HETATM   21  C5  UNL     1      13.942  21.841  15.680  1.00  0.00     0.042 A 
HETATM   22  C6  UNL     1      13.845  20.526  15.234  1.00  0.00     0.114 A 
HETATM   23  N2  UNL     1      12.682  20.043  14.770  1.00  0.00    -0.366 N 
HETATM   24  C7  UNL     1      11.581  20.815  14.722  1.00  0.00     0.020 A 
ATOM     25  H2  UNL     1      12.633  19.077  14.448  1.00  0.00     0.165 HD
HETATM   26  C8  UNL     1      10.279  20.333  14.232  1.00  0.00     0.069 C 
HETATM   27  C9  UNL     1      11.663  22.134  15.164  1.00  0.00     0.112 A 
HETATM   28  N3  UNL     1      12.840  22.586  15.623  1.00  0.00    -0.365 N 
ATOM     29  H3  UNL     1      12.894  23.552  15.945  1.00  0.00     0.165 HD
ENDBRANCH  20  21
ENDBRANCH  16  20
ENDBRANCH  15  16
BRANCH  15  30
HETATM   30  O1  UNL     1      14.047  24.416  17.917  1.00  0.00    -0.345 OA
ATOM     31  H1  UNL     1      14.062  25.149  17.313  1.00  0.00     0.219 HD
ENDBRANCH  15  30
ENDBRANCH   1  14
BRANCH  12  32
HETATM   32  C24 UNL     1      17.675  25.961  16.597  1.00  0.00     0.045 C 
BRANCH  32  33
HETATM   33  C25 UNL     1      17.494  25.444  15.155  1.00  0.00     0.033 C 
BRANCH  33  34
HETATM   34  C26 UNL     1      18.015  26.599  14.286  1.00  0.00     0.272 C 
BRANCH  34  35
HETATM   35  N6  UNL     1      19.184  27.210  14.833  1.00  0.00     0.091 N 
HETATM   36  C27 UNL     1      20.353  26.482  14.394  1.00  0.00     0.300 C 
HETATM   37  C28 UNL     1      21.636  27.154  14.779  1.00  0.00     0.262 C 
HETATM   38  N7  UNL     1      21.616  28.580  14.589  1.00  0.00    -0.072 N 
HETATM   39  C29 UNL     1      20.517  28.988  13.757  1.00  0.00     0.262 C 
ATOM     40  H72 UNL     1      21.611  29.075  15.481  1.00  0.00     0.277 HD
ATOM     41  H71 UNL     1      22.506  28.919  14.223  1.00  0.00     0.277 HD
HETATM   42  C30 UNL     1      19.232  28.595  14.413  1.00  0.00     0.300 C 
ENDBRANCH  34  35
ENDBRANCH  33  34
ENDBRANCH  32  33
ENDBRANCH  12  32
BRANCH   7  43
HETATM   43  N5  UNL     1      22.315  27.182  22.770  1.00  0.00    -0.390 N 
HETATM   44  C17 UNL     1      23.776  27.326  22.802  1.00  0.00     0.149 C 
HETATM   45  C18 UNL     1      21.480  27.481  23.896  1.00  0.00     0.149 C 
ENDBRANCH   7  43
TORSDOF 12
ENDMDL
MODEL 3
REMARK VINA RESULT: -8.473277278      2.170      8.882
REMARK  12 active torsions:
REMARK  status: ('A' for Active; 'I' for Inactive)
REMARK    1  A    between atoms: C2_2  and  C3_3 
REMARK    2  A    between atoms: C3_3  and  N1_4 
REMARK    3  A    between atoms: N1_4  and  C4_5 
REMARK    4  A    between atoms: N1_4  and  C10_15 
REMARK    5  A    between atoms: C4_5  and  C5_6 
REMARK    6  A    between atoms: C10_15  and  O1_16 
REMARK    7  A    between atoms: C11_18  and  N4_19 
REMARK    8  A    between atoms: C16_25  and  N5_26 
REMARK    9  A    between atoms: C22_33  and  C24_35 
REMARK   10  A    between atoms: C24_35  and  C25_36 
REMARK   11  A    between atoms: C25_36  and  C26_37 
REMARK   12  A    between atoms: C26_37  and  N6_38 
ROOT
HETATM    1  N4  UNL     1      15.114  22.653  17.014  1.00  0.00    -0.305 N 
HETATM    2  C12 UNL     1      13.887  22.393  16.316  1.00  0.00     0.229 C 
HETATM    3  O2  UNL     1      13.160  23.389  16.197  1.00  0.00    -0.273 OA
HETATM    4  C13 UNL     1      13.353  21.175  15.732  1.00  0.00     0.143 C 
HETATM    5  C14 UNL     1      13.106  20.116  16.725  1.00  0.00    -0.030 A 
HETATM    6  C15 UNL     1      11.821  19.638  16.745  1.00  0.00     0.038 A 
HETATM    7  C16 UNL     1      11.438  18.636  17.651  1.00  0.00     0.029 A 
HETATM    8  C19 UNL     1      12.366  18.132  18.529  1.00  0.00     0.030 A 
HETATM    9  C20 UNL     1      13.649  18.598  18.523  1.00  0.00     0.021 A 
HETATM   10  C21 UNL     1      14.023  19.600  17.612  1.00  0.00     0.009 A 
HETATM   11  S1  UNL     1      15.719  20.058  17.756  1.00  0.00    -0.098 SA
HETATM   12  C22 UNL     1      16.117  21.765  17.488  1.00  0.00     0.089 C 
HETATM   13  C23 UNL     1      17.371  21.747  16.609  1.00  0.00     0.052 C 
ENDROOT
BRANCH   1  14
HETATM   14  C11 UNL     1      15.276  24.020  17.342  1.00  0.00     0.151 C 
HETATM   15  C10 UNL     1      15.924  25.019  16.591  1.00  0.00     0.154 C 
BRANCH  15  16
HETATM   16  N1  UNL     1      16.502  25.159  15.348  1.00  0.00    -0.355 N 
BRANCH  16  17
HETATM   17  C3  UNL     1      16.011  25.724  14.114  1.00  0.00     0.125 C 
BRANCH  17  18
HETATM   18  C2  UNL     1      16.105  24.766  12.931  1.00  0.00     0.015 C 
HETATM   19  C1  UNL     1      15.032  23.712  13.174  1.00  0.00     0.006 C 
ENDBRANCH  17  18
ENDBRANCH  16  17
BRANCH  16  20
HETATM   20  C4  UNL     1      17.896  24.623  15.164  1.00  0.00     0.183 C 
BRANCH  20  21
HETATM   21  C5  UNL     1      18.899  25.681  15.185  1.00  0.00     0.042 A 
HETATM   22  C6  UNL     1      20.193  25.324  14.817  1.00  0.00     0.114 A 
HETATM   23  N2  UNL     1      21.180  26.232  14.812  1.00  0.00    -0.366 N 
HETATM   24  C7  UNL     1      20.949  27.510  15.163  1.00  0.00     0.020 A 
ATOM     25  H2  UNL     1      22.121  25.949  14.539  1.00  0.00     0.165 HD
HETATM   26  C8  UNL     1      21.992  28.548  15.166  1.00  0.00     0.069 C 
HETATM   27  C9  UNL     1      19.658  27.883  15.535  1.00  0.00     0.112 A 
HETATM   28  N3  UNL     1      18.693  26.951  15.529  1.00  0.00    -0.365 N 
ATOM     29  H3  UNL     1      17.751  27.229  15.803  1.00  0.00     0.165 HD
ENDBRANCH  20  21
ENDBRANCH  16  20
ENDBRANCH  15  16
BRANCH  15  30
HETATM   30  O1  UNL     1      16.006  26.163  17.267  1.00  0.00    -0.345 OA
ATOM     31  H1  UNL     1      16.235  26.875  16.681  1.00  0.00     0.219 HD
ENDBRANCH  15  30
ENDBRANCH   1  14
BRANCH  12  32
HETATM   32  C24 UNL     1      16.650  22.287  18.835  1.00  0.00     0.045 C 
BRANCH  32  33
HETATM   33  C25 UNL     1      18.155  22.605  18.718  1.00  0.00     0.033 C 
BRANCH  33  34
HETATM   34  C26 UNL     1      18.510  23.192  20.094  1.00  0.00     0.272 C 
BRANCH  34  35
HETATM   35  N6  UNL     1      18.740  24.599  20.044  1.00  0.00     0.091 N 
HETATM   36  C27 UNL     1      19.800  24.944  20.964  1.00  0.00     0.300 C 
HETATM   37  C28 UNL     1      20.226  26.376  20.851  1.00  0.00     0.262 C 
HETATM   38  N7  UNL     1      20.333  26.838  19.493  1.00  0.00    -0.072 N 
HETATM   39  C29 UNL     1      20.350  25.744  18.561  1.00  0.00     0.262 C 
ATOM     40  H72 UNL     1      19.597  27.507  19.268  1.00  0.00     0.277 HD
ATOM     41  H71 UNL     1      21.144  27.445  19.369  1.00  0.00     0.277 HD
HETATM   42  C30 UNL     1      19.075  24.974  18.685  1.00  0.00     0.300 C 
ENDBRANCH  34  35
ENDBRANCH  33  34
ENDBRANCH  32  33
ENDBRANCH  12  32
BRANCH   7  43
HETATM   43  N5  UNL     1      10.122  18.146  17.673  1.00  0.00    -0.390 N 
HETATM   44  C17 UNL     1       9.586  17.741  18.979  1.00  0.00     0.149 C 
HETATM   45  C18 UNL     1       9.365  18.052  16.460  1.00  0.00     0.149 C 
ENDBRANCH   7  43
TORSDOF 12
ENDMDL
MODEL 4
REMARK VINA RESULT: -8.469023262      2.496      5.383
REMARK  12 active torsions:
REMARK  status: ('A' for Active; 'I' for Inactive)
REMARK    1  A    between atoms: C2_2  and  C3_3 
REMARK    2  A    between atoms: C3_3  and  N1_4 
REMARK    3  A    between atoms: N1_4  and  C4_5 
REMARK    4  A    between atoms: N1_4  and  C10_15 
REMARK    5  A    between atoms: C4_5  and  C5_6 
REMARK    6  A    between atoms: C10_15  and  O1_16 
REMARK    7  A    between atoms: C11_18  and  N4_19 
REMARK    8  A    between atoms: C16_25  and  N5_26 
REMARK    9  A    between atoms: C22_33  and  C24_35 
REMARK   10  A    between atoms: C24_35  and  C25_36 
REMARK   11  A    between atoms: C25_36  and  C26_37 
REMARK   12  A    between atoms: C26_37  and  N6_38 
ROOT
HETATM    1  N4  UNL     1      19.232  25.939  16.805  1.00  0.00    -0.305 N 
HETATM    2  C12 UNL     1      20.443  26.248  17.513  1.00  0.00     0.229 C 
HETATM    3  O2  UNL     1      20.273  26.472  18.719  1.00  0.00    -0.273 OA
HETATM    4  C13 UNL     1      21.820  26.345  17.063  1.00  0.00     0.143 C 
HETATM    5  C14 UNL     1      22.033  27.414  16.072  1.00  0.00    -0.030 A 
HETATM    6  C15 UNL     1      22.993  28.331  16.414  1.00  0.00     0.038 A 
HETATM    7  C16 UNL     1      23.290  29.412  15.570  1.00  0.00     0.029 A 
HETATM    8  C19 UNL     1      22.608  29.550  14.386  1.00  0.00     0.030 A 
HETATM    9  C20 UNL     1      21.650  28.647  14.031  1.00  0.00     0.021 A 
HETATM   10  C21 UNL     1      21.359  27.566  14.882  1.00  0.00     0.009 A 
HETATM   11  S1  UNL     1      20.101  26.510  14.242  1.00  0.00    -0.098 SA
HETATM   12  C22 UNL     1      18.985  25.787  15.415  1.00  0.00     0.089 C 
HETATM   13  C23 UNL     1      18.849  24.323  14.984  1.00  0.00     0.052 C 
ENDROOT
BRANCH   1  14
HETATM   14  C11 UNL     1      18.106  25.867  17.659  1.00  0.00     0.151 C 
HETATM   15  C10 UNL     1      17.562  24.726  18.278  1.00  0.00     0.154 C 
BRANCH  15  16
HETATM   16  N1  UNL     1      17.871  23.393  18.430  1.00  0.00    -0.355 N 
BRANCH  16  17
HETATM   17  C3  UNL     1      18.680  22.694  19.400  1.00  0.00     0.125 C 
BRANCH  17  18
HETATM   18  C2  UNL     1      18.287  22.992  20.842  1.00  0.00     0.015 C 
HETATM   19  C1  UNL     1      19.147  24.177  21.263  1.00  0.00     0.006 C 
ENDBRANCH  17  18
ENDBRANCH  16  17
BRANCH  16  20
HETATM   20  C4  UNL     1      17.315  22.429  17.417  1.00  0.00     0.183 C 
BRANCH  20  21
HETATM   21  C5  UNL     1      16.080  21.802  17.874  1.00  0.00     0.042 A 
HETATM   22  C6  UNL     1      15.807  20.529  17.383  1.00  0.00     0.114 A 
HETATM   23  N2  UNL     1      14.692  19.878  17.747  1.00  0.00    -0.366 N 
HETATM   24  C7  UNL     1      13.807  20.437  18.593  1.00  0.00     0.020 A 
ATOM     25  H2  UNL     1      14.511  18.946  17.375  1.00  0.00     0.165 HD
HETATM   26  C8  UNL     1      12.574  19.765  19.032  1.00  0.00     0.069 C 
HETATM   27  C9  UNL     1      14.067  21.712  19.092  1.00  0.00     0.112 A 
HETATM   28  N3  UNL     1      15.192  22.336  18.709  1.00  0.00    -0.365 N 
ATOM     29  H3  UNL     1      15.376  23.269  19.077  1.00  0.00     0.165 HD
ENDBRANCH  20  21
ENDBRANCH  16  20
ENDBRANCH  15  16
BRANCH  15  30
HETATM   30  O1  UNL     1      16.419  25.006  18.901  1.00  0.00    -0.345 OA
ATOM     31  H1  UNL     1      15.854  25.519  18.336  1.00  0.00     0.219 HD
ENDBRANCH  15  30
ENDBRANCH   1  14
BRANCH  12  32
HETATM   32  C24 UNL     1      17.598  26.370  15.088  1.00  0.00     0.045 C 
BRANCH  32  33
HETATM   33  C25 UNL     1      16.823  25.402  14.169  1.00  0.00     0.033 C 
BRANCH  33  34
HETATM   34  C26 UNL     1      15.465  25.245  14.871  1.00  0.00     0.272 C 
BRANCH  34  35
HETATM   35  N6  UNL     1      15.140  23.880  15.131  1.00  0.00     0.091 N 
HETATM   36  C27 UNL     1      13.706  23.745  15.256  1.00  0.00     0.300 C 
HETATM   37  C28 UNL     1      13.262  22.318  15.359  1.00  0.00     0.262 C 
HETATM   38  N7  UNL     1      13.947  21.437  14.450  1.00  0.00    -0.072 N 
HETATM   39  C29 UNL     1      14.637  22.168  13.423  1.00  0.00     0.262 C 
ATOM     40  H72 UNL     1      14.577  20.807  14.946  1.00  0.00     0.277 HD
ATOM     41  H71 UNL     1      13.312  20.745  14.051  1.00  0.00     0.277 HD
HETATM   42  C30 UNL     1      15.657  23.059  14.056  1.00  0.00     0.300 C 
ENDBRANCH  34  35
ENDBRANCH  33  34
ENDBRANCH  32  33
ENDBRANCH  12  32
BRANCH   7  43
HETATM   43  N5  UNL     1      24.273  30.353  15.921  1.00  0.00    -0.390 N 
HETATM   44  C17 UNL     1      25.366  29.881  16.780  1.00  0.00     0.149 C 
HETATM   45  C18 UNL     1      24.181  31.704  15.453  1.00  0.00     0.149 C 
ENDBRANCH   7  43
TORSDOF 12
ENDMDL
MODEL 5
REMARK VINA RESULT: -8.421580100      2.508      7.235
REMARK  12 active torsions:
REMARK  status: ('A' for Active; 'I' for Inactive)
REMARK    1  A    between atoms: C2_2  and  C3_3 
REMARK    2  A    between atoms: C3_3  and  N1_4 
REMARK    3  A    between atoms: N1_4  and  C4_5 
REMARK    4  A    between atoms: N1_4  and  C10_15 
REMARK    5  A    between atoms: C4_5  and  C5_6 
REMARK    6  A    between atoms: C10_15  and  O1_16 
REMARK    7  A    between atoms: C11_18  and  N4_19 
REMARK    8  A    between atoms: C16_25  and  N5_26 
REMARK    9  A    between atoms: C22_33  and  C24_35 
REMARK   10  A    between atoms: C24_35  and  C25_36 
REMARK   11  A    between atoms: C25_36  and  C26_37 
REMARK   12  A    between atoms: C26_37  and  N6_38 
ROOT
HETATM    1  N4  UNL     1      15.116  24.360  16.273  1.00  0.00    -0.305 N 
HETATM    2  C12 UNL     1      13.747  24.012  16.528  1.00  0.00     0.229 C 
HETATM    3  O2  UNL     1      13.444  24.022  17.729  1.00  0.00    -0.273 OA
HETATM    4  C13 UNL     1      12.664  23.651  15.630  1.00  0.00     0.143 C 
HETATM    5  C14 UNL     1      12.923  22.410  14.880  1.00  0.00    -0.030 A 
HETATM    6  C15 UNL     1      11.964  21.442  15.025  1.00  0.00     0.038 A 
HETATM    7  C16 UNL     1      12.087  20.201  14.378  1.00  0.00     0.029 A 
HETATM    8  C19 UNL     1      13.185  19.959  13.590  1.00  0.00     0.030 A 
HETATM    9  C20 UNL     1      14.149  20.912  13.435  1.00  0.00     0.021 A 
HETATM   10  C21 UNL     1      14.017  22.151  14.086  1.00  0.00     0.009 A 
HETATM   11  S1  UNL     1      15.358  23.246  13.753  1.00  0.00    -0.098 SA
HETATM   12  C22 UNL     1      15.879  24.306  15.076  1.00  0.00     0.089 C 
HETATM   13  C23 UNL     1      16.082  25.679  14.428  1.00  0.00     0.052 C 
ENDROOT
BRANCH   1  14
HETATM   14  C11 UNL     1      15.812  24.730  17.448  1.00  0.00     0.151 C 
HETATM   15  C10 UNL     1      16.297  23.889  18.468  1.00  0.00     0.154 C 
BRANCH  15  16
HETATM   16  N1  UNL     1      16.418  22.540  18.717  1.00  0.00    -0.355 N 
BRANCH  16  17
HETATM   17  C3  UNL     1      16.931  21.810  19.852  1.00  0.00     0.125 C 
BRANCH  17  18
HETATM   18  C2  UNL     1      18.453  21.829  19.944  1.00  0.00     0.015 C 
HETATM   19  C1  UNL     1      18.774  22.545  21.250  1.00  0.00     0.006 C 
ENDBRANCH  17  18
ENDBRANCH  16  17
BRANCH  16  20
HETATM   20  C4  UNL     1      15.973  21.590  17.639  1.00  0.00     0.183 C 
BRANCH  20  21
HETATM   21  C5  UNL     1      14.847  20.765  18.062  1.00  0.00     0.042 A 
HETATM   22  C6  UNL     1      14.722  19.518  17.456  1.00  0.00     0.114 A 
HETATM   23  N2  UNL     1      13.715  18.695  17.781  1.00  0.00    -0.366 N 
HETATM   24  C7  UNL     1      12.797  19.050  18.700  1.00  0.00     0.020 A 
ATOM     25  H2  UNL     1      13.643  17.786  17.325  1.00  0.00     0.165 HD
HETATM   26  C8  UNL     1      11.679  18.182  19.100  1.00  0.00     0.069 C 
HETATM   27  C9  UNL     1      12.908  20.296  19.315  1.00  0.00     0.112 A 
HETATM   28  N3  UNL     1      13.928  21.096  18.967  1.00  0.00    -0.365 N 
ATOM     29  H3  UNL     1      14.004  22.006  19.420  1.00  0.00     0.165 HD
ENDBRANCH  20  21
ENDBRANCH  16  20
ENDBRANCH  15  16
BRANCH  15  30
HETATM   30  O1  UNL     1      16.781  24.590  19.491  1.00  0.00    -0.345 OA
ATOM     31  H1  UNL     1      16.152  25.247  19.766  1.00  0.00     0.219 HD
ENDBRANCH  15  30
ENDBRANCH   1  14
BRANCH  12  32
HETATM   32  C24 UNL     1      17.316  23.872  15.418  1.00  0.00     0.045 C 
BRANCH  32  33
HETATM   33  C25 UNL     1      18.310  24.984  15.022  1.00  0.00     0.033 C 
BRANCH  33  34
HETATM   34  C26 UNL     1      19.452  24.828  16.039  1.00  0.00     0.272 C 
BRANCH  34  35
HETATM   35  N6  UNL     1      19.262  25.636  17.201  1.00  0.00     0.091 N 
HETATM   36  C27 UNL     1      20.058  25.109  18.286  1.00  0.00     0.300 C 
HETATM   37  C28 UNL     1      20.055  25.994  19.495  1.00  0.00     0.262 C 
HETATM   38  N7  UNL     1      20.182  27.393  19.182  1.00  0.00    -0.072 N 
HETATM   39  C29 UNL     1      20.629  27.595  17.831  1.00  0.00     0.262 C 
ATOM     40  H72 UNL     1      19.313  27.895  19.365  1.00  0.00     0.277 HD
ATOM     41  H71 UNL     1      20.787  27.871  19.849  1.00  0.00     0.277 HD
HETATM   42  C30 UNL     1      19.630  27.002  16.889  1.00  0.00     0.300 C 
ENDBRANCH  34  35
ENDBRANCH  33  34
ENDBRANCH  32  33
ENDBRANCH  12  32
BRANCH   7  43
HETATM   43  N5  UNL     1      11.105  19.208  14.529  1.00  0.00    -0.390 N 
HETATM   44  C17 UNL     1      10.818  18.376  13.353  1.00  0.00     0.149 C 
HETATM   45  C18 UNL     1      10.428  19.043  15.780  1.00  0.00     0.149 C 
ENDBRANCH   7  43
TORSDOF 12
ENDMDL
