MODEL 1
REMARK VINA RESULT: -7.653572407      0.000      0.000
REMARK  3 active torsions:
REMARK  status: ('A' for Active; 'I' for Inactive)
REMARK    1  A    between atoms: N1_2  and  C2_4 
REMARK    2  A    between atoms: C3_7  and  C4_8 
REMARK       I    between atoms: C4_8  and  N3_10 
REMARK       I    between atoms: N3_10  and  C5_12 
REMARK       I    between atoms: C5_12  and  N4_14 
REMARK    3  A    between atoms: N4_14  and  C6_16 
ROOT
HETATM    1  C4  UNL     1       8.297 -14.159  22.563  1.00  0.00     0.277 C 
HETATM    2  O1  UNL     1       7.331 -13.783  23.254  1.00  0.00    -0.266 OA
HETATM    3  N3  UNL     1       9.229 -13.172  22.146  1.00  0.00    -0.274 N 
ATOM      4  H3  UNL     1      10.034 -13.436  21.579  1.00  0.00     0.173 HD
HETATM    5  C5  UNL     1       9.039 -11.833  22.515  1.00  0.00     0.329 C 
HETATM    6  O2  UNL     1       8.052 -11.486  23.215  1.00  0.00    -0.247 OA
HETATM    7  N4  UNL     1       9.955 -10.828  22.112  1.00  0.00    -0.287 N 
ATOM      8  H4  UNL     1      10.462 -10.274  22.803  1.00  0.00     0.172 HD
ENDROOT
BRANCH   1   9
HETATM    9  C3  UNL     1       8.459 -15.597  22.192  1.00  0.00     0.116 A 
HETATM   10  N2  UNL     1       7.624 -16.222  21.408  1.00  0.00    -0.331 N 
HETATM   11  C2  UNL     1       7.841 -17.503  21.128  1.00  0.00     0.145 A 
ATOM     12  H2  UNL     1       6.817 -15.735  21.017  1.00  0.00     0.168 HD
HETATM   13  S2  UNL     1       9.265 -17.854  21.992  1.00  0.00    -0.057 SA
HETATM   14  C8  UNL     1       9.521 -16.316  22.683  1.00  0.00     0.015 A 
HETATM   15  C9  UNL     1      10.621 -15.845  23.598  1.00  0.00     0.059 C 
BRANCH  11  16
HETATM   16  N1  UNL     1       7.134 -18.310  20.371  1.00  0.00    -0.375 N 
HETATM   17  C1  UNL     1       7.306 -19.722  20.357  1.00  0.00     0.148 C 
ATOM     18  H1  UNL     1       6.425 -17.904  19.760  1.00  0.00     0.161 HD
ENDBRANCH  11  16
ENDBRANCH   1   9
BRANCH   7  19
HETATM   19  C6  UNL     1      10.135 -10.627  20.825  1.00  0.00     0.169 A 
HETATM   20  N5  UNL     1       9.282 -10.922  19.838  1.00  0.00    -0.278 N 
HETATM   21  N6  UNL     1       9.620 -10.657  18.644  1.00  0.00    -0.286 N 
ATOM     22  H5  UNL     1       8.379 -11.350  20.041  1.00  0.00     0.189 HD
HETATM   23  C7  UNL     1      10.794 -10.101  18.390  1.00  0.00     0.139 A 
ATOM     24  H6  UNL     1       8.985 -10.874  17.876  1.00  0.00     0.188 HD
HETATM   25 BR1  UNL     1      11.534  -9.607  16.678  1.00  0.00    -0.021 Br
HETATM   26  S1  UNL     1      11.446  -9.951  19.962  1.00  0.00    -0.026 SA
ENDBRANCH   7  19
TORSDOF 3
ENDMDL
MODEL 2
REMARK VINA RESULT: -7.575224460      6.379      7.842
REMARK  3 active torsions:
REMARK  status: ('A' for Active; 'I' for Inactive)
REMARK    1  A    between atoms: N1_2  and  C2_4 
REMARK    2  A    between atoms: C3_7  and  C4_8 
REMARK       I    between atoms: C4_8  and  N3_10 
REMARK       I    between atoms: N3_10  and  C5_12 
REMARK       I    between atoms: C5_12  and  N4_14 
REMARK    3  A    between atoms: N4_14  and  C6_16 
ROOT
HETATM    1  C4  UNL     1       9.003 -20.016  21.183  1.00  0.00     0.277 C 
HETATM    2  O1  UNL     1       8.716 -19.272  20.226  1.00  0.00    -0.266 OA
HETATM    3  N3  UNL     1       9.703 -19.438  22.275  1.00  0.00    -0.274 N 
ATOM      4  H3  UNL     1       9.958 -20.011  23.079  1.00  0.00     0.173 HD
HETATM    5  C5  UNL     1      10.043 -18.078  22.245  1.00  0.00     0.329 C 
HETATM    6  O2  UNL     1       9.738 -17.354  21.262  1.00  0.00    -0.247 OA
HETATM    7  N4  UNL     1      10.743 -17.476  23.323  1.00  0.00    -0.287 N 
ATOM      8  H4  UNL     1      10.333 -16.701  23.843  1.00  0.00     0.172 HD
ENDROOT
BRANCH   1   9
HETATM    9  C3  UNL     1       8.620 -21.460  21.173  1.00  0.00     0.116 A 
HETATM   10  N2  UNL     1       8.210 -22.088  22.240  1.00  0.00    -0.331 N 
HETATM   11  C2  UNL     1       7.888 -23.374  22.146  1.00  0.00     0.145 A 
ATOM     12  H2  UNL     1       8.137 -21.600  23.133  1.00  0.00     0.168 HD
HETATM   13  S2  UNL     1       8.170 -23.725  20.503  1.00  0.00    -0.057 SA
HETATM   14  C8  UNL     1       8.694 -22.181  20.007  1.00  0.00     0.015 A 
HETATM   15  C9  UNL     1       9.130 -21.706  18.646  1.00  0.00     0.059 C 
BRANCH  11  16
HETATM   16  N1  UNL     1       7.458 -24.186  23.085  1.00  0.00    -0.375 N 
HETATM   17  C1  UNL     1       7.862 -24.093  24.445  1.00  0.00     0.148 C 
ATOM     18  H1  UNL     1       6.800 -24.920  22.825  1.00  0.00     0.161 HD
ENDBRANCH  11  16
ENDBRANCH   1   9
BRANCH   7  19
HETATM   19  C6  UNL     1      11.932 -17.944  23.635  1.00  0.00     0.169 A 
HETATM   20  N5  UNL     1      12.810 -18.522  22.809  1.00  0.00    -0.278 N 
HETATM   21  N6  UNL     1      13.919 -18.918  23.282  1.00  0.00    -0.286 N 
ATOM     22  H5  UNL     1      12.594 -18.643  21.819  1.00  0.00     0.189 HD
HETATM   23  C7  UNL     1      14.192 -18.757  24.568  1.00  0.00     0.139 A 
ATOM     24  H6  UNL     1      14.603 -19.362  22.670  1.00  0.00     0.188 HD
HETATM   25 BR1  UNL     1      15.790 -19.267  25.520  1.00  0.00    -0.021 Br
HETATM   26  S1  UNL     1      12.769 -17.992  25.124  1.00  0.00    -0.026 SA
ENDBRANCH   7  19
TORSDOF 3
ENDMDL
MODEL 3
REMARK VINA RESULT: -7.342396023      1.003      1.003
REMARK  3 active torsions:
REMARK  status: ('A' for Active; 'I' for Inactive)
REMARK    1  A    between atoms: N1_2  and  C2_4 
REMARK    2  A    between atoms: C3_7  and  C4_8 
REMARK       I    between atoms: C4_8  and  N3_10 
REMARK       I    between atoms: N3_10  and  C5_12 
REMARK       I    between atoms: C5_12  and  N4_14 
REMARK    3  A    between atoms: N4_14  and  C6_16 
ROOT
HETATM    1  C4  UNL     1       8.182 -14.315  22.580  1.00  0.00     0.277 C 
HETATM    2  O1  UNL     1       7.081 -13.930  23.016  1.00  0.00    -0.266 OA
HETATM    3  N3  UNL     1       9.208 -13.343  22.440  1.00  0.00    -0.274 N 
ATOM      4  H3  UNL     1      10.125 -13.615  22.086  1.00  0.00     0.173 HD
HETATM    5  C5  UNL     1       8.958 -12.009  22.790  1.00  0.00     0.329 C 
HETATM    6  O2  UNL     1       7.834 -11.652  23.229  1.00  0.00    -0.247 OA
HETATM    7  N4  UNL     1       9.966 -11.019  22.660  1.00  0.00    -0.287 N 
ATOM      8  H4  UNL     1      10.293 -10.496  23.472  1.00  0.00     0.172 HD
ENDROOT
BRANCH   1   9
HETATM    9  C3  UNL     1       8.404 -15.748  22.219  1.00  0.00     0.116 A 
HETATM   10  N2  UNL     1       7.578 -16.422  21.467  1.00  0.00    -0.331 N 
HETATM   11  C2  UNL     1       7.849 -17.694  21.193  1.00  0.00     0.145 A 
ATOM     12  H2  UNL     1       6.737 -15.980  21.095  1.00  0.00     0.168 HD
HETATM   13  S2  UNL     1       9.314 -17.964  22.018  1.00  0.00    -0.057 SA
HETATM   14  C8  UNL     1       9.514 -16.408  22.685  1.00  0.00     0.015 A 
HETATM   15  C9  UNL     1      10.616 -15.873  23.561  1.00  0.00     0.059 C 
BRANCH  11  16
HETATM   16  N1  UNL     1       7.161 -18.544  20.466  1.00  0.00    -0.375 N 
HETATM   17  C1  UNL     1       7.591 -19.872  20.197  1.00  0.00     0.148 C 
ATOM     18  H1  UNL     1       6.271 -18.235  20.074  1.00  0.00     0.161 HD
ENDBRANCH  11  16
ENDBRANCH   1   9
BRANCH   7  19
HETATM   19  C6  UNL     1      10.468 -10.792  21.466  1.00  0.00     0.169 A 
HETATM   20  N5  UNL     1      11.713 -11.056  21.053  1.00  0.00    -0.278 N 
HETATM   21  N6  UNL     1      12.030 -10.770  19.858  1.00  0.00    -0.286 N 
ATOM     22  H5  UNL     1      12.393 -11.479  21.686  1.00  0.00     0.189 HD
HETATM   23  C7  UNL     1      11.141 -10.222  19.044  1.00  0.00     0.139 A 
ATOM     24  H6  UNL     1      12.974 -10.962  19.524  1.00  0.00     0.188 HD
HETATM   25 BR1  UNL     1      11.375  -9.699  17.202  1.00  0.00    -0.021 Br
HETATM   26  S1  UNL     1       9.772 -10.114  20.060  1.00  0.00    -0.026 SA
ENDBRANCH   7  19
TORSDOF 3
ENDMDL
MODEL 4
REMARK VINA RESULT: -7.307647085      2.099      2.814
REMARK  3 active torsions:
REMARK  status: ('A' for Active; 'I' for Inactive)
REMARK    1  A    between atoms: N1_2  and  C2_4 
REMARK    2  A    between atoms: C3_7  and  C4_8 
REMARK       I    between atoms: C4_8  and  N3_10 
REMARK       I    between atoms: N3_10  and  C5_12 
REMARK       I    between atoms: C5_12  and  N4_14 
REMARK    3  A    between atoms: N4_14  and  C6_16 
ROOT
HETATM    1  C4  UNL     1       8.937 -14.715  22.918  1.00  0.00     0.277 C 
HETATM    2  O1  UNL     1       7.713 -14.662  23.142  1.00  0.00    -0.266 OA
HETATM    3  N3  UNL     1       9.624 -13.486  22.735  1.00  0.00    -0.274 N 
ATOM      4  H3  UNL     1      10.626 -13.483  22.549  1.00  0.00     0.173 HD
HETATM    5  C5  UNL     1       8.921 -12.275  22.812  1.00  0.00     0.329 C 
HETATM    6  O2  UNL     1       7.683 -12.257  23.041  1.00  0.00    -0.247 OA
HETATM    7  N4  UNL     1       9.583 -11.034  22.634  1.00  0.00    -0.287 N 
ATOM      8  H4  UNL     1       9.589 -10.333  23.375  1.00  0.00     0.172 HD
ENDROOT
BRANCH   1   9
HETATM    9  C3  UNL     1       9.646 -16.028  22.845  1.00  0.00     0.116 A 
HETATM   10  N2  UNL     1      10.679 -16.314  23.588  1.00  0.00    -0.331 N 
HETATM   11  C2  UNL     1      11.253 -17.506  23.462  1.00  0.00     0.145 A 
ATOM     12  H2  UNL     1      11.042 -15.633  24.256  1.00  0.00     0.168 HD
HETATM   13  S2  UNL     1      10.317 -18.261  22.257  1.00  0.00    -0.057 SA
HETATM   14  C8  UNL     1       9.215 -16.993  21.968  1.00  0.00     0.015 A 
HETATM   15  C9  UNL     1       8.059 -16.925  21.005  1.00  0.00     0.059 C 
BRANCH  11  16
HETATM   16  N1  UNL     1      12.290 -17.992  24.104  1.00  0.00    -0.375 N 
HETATM   17  C1  UNL     1      13.071 -19.078  23.622  1.00  0.00     0.148 C 
ATOM     18  H1  UNL     1      12.549 -17.569  24.995  1.00  0.00     0.161 HD
ENDBRANCH  11  16
ENDBRANCH   1   9
BRANCH   7  19
HETATM   19  C6  UNL     1      10.190 -10.808  21.489  1.00  0.00     0.169 A 
HETATM   20  N5  UNL     1      11.502 -10.886  21.245  1.00  0.00    -0.278 N 
HETATM   21  N6  UNL     1      11.918 -10.633  20.073  1.00  0.00    -0.286 N 
ATOM     22  H5  UNL     1      12.156 -11.143  21.985  1.00  0.00     0.189 HD
HETATM   23  C7  UNL     1      11.063 -10.300  19.118  1.00  0.00     0.139 A 
ATOM     24  H6  UNL     1      12.915 -10.686  19.865  1.00  0.00     0.188 HD
HETATM   25 BR1  UNL     1      11.441  -9.873  17.276  1.00  0.00    -0.021 Br
HETATM   26  S1  UNL     1       9.577 -10.355  19.959  1.00  0.00    -0.026 SA
ENDBRANCH   7  19
TORSDOF 3
ENDMDL
MODEL 5
REMARK VINA RESULT: -7.239793615      3.131      6.943
REMARK  3 active torsions:
REMARK  status: ('A' for Active; 'I' for Inactive)
REMARK    1  A    between atoms: N1_2  and  C2_4 
REMARK    2  A    between atoms: C3_7  and  C4_8 
REMARK       I    between atoms: C4_8  and  N3_10 
REMARK       I    between atoms: N3_10  and  C5_12 
REMARK       I    between atoms: C5_12  and  N4_14 
REMARK    3  A    between atoms: N4_14  and  C6_16 
ROOT
HETATM    1  C4  UNL     1       9.103 -11.931  22.216  1.00  0.00     0.277 C 
HETATM    2  O1  UNL     1       8.256 -11.501  23.021  1.00  0.00    -0.266 OA
HETATM    3  N3  UNL     1       9.072 -13.317  21.909  1.00  0.00    -0.274 N 
ATOM      4  H3  UNL     1       9.747 -13.711  21.255  1.00  0.00     0.173 HD
HETATM    5  C5  UNL     1       8.110 -14.143  22.508  1.00  0.00     0.329 C 
HETATM    6  O2  UNL     1       7.267 -13.676  23.319  1.00  0.00    -0.247 OA
HETATM    7  N4  UNL     1       8.057 -15.531  22.219  1.00  0.00    -0.287 N 
ATOM      8  H4  UNL     1       7.223 -15.947  21.807  1.00  0.00     0.172 HD
ENDROOT
BRANCH   1   9
HETATM    9  C3  UNL     1      10.110 -11.014  21.601  1.00  0.00     0.116 A 
HETATM   10  N2  UNL     1      10.532 -11.152  20.374  1.00  0.00    -0.331 N 
HETATM   11  C2  UNL     1      11.430 -10.292  19.903  1.00  0.00     0.145 A 
ATOM     12  H2  UNL     1      10.179 -11.907  19.786  1.00  0.00     0.168 HD
HETATM   13  S2  UNL     1      11.699  -9.250  21.222  1.00  0.00    -0.057 SA
HETATM   14  C8  UNL     1      10.630  -9.976  22.333  1.00  0.00     0.015 A 
HETATM   15  C9  UNL     1      10.318  -9.594  23.757  1.00  0.00     0.059 C 
BRANCH  11  16
HETATM   16  N1  UNL     1      11.982 -10.250  18.712  1.00  0.00    -0.375 N 
HETATM   17  C1  UNL     1      11.268  -9.908  17.531  1.00  0.00     0.148 C 
ATOM     18  H1  UNL     1      12.973 -10.474  18.630  1.00  0.00     0.161 HD
ENDBRANCH  11  16
ENDBRANCH   1   9
BRANCH   7  19
HETATM   19  C6  UNL     1       9.112 -16.267  22.495  1.00  0.00     0.169 A 
HETATM   20  N5  UNL     1       9.725 -17.132  21.680  1.00  0.00    -0.278 N 
HETATM   21  N6  UNL     1      10.736 -17.763  22.114  1.00  0.00    -0.286 N 
ATOM     22  H5  UNL     1       9.386 -17.282  20.729  1.00  0.00     0.189 HD
HETATM   23  C7  UNL     1      11.170 -17.562  23.349  1.00  0.00     0.139 A 
ATOM     24  H6  UNL     1      11.218 -18.427  21.509  1.00  0.00     0.188 HD
HETATM   25 BR1  UNL     1      12.670 -18.389  24.235  1.00  0.00    -0.021 Br
HETATM   26  S1  UNL     1      10.054 -16.398  23.915  1.00  0.00    -0.026 SA
ENDBRANCH   7  19
TORSDOF 3
ENDMDL
