MODEL 1
REMARK VINA RESULT: -7.841882876      0.000      0.000
REMARK  7 active torsions:
REMARK  status: ('A' for Active; 'I' for Inactive)
REMARK    1  A    between atoms: C2_2  and  O2_4 
REMARK    2  A    between atoms: O2_4  and  C3_5 
REMARK    3  A    between atoms: C5_7  and  O3_8 
REMARK    4  A    between atoms: O3_8  and  C6_9 
REMARK    5  A    between atoms: C10_14  and  O5_15 
REMARK    6  A    between atoms: O5_15  and  C11_16 
REMARK    7  A    between atoms: C17_23  and  O7_24 
ROOT
HETATM    1  C3  UNL     1       7.376  -2.202  28.041  1.00  0.00     0.135 C 
HETATM    2  C4  UNL     1       6.726  -2.668  26.777  1.00  0.00     0.066 C 
HETATM    3  C5  UNL     1       7.562  -2.280  25.578  1.00  0.00     0.146 C 
HETATM    4  C8  UNL     1       9.002  -2.692  25.644  1.00  0.00     0.021 C 
HETATM    5  C9  UNL     1       9.787  -1.391  25.303  1.00  0.00     0.022 C 
HETATM    6  C10 UNL     1       9.482  -3.688  24.669  1.00  0.00     0.147 C 
HETATM    7  C13 UNL     1      11.019  -3.567  24.571  1.00  0.00     0.061 C 
HETATM    8  C14 UNL     1      11.606  -3.319  25.904  1.00  0.00    -0.021 C 
HETATM    9  C15 UNL     1      10.948  -3.060  26.983  1.00  0.00    -0.071 C 
HETATM   10  C16 UNL     1      11.603  -2.827  28.285  1.00  0.00     0.066 C 
HETATM   11  C17 UNL     1      11.058  -3.841  29.291  1.00  0.00     0.122 C 
HETATM   12  C18 UNL     1       9.952  -4.681  28.839  1.00  0.00     0.033 C 
HETATM   13  C19 UNL     1       9.212  -4.414  27.569  1.00  0.00     0.017 C 
HETATM   14  C20 UNL     1       9.467  -3.045  27.011  1.00  0.00    -0.003 C 
HETATM   15  C21 UNL     1       8.866  -2.010  27.927  1.00  0.00     0.047 C 
ENDROOT
BRANCH   1  16
HETATM   16  O2  UNL     1       6.974  -3.064  29.076  1.00  0.00    -0.316 OA
BRANCH  16  17
HETATM   17  C2  UNL     1       5.735  -3.119  29.644  1.00  0.00     0.255 C 
HETATM   18  C1  UNL     1       4.604  -3.646  28.839  1.00  0.00     0.126 C 
HETATM   19  O1  UNL     1       5.605  -2.720  30.827  1.00  0.00    -0.266 OA
ENDBRANCH  16  17
ENDBRANCH   1  16
BRANCH   3  20
HETATM   20  O3  UNL     1       6.990  -2.530  24.366  1.00  0.00    -0.315 OA
BRANCH  20  21
HETATM   21  C6  UNL     1       6.081  -1.687  23.700  1.00  0.00     0.255 C 
HETATM   22  C7  UNL     1       4.627  -1.883  23.655  1.00  0.00     0.126 C 
HETATM   23  O4  UNL     1       6.656  -0.735  23.141  1.00  0.00    -0.266 OA
ENDBRANCH  20  21
ENDBRANCH   3  20
BRANCH   6  24
HETATM   24  O5  UNL     1       9.090  -3.553  23.322  1.00  0.00    -0.315 OA
BRANCH  24  25
HETATM   25  C11 UNL     1       8.632  -4.643  22.598  1.00  0.00     0.255 C 
HETATM   26  C12 UNL     1       7.335  -4.742  21.904  1.00  0.00     0.126 C 
HETATM   27  O6  UNL     1       9.389  -5.657  22.511  1.00  0.00    -0.266 OA
ENDBRANCH  24  25
ENDBRANCH   6  24
BRANCH  11  28
HETATM   28  O7  UNL     1      12.183  -4.611  29.682  1.00  0.00    -0.395 OA
ATOM     29  H7  UNL     1      11.874  -5.509  29.691  1.00  0.00     0.210 HD
ENDBRANCH  11  28
TORSDOF 7
ENDMDL
MODEL 2
REMARK VINA RESULT: -7.732005195      2.720      6.144
REMARK  7 active torsions:
REMARK  status: ('A' for Active; 'I' for Inactive)
REMARK    1  A    between atoms: C2_2  and  O2_4 
REMARK    2  A    between atoms: O2_4  and  C3_5 
REMARK    3  A    between atoms: C5_7  and  O3_8 
REMARK    4  A    between atoms: O3_8  and  C6_9 
REMARK    5  A    between atoms: C10_14  and  O5_15 
REMARK    6  A    between atoms: O5_15  and  C11_16 
REMARK    7  A    between atoms: C17_23  and  O7_24 
ROOT
HETATM    1  C3  UNL     1       3.813  -3.409  25.177  1.00  0.00     0.135 C 
HETATM    2  C4  UNL     1       4.387  -2.596  26.293  1.00  0.00     0.066 C 
HETATM    3  C5  UNL     1       5.825  -2.989  26.549  1.00  0.00     0.146 C 
HETATM    4  C8  UNL     1       6.714  -2.978  25.343  1.00  0.00     0.021 C 
HETATM    5  C9  UNL     1       7.421  -4.366  25.378  1.00  0.00     0.022 C 
HETATM    6  C10 UNL     1       7.813  -1.997  25.303  1.00  0.00     0.147 C 
HETATM    7  C13 UNL     1       8.867  -2.493  24.288  1.00  0.00     0.061 C 
HETATM    8  C14 UNL     1       8.210  -3.094  23.109  1.00  0.00    -0.021 C 
HETATM    9  C15 UNL     1       6.950  -3.343  22.992  1.00  0.00    -0.071 C 
HETATM   10  C16 UNL     1       6.361  -3.943  21.779  1.00  0.00     0.066 C 
HETATM   11  C17 UNL     1       5.284  -2.997  21.244  1.00  0.00     0.122 C 
HETATM   12  C18 UNL     1       4.960  -1.839  22.073  1.00  0.00     0.033 C 
HETATM   13  C19 UNL     1       5.449  -1.700  23.478  1.00  0.00     0.017 C 
HETATM   14  C20 UNL     1       5.979  -2.981  24.052  1.00  0.00    -0.003 C 
HETATM   15  C21 UNL     1       4.846  -3.958  24.227  1.00  0.00     0.047 C 
ENDROOT
BRANCH   1  16
HETATM   16  O2  UNL     1       2.801  -2.650  24.566  1.00  0.00    -0.316 OA
BRANCH  16  17
HETATM   17  C2  UNL     1       1.476  -2.973  24.504  1.00  0.00     0.255 C 
HETATM   18  C1  UNL     1       0.967  -3.667  23.294  1.00  0.00     0.126 C 
HETATM   19  O1  UNL     1       0.744  -2.668  25.477  1.00  0.00    -0.266 OA
ENDBRANCH  16  17
ENDBRANCH   1  16
BRANCH   3  20
HETATM   20  O3  UNL     1       6.399  -2.409  27.642  1.00  0.00    -0.315 OA
BRANCH  20  21
HETATM   21  C6  UNL     1       6.414  -2.947  28.943  1.00  0.00     0.255 C 
HETATM   22  C7  UNL     1       5.222  -3.305  29.720  1.00  0.00     0.126 C 
HETATM   23  O4  UNL     1       7.573  -3.092  29.371  1.00  0.00    -0.266 OA
ENDBRANCH  20  21
ENDBRANCH   3  20
BRANCH   6  24
HETATM   24  O5  UNL     1       8.589  -1.809  26.465  1.00  0.00    -0.315 OA
BRANCH  24  25
HETATM   25  C11 UNL     1       9.027  -0.547  26.836  1.00  0.00     0.255 C 
HETATM   26  C12 UNL     1       9.446   0.530  25.921  1.00  0.00     0.126 C 
HETATM   27  O6  UNL     1       9.074  -0.275  28.074  1.00  0.00    -0.266 OA
ENDBRANCH  24  25
ENDBRANCH   6  24
BRANCH  11  28
HETATM   28  O7  UNL     1       5.739  -2.616  19.956  1.00  0.00    -0.395 OA
ATOM     29  H7  UNL     1       4.980  -2.237  19.530  1.00  0.00     0.210 HD
ENDBRANCH  11  28
TORSDOF 7
ENDMDL
MODEL 3
REMARK VINA RESULT: -7.721443646      2.384      6.110
REMARK  7 active torsions:
REMARK  status: ('A' for Active; 'I' for Inactive)
REMARK    1  A    between atoms: C2_2  and  O2_4 
REMARK    2  A    between atoms: O2_4  and  C3_5 
REMARK    3  A    between atoms: C5_7  and  O3_8 
REMARK    4  A    between atoms: O3_8  and  C6_9 
REMARK    5  A    between atoms: C10_14  and  O5_15 
REMARK    6  A    between atoms: O5_15  and  C11_16 
REMARK    7  A    between atoms: C17_23  and  O7_24 
ROOT
HETATM    1  C3  UNL     1      10.756  -1.501  24.093  1.00  0.00     0.135 C 
HETATM    2  C4  UNL     1      10.405  -1.119  25.495  1.00  0.00     0.066 C 
HETATM    3  C5  UNL     1       8.904  -1.010  25.653  1.00  0.00     0.146 C 
HETATM    4  C8  UNL     1       8.125  -2.205  25.192  1.00  0.00     0.021 C 
HETATM    5  C9  UNL     1       7.025  -1.608  24.265  1.00  0.00     0.022 C 
HETATM    6  C10 UNL     1       7.385  -2.980  26.204  1.00  0.00     0.147 C 
HETATM    7  C13 UNL     1       6.284  -3.789  25.484  1.00  0.00     0.061 C 
HETATM    8  C14 UNL     1       6.784  -4.315  24.197  1.00  0.00    -0.021 C 
HETATM    9  C15 UNL     1       7.910  -4.014  23.644  1.00  0.00    -0.071 C 
HETATM   10  C16 UNL     1       8.348  -4.583  22.355  1.00  0.00     0.066 C 
HETATM   11  C17 UNL     1       9.689  -5.287  22.566  1.00  0.00     0.122 C 
HETATM   12  C18 UNL     1      10.311  -5.131  23.878  1.00  0.00     0.033 C 
HETATM   13  C19 UNL     1       9.818  -4.142  24.884  1.00  0.00     0.017 C 
HETATM   14  C20 UNL     1       8.890  -3.117  24.303  1.00  0.00    -0.003 C 
HETATM   15  C21 UNL     1       9.656  -2.224  23.361  1.00  0.00     0.047 C 
ENDROOT
BRANCH   1  16
HETATM   16  O2  UNL     1      11.984  -2.185  24.127  1.00  0.00    -0.316 OA
BRANCH  16  17
HETATM   17  C2  UNL     1      13.222  -1.617  24.214  1.00  0.00     0.255 C 
HETATM   18  C1  UNL     1      13.924  -1.635  25.523  1.00  0.00     0.126 C 
HETATM   19  O1  UNL     1      13.713  -1.102  23.180  1.00  0.00    -0.266 OA
ENDBRANCH  16  17
ENDBRANCH   1  16
BRANCH   3  20
HETATM   20  O3  UNL     1       8.481  -0.527  26.856  1.00  0.00    -0.315 OA
BRANCH  20  21
HETATM   21  C6  UNL     1       9.300   0.067  27.835  1.00  0.00     0.255 C 
HETATM   22  C7  UNL     1       9.767   1.458  27.812  1.00  0.00     0.126 C 
HETATM   23  O4  UNL     1       9.591  -0.732  28.743  1.00  0.00    -0.266 OA
ENDBRANCH  20  21
ENDBRANCH   3  20
BRANCH   6  24
HETATM   24  O5  UNL     1       6.646  -2.279  27.179  1.00  0.00    -0.315 OA
BRANCH  24  25
HETATM   25  C11 UNL     1       6.341  -2.862  28.400  1.00  0.00     0.255 C 
HETATM   26  C12 UNL     1       5.010  -3.323  28.834  1.00  0.00     0.126 C 
HETATM   27  O6  UNL     1       7.285  -3.022  29.233  1.00  0.00    -0.266 OA
ENDBRANCH  24  25
ENDBRANCH   6  24
BRANCH  11  28
HETATM   28  O7  UNL     1       9.441  -6.649  22.256  1.00  0.00    -0.395 OA
ATOM     29  H7  UNL     1       9.505  -6.700  21.310  1.00  0.00     0.210 HD
ENDBRANCH  11  28
TORSDOF 7
ENDMDL
MODEL 4
REMARK VINA RESULT: -7.704297930      2.566      6.113
REMARK  7 active torsions:
REMARK  status: ('A' for Active; 'I' for Inactive)
REMARK    1  A    between atoms: C2_2  and  O2_4 
REMARK    2  A    between atoms: O2_4  and  C3_5 
REMARK    3  A    between atoms: C5_7  and  O3_8 
REMARK    4  A    between atoms: O3_8  and  C6_9 
REMARK    5  A    between atoms: C10_14  and  O5_15 
REMARK    6  A    between atoms: O5_15  and  C11_16 
REMARK    7  A    between atoms: C17_23  and  O7_24 
ROOT
HETATM    1  C3  UNL     1       4.251  -3.343  24.576  1.00  0.00     0.135 C 
HETATM    2  C4  UNL     1       4.662  -2.523  25.757  1.00  0.00     0.066 C 
HETATM    3  C5  UNL     1       6.008  -2.980  26.274  1.00  0.00     0.146 C 
HETATM    4  C8  UNL     1       7.096  -3.055  25.246  1.00  0.00     0.021 C 
HETATM    5  C9  UNL     1       7.706  -4.476  25.439  1.00  0.00     0.022 C 
HETATM    6  C10 UNL     1       8.238  -2.134  25.379  1.00  0.00     0.147 C 
HETATM    7  C13 UNL     1       9.425  -2.716  24.580  1.00  0.00     0.061 C 
HETATM    8  C14 UNL     1       8.954  -3.322  23.318  1.00  0.00    -0.021 C 
HETATM    9  C15 UNL     1       7.722  -3.511  22.984  1.00  0.00    -0.071 C 
HETATM   10  C16 UNL     1       7.324  -4.119  21.700  1.00  0.00     0.066 C 
HETATM   11  C17 UNL     1       6.414  -3.138  20.959  1.00  0.00     0.122 C 
HETATM   12  C18 UNL     1       6.015  -1.938  21.689  1.00  0.00     0.033 C 
HETATM   13  C19 UNL     1       6.254  -1.777  23.155  1.00  0.00     0.017 C 
HETATM   14  C20 UNL     1       6.602  -3.064  23.844  1.00  0.00    -0.003 C 
HETATM   15  C21 UNL     1       5.402  -3.976  23.838  1.00  0.00     0.047 C 
ENDROOT
BRANCH   1  16
HETATM   16  O2  UNL     1       3.406  -2.555  23.776  1.00  0.00    -0.316 OA
BRANCH  16  17
HETATM   17  C2  UNL     1       2.487  -3.013  22.877  1.00  0.00     0.255 C 
HETATM   18  C1  UNL     1       1.367  -3.855  23.369  1.00  0.00     0.126 C 
HETATM   19  O1  UNL     1       2.630  -2.701  21.670  1.00  0.00    -0.266 OA
ENDBRANCH  16  17
ENDBRANCH   1  16
BRANCH   3  20
HETATM   20  O3  UNL     1       6.411  -2.395  27.437  1.00  0.00    -0.315 OA
BRANCH  20  21
HETATM   21  C6  UNL     1       6.200  -2.909  28.731  1.00  0.00     0.255 C 
HETATM   22  C7  UNL     1       4.898  -3.310  29.275  1.00  0.00     0.126 C 
HETATM   23  O4  UNL     1       7.260  -2.991  29.376  1.00  0.00    -0.266 OA
ENDBRANCH  20  21
ENDBRANCH   3  20
BRANCH   6  24
HETATM   24  O5  UNL     1       8.806  -1.947  26.656  1.00  0.00    -0.315 OA
BRANCH  24  25
HETATM   25  C11 UNL     1       9.197  -0.688  27.087  1.00  0.00     0.255 C 
HETATM   26  C12 UNL     1       9.542   0.456  26.225  1.00  0.00     0.126 C 
HETATM   27  O6  UNL     1       9.268  -0.485  28.337  1.00  0.00    -0.266 OA
ENDBRANCH  24  25
ENDBRANCH   6  24
BRANCH  11  28
HETATM   28  O7  UNL     1       7.110  -2.824  19.764  1.00  0.00    -0.395 OA
ATOM     29  H7  UNL     1       7.611  -2.044  19.970  1.00  0.00     0.210 HD
ENDBRANCH  11  28
TORSDOF 7
ENDMDL
MODEL 5
REMARK VINA RESULT: -7.650860187      2.255      5.450
REMARK  7 active torsions:
REMARK  status: ('A' for Active; 'I' for Inactive)
REMARK    1  A    between atoms: C2_2  and  O2_4 
REMARK    2  A    between atoms: O2_4  and  C3_5 
REMARK    3  A    between atoms: C5_7  and  O3_8 
REMARK    4  A    between atoms: O3_8  and  C6_9 
REMARK    5  A    between atoms: C10_14  and  O5_15 
REMARK    6  A    between atoms: O5_15  and  C11_16 
REMARK    7  A    between atoms: C17_23  and  O7_24 
ROOT
HETATM    1  C3  UNL     1       5.786  -3.328  26.696  1.00  0.00     0.135 C 
HETATM    2  C4  UNL     1       6.825  -2.552  27.442  1.00  0.00     0.066 C 
HETATM    3  C5  UNL     1       8.207  -3.072  27.117  1.00  0.00     0.146 C 
HETATM    4  C8  UNL     1       8.528  -3.165  25.656  1.00  0.00     0.021 C 
HETATM    5  C9  UNL     1       9.078  -4.612  25.478  1.00  0.00     0.022 C 
HETATM    6  C10 UNL     1       9.589  -2.291  25.124  1.00  0.00     0.147 C 
HETATM    7  C13 UNL     1      10.098  -2.901  23.798  1.00  0.00     0.061 C 
HETATM    8  C14 UNL     1       8.974  -3.459  23.018  1.00  0.00    -0.021 C 
HETATM    9  C15 UNL     1       7.759  -3.592  23.433  1.00  0.00    -0.071 C 
HETATM   10  C16 UNL     1       6.684  -4.155  22.594  1.00  0.00     0.066 C 
HETATM   11  C17 UNL     1       5.560  -3.124  22.488  1.00  0.00     0.122 C 
HETATM   12  C18 UNL     1       5.692  -1.926  23.314  1.00  0.00     0.033 C 
HETATM   13  C19 UNL     1       6.718  -1.808  24.393  1.00  0.00     0.017 C 
HETATM   14  C20 UNL     1       7.334  -3.122  24.772  1.00  0.00    -0.003 C 
HETATM   15  C21 UNL     1       6.298  -3.987  25.442  1.00  0.00     0.047 C 
ENDROOT
BRANCH   1  16
HETATM   16  O2  UNL     1       4.675  -2.490  26.505  1.00  0.00    -0.316 OA
BRANCH  16  17
HETATM   17  C2  UNL     1       3.373  -2.886  26.400  1.00  0.00     0.255 C 
HETATM   18  C1  UNL     1       2.654  -2.638  25.124  1.00  0.00     0.126 C 
HETATM   19  O1  UNL     1       2.840  -3.444  27.389  1.00  0.00    -0.266 OA
ENDBRANCH  16  17
ENDBRANCH   1  16
BRANCH   3  20
HETATM   20  O3  UNL     1       9.219  -2.530  27.853  1.00  0.00    -0.315 OA
BRANCH  20  21
HETATM   21  C6  UNL     1       9.894  -3.165  28.912  1.00  0.00     0.255 C 
HETATM   22  C7  UNL     1      10.104  -4.613  29.029  1.00  0.00     0.126 C 
HETATM   23  O4  UNL     1      10.305  -2.348  29.756  1.00  0.00    -0.266 OA
ENDBRANCH  20  21
ENDBRANCH   3  20
BRANCH   6  24
HETATM   24  O5  UNL     1      10.782  -2.156  25.863  1.00  0.00    -0.315 OA
BRANCH  24  25
HETATM   25  C11 UNL     1      11.505  -0.973  25.842  1.00  0.00     0.255 C 
HETATM   26  C12 UNL     1      12.951  -0.844  25.583  1.00  0.00     0.126 C 
HETATM   27  O6  UNL     1      10.880   0.108  26.061  1.00  0.00    -0.266 OA
ENDBRANCH  24  25
ENDBRANCH   6  24
BRANCH  11  28
HETATM   28  O7  UNL     1       5.481  -2.809  21.107  1.00  0.00    -0.395 OA
ATOM     29  H7  UNL     1       4.593  -2.496  20.978  1.00  0.00     0.210 HD
ENDBRANCH  11  28
TORSDOF 7
ENDMDL
