MODEL 1
REMARK VINA RESULT: -8.250252830      0.000      0.000
REMARK  22 active torsions:
REMARK  status: ('A' for Active; 'I' for Inactive)
REMARK    1  A    between atoms: C1_4  and  O1_5 
REMARK    2  A    between atoms: O1_5  and  C2_6 
REMARK    3  A    between atoms: C2_6  and  N2_8 
REMARK    4  A    between atoms: N2_8  and  C3_10 
REMARK    5  A    between atoms: C3_10  and  C4_11 
REMARK    6  A    between atoms: C5_13  and  C6_14 
REMARK    7  A    between atoms: C6_14  and  N3_15 
REMARK    8  A    between atoms: C7_19  and  O3_20 
REMARK    9  A    between atoms: C8_22  and  O4_23 
REMARK   10  A    between atoms: O4_23  and  C9_24 
REMARK   11  A    between atoms: C10_25  and  N4_26 
REMARK   12  A    between atoms: C12_31  and  N5_32 
REMARK   13  A    between atoms: C13_36  and  O5_37 
REMARK   14  A    between atoms: O5_37  and  C14_38 
REMARK   15  A    between atoms: C15_40  and  C16_41 
REMARK   16  A    between atoms: C16_41  and  N6_42 
REMARK   17  A    between atoms: C17_46  and  O7_47 
REMARK   18  A    between atoms: C18_49  and  O8_50 
REMARK   19  A    between atoms: C19_52  and  N7_53 
REMARK   20  A    between atoms: C20_57  and  O9_58 
REMARK   21  A    between atoms: O9_58  and  C21_59 
REMARK   22  A    between atoms: C21_59  and  C22_61 
ROOT
HETATM    1  C9  UNL     1      11.186   1.528  -0.813  1.00  0.00     0.187 C 
HETATM    2  C10 UNL     1      11.864   2.292  -1.930  1.00  0.00     0.217 C 
HETATM    3  C11 UNL     1      10.913   2.324  -3.085  1.00  0.00     0.071 C 
HETATM    4  C12 UNL     1       9.474   2.238  -2.732  1.00  0.00     0.217 C 
HETATM    5  C13 UNL     1       9.061   2.708  -1.394  1.00  0.00     0.187 C 
HETATM    6  C20 UNL     1      10.093   2.472  -0.307  1.00  0.00     0.194 C 
ENDROOT
BRANCH   1   7
HETATM    7  O4  UNL     1      12.062   1.266   0.232  1.00  0.00    -0.348 OA
BRANCH   7   8
HETATM    8  C8  UNL     1      11.613   0.330   1.125  1.00  0.00     0.294 C 
HETATM    9  C7  UNL     1      11.318   0.884   2.497  1.00  0.00     0.204 C 
HETATM   10  C5  UNL     1      10.783  -0.264   3.335  1.00  0.00     0.183 C 
HETATM   11  O2  UNL     1      11.741  -1.252   3.357  1.00  0.00    -0.350 OA
HETATM   12  C4  UNL     1      12.145  -1.678   2.111  1.00  0.00     0.281 C 
HETATM   13  O11 UNL     1      12.571  -0.667   1.284  1.00  0.00    -0.327 OA
BRANCH   9  14
HETATM   14  O3  UNL     1      12.516   1.305   3.096  1.00  0.00    -0.388 OA
ATOM     15  H3  UNL     1      12.368   2.183   3.427  1.00  0.00     0.210 HD
ENDBRANCH   9  14
BRANCH  10  16
HETATM   16  C6  UNL     1      10.506   0.172   4.757  1.00  0.00     0.264 C 
BRANCH  16  17
HETATM   17  N3  UNL     1      10.356   1.606   4.858  1.00  0.00    -0.077 N 
ATOM     18  H33 UNL     1       9.715   1.860   5.611  1.00  0.00     0.274 HD
ATOM     19  H32 UNL     1      11.204   2.044   5.217  1.00  0.00     0.274 HD
ATOM     20  H31 UNL     1      10.070   2.019   3.971  1.00  0.00     0.274 HD
ENDBRANCH  16  17
ENDBRANCH  10  16
BRANCH  12  21
HETATM   21  C3  UNL     1      11.094  -2.568   1.483  1.00  0.00     0.183 C 
BRANCH  21  22
HETATM   22  N2  UNL     1      11.706  -3.195   0.308  1.00  0.00    -0.356 N 
ATOM     23  H2  UNL     1      12.232  -2.637  -0.363  1.00  0.00     0.162 HD
BRANCH  22  24
HETATM   24  C2  UNL     1      11.552  -4.587   0.123  1.00  0.00     0.216 C 
HETATM   25  S1  UNL     1      12.153  -5.653   1.192  1.00  0.00    -0.033 SA
BRANCH  24  26
HETATM   26  O1  UNL     1      10.875  -5.041  -0.997  1.00  0.00    -0.280 OA
BRANCH  26  27
HETATM   27  C1  UNL     1      11.091  -6.355  -1.453  1.00  0.00     0.229 C 
HETATM   28  N1  UNL     1      11.075  -6.542  -2.724  1.00  0.00    -0.390 N 
ATOM     29  H12 UNL     1      10.913  -5.762  -3.361  1.00  0.00     0.157 HD
ATOM     30  H11 UNL     1      11.232  -7.494  -3.053  1.00  0.00     0.157 HD
ENDBRANCH  26  27
ENDBRANCH  24  26
ENDBRANCH  22  24
ENDBRANCH  21  22
ENDBRANCH  12  21
ENDBRANCH   7   8
ENDBRANCH   1   7
BRANCH   2  31
HETATM   31  N4  UNL     1      13.129   1.701  -2.302  1.00  0.00    -0.072 N 
ATOM     32  H43 UNL     1      13.215   0.752  -1.938  1.00  0.00     0.274 HD
ATOM     33  H42 UNL     1      13.161   1.495  -3.300  1.00  0.00     0.274 HD
ATOM     34  H41 UNL     1      13.920   2.280  -2.019  1.00  0.00     0.274 HD
ENDBRANCH   2  31
BRANCH   6  35
HETATM   35  O9  UNL     1      10.741   3.727  -0.097  1.00  0.00    -0.310 OA
BRANCH  35  36
HETATM   36  C21 UNL     1      10.966   4.272   1.127  1.00  0.00     0.273 C 
HETATM   37  O10 UNL     1      12.097   4.195   1.655  1.00  0.00    -0.264 OA
BRANCH  36  38
HETATM   38  C22 UNL     1       9.868   4.959   1.841  1.00  0.00     0.225 C 
HETATM   39 CL1  UNL     1       8.766   3.772   2.618  1.00  0.00    -0.120 Cl
ENDBRANCH  36  38
ENDBRANCH  35  36
ENDBRANCH   6  35
BRANCH   5  40
HETATM   40  O5  UNL     1       8.587   4.021  -1.362  1.00  0.00    -0.349 OA
BRANCH  40  41
HETATM   41  C14 UNL     1       8.498   4.610  -2.598  1.00  0.00     0.294 C 
HETATM   42  O6  UNL     1       7.148   4.925  -2.917  1.00  0.00    -0.349 OA
HETATM   43  C15 UNL     1       7.086   4.975  -4.302  1.00  0.00     0.181 C 
HETATM   44  C17 UNL     1       7.953   6.004  -4.937  1.00  0.00     0.179 C 
HETATM   45  C18 UNL     1       9.310   6.146  -4.282  1.00  0.00     0.184 C 
HETATM   46  C19 UNL     1       9.250   5.878  -2.788  1.00  0.00     0.269 C 
BRANCH  43  47
HETATM   47  C16 UNL     1       5.643   5.234  -4.674  1.00  0.00     0.264 C 
BRANCH  47  48
HETATM   48  N6  UNL     1       5.424   5.249  -6.086  1.00  0.00    -0.077 N 
ATOM     49  H63 UNL     1       5.895   6.044  -6.518  1.00  0.00     0.274 HD
ATOM     50  H62 UNL     1       5.929   4.487  -6.541  1.00  0.00     0.274 HD
ATOM     51  H61 UNL     1       4.436   5.231  -6.337  1.00  0.00     0.274 HD
ENDBRANCH  47  48
ENDBRANCH  43  47
BRANCH  44  52
HETATM   52  O7  UNL     1       7.364   7.250  -5.097  1.00  0.00    -0.390 OA
ATOM     53  H7  UNL     1       7.614   7.899  -4.450  1.00  0.00     0.210 HD
ENDBRANCH  44  52
BRANCH  45  54
HETATM   54  O8  UNL     1      10.246   5.325  -4.901  1.00  0.00    -0.391 OA
ATOM     55  H8  UNL     1      10.840   5.835  -5.439  1.00  0.00     0.210 HD
ENDBRANCH  45  54
BRANCH  46  56
HETATM   56  N7  UNL     1      10.568   5.925  -2.253  1.00  0.00    -0.068 N 
ATOM     57  H73 UNL     1      10.539   5.719  -1.254  1.00  0.00     0.275 HD
ATOM     58  H72 UNL     1      11.104   5.127  -2.593  1.00  0.00     0.275 HD
ATOM     59  H71 UNL     1      11.096   6.784  -2.410  1.00  0.00     0.275 HD
ENDBRANCH  46  56
ENDBRANCH  40  41
ENDBRANCH   5  40
BRANCH   4  60
HETATM   60  N5  UNL     1       8.923   0.897  -2.983  1.00  0.00    -0.072 N 
ATOM     61  H53 UNL     1       8.812   0.723  -3.982  1.00  0.00     0.274 HD
ATOM     62  H52 UNL     1       9.605   0.169  -2.767  1.00  0.00     0.274 HD
ATOM     63  H51 UNL     1       8.048   0.743  -2.482  1.00  0.00     0.274 HD
ENDBRANCH   4  60
TORSDOF 22
ENDMDL
MODEL 2
REMARK VINA RESULT: -8.133358331      0.988      1.284
REMARK  22 active torsions:
REMARK  status: ('A' for Active; 'I' for Inactive)
REMARK    1  A    between atoms: C1_4  and  O1_5 
REMARK    2  A    between atoms: O1_5  and  C2_6 
REMARK    3  A    between atoms: C2_6  and  N2_8 
REMARK    4  A    between atoms: N2_8  and  C3_10 
REMARK    5  A    between atoms: C3_10  and  C4_11 
REMARK    6  A    between atoms: C5_13  and  C6_14 
REMARK    7  A    between atoms: C6_14  and  N3_15 
REMARK    8  A    between atoms: C7_19  and  O3_20 
REMARK    9  A    between atoms: C8_22  and  O4_23 
REMARK   10  A    between atoms: O4_23  and  C9_24 
REMARK   11  A    between atoms: C10_25  and  N4_26 
REMARK   12  A    between atoms: C12_31  and  N5_32 
REMARK   13  A    between atoms: C13_36  and  O5_37 
REMARK   14  A    between atoms: O5_37  and  C14_38 
REMARK   15  A    between atoms: C15_40  and  C16_41 
REMARK   16  A    between atoms: C16_41  and  N6_42 
REMARK   17  A    between atoms: C17_46  and  O7_47 
REMARK   18  A    between atoms: C18_49  and  O8_50 
REMARK   19  A    between atoms: C19_52  and  N7_53 
REMARK   20  A    between atoms: C20_57  and  O9_58 
REMARK   21  A    between atoms: O9_58  and  C21_59 
REMARK   22  A    between atoms: C21_59  and  C22_61 
ROOT
HETATM    1  C9  UNL     1      11.188   1.543  -0.798  1.00  0.00     0.187 C 
HETATM    2  C10 UNL     1      11.865   2.298  -1.921  1.00  0.00     0.217 C 
HETATM    3  C11 UNL     1      10.912   2.324  -3.076  1.00  0.00     0.071 C 
HETATM    4  C12 UNL     1       9.474   2.241  -2.720  1.00  0.00     0.217 C 
HETATM    5  C13 UNL     1       9.063   2.720  -1.385  1.00  0.00     0.187 C 
HETATM    6  C20 UNL     1      10.095   2.490  -0.297  1.00  0.00     0.194 C 
ENDROOT
BRANCH   1   7
HETATM    7  O4  UNL     1      12.064   1.286   0.247  1.00  0.00    -0.348 OA
BRANCH   7   8
HETATM    8  C8  UNL     1      11.618   0.351   1.143  1.00  0.00     0.294 C 
HETATM    9  C7  UNL     1      11.312   0.910   2.511  1.00  0.00     0.204 C 
HETATM   10  C5  UNL     1      10.782  -0.239   3.352  1.00  0.00     0.183 C 
HETATM   11  O2  UNL     1      11.748  -1.219   3.383  1.00  0.00    -0.350 OA
HETATM   12  C4  UNL     1      12.162  -1.647   2.141  1.00  0.00     0.281 C 
HETATM   13  O11 UNL     1      12.584  -0.637   1.311  1.00  0.00    -0.327 OA
BRANCH   9  14
HETATM   14  O3  UNL     1      12.503   1.344   3.113  1.00  0.00    -0.388 OA
ATOM     15  H3  UNL     1      12.996   1.812   2.450  1.00  0.00     0.210 HD
ENDBRANCH   9  14
BRANCH  10  16
HETATM   16  C6  UNL     1      10.494   0.201   4.770  1.00  0.00     0.264 C 
BRANCH  16  17
HETATM   17  N3  UNL     1      10.331   1.635   4.863  1.00  0.00    -0.077 N 
ATOM     18  H33 UNL     1       9.621   1.971   4.213  1.00  0.00     0.274 HD
ATOM     19  H32 UNL     1       9.882   1.902   5.740  1.00  0.00     0.274 HD
ATOM     20  H31 UNL     1      11.215   2.125   4.734  1.00  0.00     0.274 HD
ENDBRANCH  16  17
ENDBRANCH  10  16
BRANCH  12  21
HETATM   21  C3  UNL     1      11.122  -2.549   1.513  1.00  0.00     0.183 C 
BRANCH  21  22
HETATM   22  N2  UNL     1      11.754  -3.200   0.362  1.00  0.00    -0.356 N 
ATOM     23  H2  UNL     1      12.224  -2.647  -0.354  1.00  0.00     0.162 HD
BRANCH  22  24
HETATM   24  C2  UNL     1      11.701  -4.609   0.263  1.00  0.00     0.216 C 
HETATM   25  S1  UNL     1      11.138  -5.341  -1.073  1.00  0.00    -0.033 SA
BRANCH  24  26
HETATM   26  O1  UNL     1      12.141  -5.369   1.334  1.00  0.00    -0.280 OA
BRANCH  26  27
HETATM   27  C1  UNL     1      13.523  -5.499   1.570  1.00  0.00     0.229 C 
HETATM   28  N1  UNL     1      13.953  -5.138   2.726  1.00  0.00    -0.390 N 
ATOM     29  H12 UNL     1      13.309  -4.777   3.430  1.00  0.00     0.157 HD
ATOM     30  H11 UNL     1      14.954  -5.232   2.897  1.00  0.00     0.157 HD
ENDBRANCH  26  27
ENDBRANCH  24  26
ENDBRANCH  22  24
ENDBRANCH  21  22
ENDBRANCH  12  21
ENDBRANCH   7   8
ENDBRANCH   1   7
BRANCH   2  31
HETATM   31  N4  UNL     1      13.128   1.704  -2.290  1.00  0.00    -0.072 N 
ATOM     32  H43 UNL     1      13.684   1.474  -1.466  1.00  0.00     0.274 HD
ATOM     33  H42 UNL     1      13.000   0.764  -2.666  1.00  0.00     0.274 HD
ATOM     34  H41 UNL     1      13.654   2.292  -2.938  1.00  0.00     0.274 HD
ENDBRANCH   2  31
BRANCH   6  35
HETATM   35  O9  UNL     1      10.745   3.746  -0.097  1.00  0.00    -0.310 OA
BRANCH  35  36
HETATM   36  C21 UNL     1      10.973   4.298   1.124  1.00  0.00     0.273 C 
HETATM   37  O10 UNL     1      12.102   4.216   1.655  1.00  0.00    -0.264 OA
BRANCH  36  38
HETATM   38  C22 UNL     1       9.879   5.001   1.831  1.00  0.00     0.225 C 
HETATM   39 CL1  UNL     1       8.798   3.832   2.661  1.00  0.00    -0.120 Cl
ENDBRANCH  36  38
ENDBRANCH  35  36
ENDBRANCH   6  35
BRANCH   5  40
HETATM   40  O5  UNL     1       8.590   4.034  -1.361  1.00  0.00    -0.349 OA
BRANCH  40  41
HETATM   41  C14 UNL     1       8.500   4.615  -2.601  1.00  0.00     0.294 C 
HETATM   42  O6  UNL     1       7.150   4.926  -2.922  1.00  0.00    -0.349 OA
HETATM   43  C15 UNL     1       7.088   4.968  -4.307  1.00  0.00     0.181 C 
HETATM   44  C17 UNL     1       7.954   5.993  -4.949  1.00  0.00     0.179 C 
HETATM   45  C18 UNL     1       9.311   6.141  -4.295  1.00  0.00     0.184 C 
HETATM   46  C19 UNL     1       9.251   5.882  -2.799  1.00  0.00     0.269 C 
BRANCH  43  47
HETATM   47  C16 UNL     1       5.644   5.222  -4.682  1.00  0.00     0.264 C 
BRANCH  47  48
HETATM   48  N6  UNL     1       5.426   5.229  -6.093  1.00  0.00    -0.077 N 
ATOM     49  H63 UNL     1       5.386   6.183  -6.451  1.00  0.00     0.274 HD
ATOM     50  H62 UNL     1       6.253   4.898  -6.591  1.00  0.00     0.274 HD
ATOM     51  H61 UNL     1       4.598   4.702  -6.371  1.00  0.00     0.274 HD
ENDBRANCH  47  48
ENDBRANCH  43  47
BRANCH  44  52
HETATM   52  O7  UNL     1       7.364   7.238  -5.117  1.00  0.00    -0.390 OA
ATOM     53  H7  UNL     1       7.570   7.874  -4.443  1.00  0.00     0.210 HD
ENDBRANCH  44  52
BRANCH  45  54
HETATM   54  O8  UNL     1      10.248   5.316  -4.908  1.00  0.00    -0.391 OA
ATOM     55  H8  UNL     1       9.859   4.484  -5.150  1.00  0.00     0.210 HD
ENDBRANCH  45  54
BRANCH  46  56
HETATM   56  N7  UNL     1      10.569   5.935  -2.264  1.00  0.00    -0.068 N 
ATOM     57  H73 UNL     1      10.563   6.462  -1.391  1.00  0.00     0.275 HD
ATOM     58  H72 UNL     1      10.836   5.011  -1.923  1.00  0.00     0.275 HD
ATOM     59  H71 UNL     1      11.299   6.297  -2.878  1.00  0.00     0.275 HD
ENDBRANCH  46  56
ENDBRANCH  40  41
ENDBRANCH   5  40
BRANCH   4  60
HETATM   60  N5  UNL     1       8.921   0.899  -2.962  1.00  0.00    -0.072 N 
ATOM     61  H53 UNL     1       9.560   0.172  -2.640  1.00  0.00     0.274 HD
ATOM     62  H52 UNL     1       8.133   0.706  -2.343  1.00  0.00     0.274 HD
ATOM     63  H51 UNL     1       8.666   0.760  -3.939  1.00  0.00     0.274 HD
ENDBRANCH   4  60
TORSDOF 22
ENDMDL
MODEL 3
REMARK VINA RESULT: -7.942756462      1.178      1.186
REMARK  22 active torsions:
REMARK  status: ('A' for Active; 'I' for Inactive)
REMARK    1  A    between atoms: C1_4  and  O1_5 
REMARK    2  A    between atoms: O1_5  and  C2_6 
REMARK    3  A    between atoms: C2_6  and  N2_8 
REMARK    4  A    between atoms: N2_8  and  C3_10 
REMARK    5  A    between atoms: C3_10  and  C4_11 
REMARK    6  A    between atoms: C5_13  and  C6_14 
REMARK    7  A    between atoms: C6_14  and  N3_15 
REMARK    8  A    between atoms: C7_19  and  O3_20 
REMARK    9  A    between atoms: C8_22  and  O4_23 
REMARK   10  A    between atoms: O4_23  and  C9_24 
REMARK   11  A    between atoms: C10_25  and  N4_26 
REMARK   12  A    between atoms: C12_31  and  N5_32 
REMARK   13  A    between atoms: C13_36  and  O5_37 
REMARK   14  A    between atoms: O5_37  and  C14_38 
REMARK   15  A    between atoms: C15_40  and  C16_41 
REMARK   16  A    between atoms: C16_41  and  N6_42 
REMARK   17  A    between atoms: C17_46  and  O7_47 
REMARK   18  A    between atoms: C18_49  and  O8_50 
REMARK   19  A    between atoms: C19_52  and  N7_53 
REMARK   20  A    between atoms: C20_57  and  O9_58 
REMARK   21  A    between atoms: O9_58  and  C21_59 
REMARK   22  A    between atoms: C21_59  and  C22_61 
ROOT
HETATM    1  C9  UNL     1      10.884   1.990  -1.135  1.00  0.00     0.187 C 
HETATM    2  C10 UNL     1      11.535   2.452  -2.421  1.00  0.00     0.217 C 
HETATM    3  C11 UNL     1      10.484   2.421  -3.486  1.00  0.00     0.071 C 
HETATM    4  C12 UNL     1       9.089   2.596  -3.014  1.00  0.00     0.217 C 
HETATM    5  C13 UNL     1       8.872   3.338  -1.755  1.00  0.00     0.187 C 
HETATM    6  C20 UNL     1       9.971   3.148  -0.725  1.00  0.00     0.194 C 
ENDROOT
BRANCH   1   7
HETATM    7  O4  UNL     1      11.821   1.790  -0.130  1.00  0.00    -0.348 OA
BRANCH   7   8
HETATM    8  C8  UNL     1      11.496   0.796   0.755  1.00  0.00     0.294 C 
HETATM    9  C7  UNL     1      11.235   1.288   2.158  1.00  0.00     0.204 C 
HETATM   10  C5  UNL     1      10.838   0.077   2.986  1.00  0.00     0.183 C 
HETATM   11  O2  UNL     1      11.871  -0.831   2.926  1.00  0.00    -0.350 OA
HETATM   12  C4  UNL     1      12.239  -1.188   1.647  1.00  0.00     0.281 C 
HETATM   13  O11 UNL     1      12.538  -0.124   0.832  1.00  0.00    -0.327 OA
BRANCH   9  14
HETATM   14  O3  UNL     1      12.426   1.787   2.705  1.00  0.00    -0.388 OA
ATOM     15  H3  UNL     1      12.454   2.716   2.510  1.00  0.00     0.210 HD
ENDBRANCH   9  14
BRANCH  10  16
HETATM   16  C6  UNL     1      10.606   0.450   4.433  1.00  0.00     0.264 C 
BRANCH  16  17
HETATM   17  N3  UNL     1      10.293   1.854   4.581  1.00  0.00    -0.077 N 
ATOM     18  H33 UNL     1       9.853   2.227   3.741  1.00  0.00     0.274 HD
ATOM     19  H32 UNL     1       9.527   1.997   5.239  1.00  0.00     0.274 HD
ATOM     20  H31 UNL     1      11.115   2.398   4.844  1.00  0.00     0.274 HD
ENDBRANCH  16  17
ENDBRANCH  10  16
BRANCH  12  21
HETATM   21  C3  UNL     1      11.228  -2.142   1.049  1.00  0.00     0.183 C 
BRANCH  21  22
HETATM   22  N2  UNL     1      11.968  -3.068   0.186  1.00  0.00    -0.356 N 
ATOM     23  H2  UNL     1      12.756  -2.740  -0.372  1.00  0.00     0.162 HD
BRANCH  22  24
HETATM   24  C2  UNL     1      11.569  -4.423   0.141  1.00  0.00     0.216 C 
HETATM   25  S1  UNL     1      11.770  -5.406   1.419  1.00  0.00    -0.033 SA
BRANCH  24  26
HETATM   26  O1  UNL     1      10.997  -4.912  -1.022  1.00  0.00    -0.280 OA
BRANCH  26  27
HETATM   27  C1  UNL     1      11.041  -6.294  -1.288  1.00  0.00     0.229 C 
HETATM   28  N1  UNL     1      10.889  -6.657  -2.511  1.00  0.00    -0.390 N 
ATOM     29  H12 UNL     1      10.745  -5.963  -3.244  1.00  0.00     0.157 HD
ATOM     30  H11 UNL     1      10.921  -7.658  -2.703  1.00  0.00     0.157 HD
ENDBRANCH  26  27
ENDBRANCH  24  26
ENDBRANCH  22  24
ENDBRANCH  21  22
ENDBRANCH  12  21
ENDBRANCH   7   8
ENDBRANCH   1   7
BRANCH   2  31
HETATM   31  N4  UNL     1      12.674   1.638  -2.776  1.00  0.00    -0.072 N 
ATOM     32  H43 UNL     1      13.377   2.183  -3.275  1.00  0.00     0.274 HD
ATOM     33  H42 UNL     1      13.220   1.387  -1.951  1.00  0.00     0.274 HD
ATOM     34  H41 UNL     1      12.403   0.810  -3.306  1.00  0.00     0.274 HD
ENDBRANCH   2  31
BRANCH   6  35
HETATM   35  O9  UNL     1      10.786   4.318  -0.797  1.00  0.00    -0.310 OA
BRANCH  35  36
HETATM   36  C21 UNL     1      11.100   5.093   0.275  1.00  0.00     0.273 C 
HETATM   37  O10 UNL     1      11.767   4.622   1.222  1.00  0.00    -0.264 OA
BRANCH  36  38
HETATM   38  C22 UNL     1      10.651   6.502   0.323  1.00  0.00     0.225 C 
HETATM   39 CL1  UNL     1      11.856   7.586  -0.450  1.00  0.00    -0.120 Cl
ENDBRANCH  36  38
ENDBRANCH  35  36
ENDBRANCH   6  35
BRANCH   5  40
HETATM   40  O5  UNL     1       8.569   4.690  -1.924  1.00  0.00    -0.349 OA
BRANCH  40  41
HETATM   41  C14 UNL     1       8.385   5.059  -3.233  1.00  0.00     0.294 C 
HETATM   42  O6  UNL     1       7.059   5.528  -3.450  1.00  0.00    -0.349 OA
HETATM   43  C15 UNL     1       6.807   5.343  -4.801  1.00  0.00     0.181 C 
HETATM   44  C17 UNL     1       7.706   6.089  -5.721  1.00  0.00     0.179 C 
HETATM   45  C18 UNL     1       9.150   6.121  -5.268  1.00  0.00     0.184 C 
HETATM   46  C19 UNL     1       9.269   6.134  -3.753  1.00  0.00     0.269 C 
BRANCH  43  47
HETATM   47  C16 UNL     1       5.374   5.762  -5.048  1.00  0.00     0.264 C 
BRANCH  47  48
HETATM   48  N6  UNL     1       5.000   5.690  -6.425  1.00  0.00    -0.077 N 
ATOM     49  H63 UNL     1       5.504   6.385  -6.976  1.00  0.00     0.274 HD
ATOM     50  H62 UNL     1       5.362   4.839  -6.856  1.00  0.00     0.274 HD
ATOM     51  H61 UNL     1       3.994   5.771  -6.570  1.00  0.00     0.274 HD
ENDBRANCH  47  48
ENDBRANCH  43  47
BRANCH  44  52
HETATM   52  O7  UNL     1       7.278   7.366  -6.053  1.00  0.00    -0.390 OA
ATOM     53  H7  UNL     1       7.398   8.019  -5.374  1.00  0.00     0.210 HD
ENDBRANCH  44  52
BRANCH  45  54
HETATM   54  O8  UNL     1       9.865   5.063  -5.817  1.00  0.00    -0.391 OA
ATOM     55  H8  UNL     1      10.776   5.300  -5.944  1.00  0.00     0.210 HD
ENDBRANCH  45  54
BRANCH  46  56
HETATM   56  N7  UNL     1      10.644   6.061  -3.393  1.00  0.00    -0.068 N 
ATOM     57  H73 UNL     1      10.904   6.892  -2.864  1.00  0.00     0.275 HD
ATOM     58  H72 UNL     1      10.774   5.340  -2.683  1.00  0.00     0.275 HD
ATOM     59  H71 UNL     1      11.310   5.917  -4.153  1.00  0.00     0.275 HD
ENDBRANCH  46  56
ENDBRANCH  40  41
ENDBRANCH   5  40
BRANCH   4  60
HETATM   60  N5  UNL     1       8.354   1.321  -2.975  1.00  0.00    -0.072 N 
ATOM     61  H53 UNL     1       8.576   0.741  -3.784  1.00  0.00     0.274 HD
ATOM     62  H52 UNL     1       8.708   0.712  -2.237  1.00  0.00     0.274 HD
ATOM     63  H51 UNL     1       7.348   1.462  -2.887  1.00  0.00     0.274 HD
ENDBRANCH   4  60
TORSDOF 22
ENDMDL
MODEL 4
REMARK VINA RESULT: -7.801526929      1.871      2.189
REMARK  22 active torsions:
REMARK  status: ('A' for Active; 'I' for Inactive)
REMARK    1  A    between atoms: C1_4  and  O1_5 
REMARK    2  A    between atoms: O1_5  and  C2_6 
REMARK    3  A    between atoms: C2_6  and  N2_8 
REMARK    4  A    between atoms: N2_8  and  C3_10 
REMARK    5  A    between atoms: C3_10  and  C4_11 
REMARK    6  A    between atoms: C5_13  and  C6_14 
REMARK    7  A    between atoms: C6_14  and  N3_15 
REMARK    8  A    between atoms: C7_19  and  O3_20 
REMARK    9  A    between atoms: C8_22  and  O4_23 
REMARK   10  A    between atoms: O4_23  and  C9_24 
REMARK   11  A    between atoms: C10_25  and  N4_26 
REMARK   12  A    between atoms: C12_31  and  N5_32 
REMARK   13  A    between atoms: C13_36  and  O5_37 
REMARK   14  A    between atoms: O5_37  and  C14_38 
REMARK   15  A    between atoms: C15_40  and  C16_41 
REMARK   16  A    between atoms: C16_41  and  N6_42 
REMARK   17  A    between atoms: C17_46  and  O7_47 
REMARK   18  A    between atoms: C18_49  and  O8_50 
REMARK   19  A    between atoms: C19_52  and  N7_53 
REMARK   20  A    between atoms: C20_57  and  O9_58 
REMARK   21  A    between atoms: O9_58  and  C21_59 
REMARK   22  A    between atoms: C21_59  and  C22_61 
ROOT
HETATM    1  C9  UNL     1      10.904   2.242  -1.190  1.00  0.00     0.187 C 
HETATM    2  C10 UNL     1      11.629   2.575  -2.476  1.00  0.00     0.217 C 
HETATM    3  C11 UNL     1      10.619   2.524  -3.580  1.00  0.00     0.071 C 
HETATM    4  C12 UNL     1       9.219   2.807  -3.180  1.00  0.00     0.217 C 
HETATM    5  C13 UNL     1       8.997   3.647  -1.985  1.00  0.00     0.187 C 
HETATM    6  C20 UNL     1      10.043   3.473  -0.900  1.00  0.00     0.194 C 
ENDROOT
BRANCH   1   7
HETATM    7  O4  UNL     1      11.790   2.063  -0.136  1.00  0.00    -0.348 OA
BRANCH   7   8
HETATM    8  C8  UNL     1      11.364   1.175   0.816  1.00  0.00     0.294 C 
HETATM    9  C7  UNL     1      10.957   1.822   2.118  1.00  0.00     0.204 C 
HETATM   10  C5  UNL     1      10.464   0.712   3.030  1.00  0.00     0.183 C 
HETATM   11  O2  UNL     1      11.489  -0.194   3.185  1.00  0.00    -0.350 OA
HETATM   12  C4  UNL     1      11.989  -0.693   2.002  1.00  0.00     0.281 C 
HETATM   13  O11 UNL     1      12.383   0.274   1.108  1.00  0.00    -0.327 OA
BRANCH   9  14
HETATM   14  O3  UNL     1      12.087   2.384   2.730  1.00  0.00    -0.388 OA
ATOM     15  H3  UNL     1      11.786   2.834   3.511  1.00  0.00     0.210 HD
ENDBRANCH   9  14
BRANCH  10  16
HETATM   16  C6  UNL     1      10.081   1.245   4.392  1.00  0.00     0.264 C 
BRANCH  16  17
HETATM   17  N3  UNL     1       9.355   2.492   4.295  1.00  0.00    -0.077 N 
ATOM     18  H33 UNL     1       9.823   3.235   4.813  1.00  0.00     0.274 HD
ATOM     19  H32 UNL     1       9.419   2.887   3.357  1.00  0.00     0.274 HD
ATOM     20  H31 UNL     1       8.384   2.387   4.589  1.00  0.00     0.274 HD
ENDBRANCH  16  17
ENDBRANCH  10  16
BRANCH  12  21
HETATM   21  C3  UNL     1      11.041  -1.712   1.409  1.00  0.00     0.183 C 
BRANCH  21  22
HETATM   22  N2  UNL     1      11.790  -2.457   0.393  1.00  0.00    -0.356 N 
ATOM     23  H2  UNL     1      11.818  -2.133  -0.573  1.00  0.00     0.162 HD
BRANCH  22  24
HETATM   24  C2  UNL     1      12.471  -3.634   0.777  1.00  0.00     0.216 C 
HETATM   25  S1  UNL     1      11.720  -5.074   0.808  1.00  0.00    -0.033 SA
BRANCH  24  26
HETATM   26  O1  UNL     1      13.807  -3.545   1.132  1.00  0.00    -0.280 OA
BRANCH  26  27
HETATM   27  C1  UNL     1      14.224  -4.028   2.388  1.00  0.00     0.229 C 
HETATM   28  N1  UNL     1      14.584  -3.154   3.258  1.00  0.00    -0.390 N 
ATOM     29  H12 UNL     1      14.563  -2.159   3.034  1.00  0.00     0.157 HD
ATOM     30  H11 UNL     1      14.885  -3.504   4.167  1.00  0.00     0.157 HD
ENDBRANCH  26  27
ENDBRANCH  24  26
ENDBRANCH  22  24
ENDBRANCH  21  22
ENDBRANCH  12  21
ENDBRANCH   7   8
ENDBRANCH   1   7
BRANCH   2  31
HETATM   31  N4  UNL     1      12.733   1.678  -2.726  1.00  0.00    -0.072 N 
ATOM     32  H43 UNL     1      13.614   2.188  -2.800  1.00  0.00     0.274 HD
ATOM     33  H42 UNL     1      12.942   1.112  -1.904  1.00  0.00     0.274 HD
ATOM     34  H41 UNL     1      12.574   1.094  -3.548  1.00  0.00     0.274 HD
ENDBRANCH   2  31
BRANCH   6  35
HETATM   35  O9  UNL     1      10.925   4.590  -1.018  1.00  0.00    -0.310 OA
BRANCH  35  36
HETATM   36  C21 UNL     1      11.243   5.420   0.010  1.00  0.00     0.273 C 
HETATM   37  O10 UNL     1      11.814   4.974   1.030  1.00  0.00    -0.264 OA
BRANCH  36  38
HETATM   38  C22 UNL     1      10.913   6.859  -0.075  1.00  0.00     0.225 C 
HETATM   39 CL1  UNL     1      12.289   7.795  -0.749  1.00  0.00    -0.120 Cl
ENDBRANCH  36  38
ENDBRANCH  35  36
ENDBRANCH   6  35
BRANCH   5  40
HETATM   40  O5  UNL     1       8.777   4.998  -2.260  1.00  0.00    -0.349 OA
BRANCH  40  41
HETATM   41  C14 UNL     1       8.534   5.264  -3.584  1.00  0.00     0.294 C 
HETATM   42  O6  UNL     1       7.234   5.812  -3.765  1.00  0.00    -0.349 OA
HETATM   43  C15 UNL     1       6.880   5.529  -5.076  1.00  0.00     0.181 C 
HETATM   44  C17 UNL     1       7.769   6.120  -6.113  1.00  0.00     0.179 C 
HETATM   45  C18 UNL     1       9.238   6.082  -5.750  1.00  0.00     0.184 C 
HETATM   46  C19 UNL     1       9.456   6.218  -4.253  1.00  0.00     0.269 C 
BRANCH  43  47
HETATM   47  C16 UNL     1       5.468   6.034  -5.276  1.00  0.00     0.264 C 
BRANCH  47  48
HETATM   48  N6  UNL     1       4.944   5.729  -6.569  1.00  0.00    -0.077 N 
ATOM     49  H63 UNL     1       5.177   4.774  -6.840  1.00  0.00     0.274 HD
ATOM     50  H62 UNL     1       3.927   5.651  -6.540  1.00  0.00     0.274 HD
ATOM     51  H61 UNL     1       5.237   6.392  -7.286  1.00  0.00     0.274 HD
ENDBRANCH  47  48
ENDBRANCH  43  47
BRANCH  44  52
HETATM   52  O7  UNL     1       7.412   7.392  -6.536  1.00  0.00    -0.390 OA
ATOM     53  H7  UNL     1       7.217   7.468  -7.463  1.00  0.00     0.210 HD
ENDBRANCH  44  52
BRANCH  45  54
HETATM   54  O8  UNL     1       9.838   4.927  -6.240  1.00  0.00    -0.391 OA
ATOM     55  H8  UNL     1      10.625   5.137  -6.729  1.00  0.00     0.210 HD
ENDBRANCH  45  54
BRANCH  46  56
HETATM   56  N7  UNL     1      10.843   6.071  -3.969  1.00  0.00    -0.068 N 
ATOM     57  H73 UNL     1      10.964   5.746  -3.010  1.00  0.00     0.275 HD
ATOM     58  H72 UNL     1      11.215   5.273  -4.484  1.00  0.00     0.275 HD
ATOM     59  H71 UNL     1      11.433   6.887  -4.131  1.00  0.00     0.275 HD
ENDBRANCH  46  56
ENDBRANCH  40  41
ENDBRANCH   5  40
BRANCH   4  60
HETATM   60  N5  UNL     1       8.412   1.579  -3.084  1.00  0.00    -0.072 N 
ATOM     61  H53 UNL     1       8.625   0.937  -3.847  1.00  0.00     0.274 HD
ATOM     62  H52 UNL     1       8.711   1.001  -2.297  1.00  0.00     0.274 HD
ATOM     63  H51 UNL     1       7.414   1.780  -3.037  1.00  0.00     0.274 HD
ENDBRANCH   4  60
TORSDOF 22
ENDMDL
MODEL 5
REMARK VINA RESULT: -7.712718405      1.758      1.950
REMARK  22 active torsions:
REMARK  status: ('A' for Active; 'I' for Inactive)
REMARK    1  A    between atoms: C1_4  and  O1_5 
REMARK    2  A    between atoms: O1_5  and  C2_6 
REMARK    3  A    between atoms: C2_6  and  N2_8 
REMARK    4  A    between atoms: N2_8  and  C3_10 
REMARK    5  A    between atoms: C3_10  and  C4_11 
REMARK    6  A    between atoms: C5_13  and  C6_14 
REMARK    7  A    between atoms: C6_14  and  N3_15 
REMARK    8  A    between atoms: C7_19  and  O3_20 
REMARK    9  A    between atoms: C8_22  and  O4_23 
REMARK   10  A    between atoms: O4_23  and  C9_24 
REMARK   11  A    between atoms: C10_25  and  N4_26 
REMARK   12  A    between atoms: C12_31  and  N5_32 
REMARK   13  A    between atoms: C13_36  and  O5_37 
REMARK   14  A    between atoms: O5_37  and  C14_38 
REMARK   15  A    between atoms: C15_40  and  C16_41 
REMARK   16  A    between atoms: C16_41  and  N6_42 
REMARK   17  A    between atoms: C17_46  and  O7_47 
REMARK   18  A    between atoms: C18_49  and  O8_50 
REMARK   19  A    between atoms: C19_52  and  N7_53 
REMARK   20  A    between atoms: C20_57  and  O9_58 
REMARK   21  A    between atoms: O9_58  and  C21_59 
REMARK   22  A    between atoms: C21_59  and  C22_61 
ROOT
HETATM    1  C9  UNL     1      10.758   0.926   0.030  1.00  0.00     0.187 C 
HETATM    2  C10 UNL     1      11.699   1.934  -0.594  1.00  0.00     0.217 C 
HETATM    3  C11 UNL     1      11.429   1.940  -2.066  1.00  0.00     0.071 C 
HETATM    4  C12 UNL     1      10.053   1.552  -2.466  1.00  0.00     0.217 C 
HETATM    5  C13 UNL     1       8.964   1.766  -1.492  1.00  0.00     0.187 C 
HETATM    6  C20 UNL     1       9.379   1.585  -0.044  1.00  0.00     0.194 C 
ENDROOT
BRANCH   1   7
HETATM    7  O4  UNL     1      11.067   0.695   1.364  1.00  0.00    -0.348 OA
BRANCH   7   8
HETATM    8  C8  UNL     1      11.320  -0.616   1.668  1.00  0.00     0.294 C 
HETATM    9  C7  UNL     1      11.757  -0.840   3.095  1.00  0.00     0.204 C 
HETATM   10  C5  UNL     1      11.940  -2.338   3.273  1.00  0.00     0.183 C 
HETATM   11  O2  UNL     1      12.878  -2.760   2.359  1.00  0.00    -0.350 OA
HETATM   12  C4  UNL     1      12.583  -2.436   1.053  1.00  0.00     0.281 C 
HETATM   13  O11 UNL     1      12.336  -1.100   0.849  1.00  0.00    -0.327 OA
BRANCH   9  14
HETATM   14  O3  UNL     1      13.013  -0.247   3.296  1.00  0.00    -0.388 OA
ATOM     15  H3  UNL     1      12.858   0.622   3.646  1.00  0.00     0.210 HD
ENDBRANCH   9  14
BRANCH  10  16
HETATM   16  C6  UNL     1      12.434  -2.672   4.663  1.00  0.00     0.264 C 
BRANCH  16  17
HETATM   17  N3  UNL     1      13.195  -3.901   4.680  1.00  0.00    -0.077 N 
ATOM     18  H33 UNL     1      12.606  -4.700   4.915  1.00  0.00     0.274 HD
ATOM     19  H32 UNL     1      13.472  -4.180   3.738  1.00  0.00     0.274 HD
ATOM     20  H31 UNL     1      14.001  -3.838   5.301  1.00  0.00     0.274 HD
ENDBRANCH  16  17
ENDBRANCH  10  16
BRANCH  12  21
HETATM   21  C3  UNL     1      11.497  -3.341   0.511  1.00  0.00     0.183 C 
BRANCH  21  22
HETATM   22  N2  UNL     1      12.140  -4.597   0.116  1.00  0.00    -0.356 N 
ATOM     23  H2  UNL     1      12.957  -4.592  -0.495  1.00  0.00     0.162 HD
BRANCH  22  24
HETATM   24  C2  UNL     1      11.608  -5.815   0.596  1.00  0.00     0.216 C 
HETATM   25  S1  UNL     1      11.814  -6.277   2.139  1.00  0.00    -0.033 SA
BRANCH  24  26
HETATM   26  O1  UNL     1      10.898  -6.622  -0.277  1.00  0.00    -0.280 OA
BRANCH  26  27
HETATM   27  C1  UNL     1      11.498  -7.036  -1.482  1.00  0.00     0.229 C 
HETATM   28  N1  UNL     1      10.898  -6.716  -2.572  1.00  0.00    -0.390 N 
ATOM     29  H12 UNL     1      10.027  -6.185  -2.549  1.00  0.00     0.157 HD
ATOM     30  H11 UNL     1      11.333  -7.015  -3.444  1.00  0.00     0.157 HD
ENDBRANCH  26  27
ENDBRANCH  24  26
ENDBRANCH  22  24
ENDBRANCH  21  22
ENDBRANCH  12  21
ENDBRANCH   7   8
ENDBRANCH   1   7
BRANCH   2  31
HETATM   31  N4  UNL     1      13.083   1.633  -0.311  1.00  0.00    -0.072 N 
ATOM     32  H43 UNL     1      13.532   2.398   0.193  1.00  0.00     0.274 HD
ATOM     33  H42 UNL     1      13.165   0.903   0.398  1.00  0.00     0.274 HD
ATOM     34  H41 UNL     1      13.603   1.389  -1.154  1.00  0.00     0.274 HD
ENDBRANCH   2  31
BRANCH   6  35
HETATM   35  O9  UNL     1       9.557   2.899   0.484  1.00  0.00    -0.310 OA
BRANCH  35  36
HETATM   36  C21 UNL     1       8.871   3.391   1.549  1.00  0.00     0.273 C 
HETATM   37  O10 UNL     1       8.150   4.404   1.425  1.00  0.00    -0.264 OA
BRANCH  36  38
HETATM   38  C22 UNL     1       8.978   2.723   2.866  1.00  0.00     0.225 C 
HETATM   39 CL1  UNL     1       7.523   3.043   3.868  1.00  0.00    -0.120 Cl
ENDBRANCH  36  38
ENDBRANCH  35  36
ENDBRANCH   6  35
BRANCH   5  40
HETATM   40  O5  UNL     1       8.257   2.957  -1.667  1.00  0.00    -0.349 OA
BRANCH  40  41
HETATM   41  C14 UNL     1       8.732   3.742  -2.688  1.00  0.00     0.294 C 
HETATM   42  O6  UNL     1       7.822   3.766  -3.781  1.00  0.00    -0.349 OA
HETATM   43  C15 UNL     1       8.579   4.077  -4.900  1.00  0.00     0.181 C 
HETATM   44  C17 UNL     1       9.266   5.396  -4.854  1.00  0.00     0.179 C 
HETATM   45  C18 UNL     1       9.837   5.738  -3.494  1.00  0.00     0.184 C 
HETATM   46  C19 UNL     1       8.994   5.169  -2.366  1.00  0.00     0.269 C 
BRANCH  43  47
HETATM   47  C16 UNL     1       7.649   4.036  -6.093  1.00  0.00     0.264 C 
BRANCH  47  48
HETATM   48  N6  UNL     1       6.291   4.317  -5.752  1.00  0.00    -0.077 N 
ATOM     49  H63 UNL     1       5.882   3.547  -5.223  1.00  0.00     0.274 HD
ATOM     50  H62 UNL     1       6.237   5.053  -5.047  1.00  0.00     0.274 HD
ATOM     51  H61 UNL     1       5.716   4.547  -6.563  1.00  0.00     0.274 HD
ENDBRANCH  47  48
ENDBRANCH  43  47
BRANCH  44  52
HETATM   52  O7  UNL     1       8.525   6.461  -5.346  1.00  0.00    -0.390 OA
ATOM     53  H7  UNL     1       8.413   6.470  -6.289  1.00  0.00     0.210 HD
ENDBRANCH  44  52
BRANCH  45  54
HETATM   54  O8  UNL     1      11.159   5.319  -3.393  1.00  0.00    -0.391 OA
ATOM     55  H8  UNL     1      11.280   4.764  -2.632  1.00  0.00     0.210 HD
ENDBRANCH  45  54
BRANCH  46  56
HETATM   56  N7  UNL     1       9.637   5.436  -1.124  1.00  0.00    -0.068 N 
ATOM     57  H73 UNL     1      10.039   4.575  -0.755  1.00  0.00     0.275 HD
ATOM     58  H72 UNL     1      10.484   5.981  -1.288  1.00  0.00     0.275 HD
ATOM     59  H71 UNL     1       9.073   5.887  -0.404  1.00  0.00     0.275 HD
ENDBRANCH  46  56
ENDBRANCH  40  41
ENDBRANCH   5  40
BRANCH   4  60
HETATM   60  N5  UNL     1       9.996   0.176  -2.985  1.00  0.00    -0.072 N 
ATOM     61  H53 UNL     1      10.195  -0.505  -2.252  1.00  0.00     0.274 HD
ATOM     62  H52 UNL     1       9.038  -0.098  -3.203  1.00  0.00     0.274 HD
ATOM     63  H51 UNL     1      10.610   0.044  -3.788  1.00  0.00     0.274 HD
ENDBRANCH   4  60
TORSDOF 22
ENDMDL
