MODEL 1
REMARK VINA RESULT: -9.515663344      0.000      0.000
REMARK  21 active torsions:
REMARK  status: ('A' for Active; 'I' for Inactive)
REMARK    1  A    between atoms: C2_2  and  S1_3 
REMARK    2  A    between atoms: S1_3  and  C3_4 
REMARK    3  A    between atoms: C3_4  and  C4_5 
REMARK    4  A    between atoms: C5_7  and  O2_8 
REMARK    5  A    between atoms: C6_10  and  O3_11 
REMARK    6  A    between atoms: C7_13  and  O4_14 
REMARK    7  A    between atoms: O4_14  and  C8_15 
REMARK    8  A    between atoms: C9_16  and  O5_17 
REMARK    9  A    between atoms: O5_17  and  C10_18 
REMARK   10  A    between atoms: C11_20  and  C12_21 
REMARK   11  A    between atoms: C12_21  and  N1_22 
REMARK   12  A    between atoms: C13_26  and  O7_27 
REMARK   13  A    between atoms: C14_29  and  O8_30 
REMARK   14  A    between atoms: C15_32  and  N2_33 
REMARK   15  A    between atoms: C17_38  and  N3_39 
REMARK   16  A    between atoms: C18_43  and  O9_44 
REMARK   17  A    between atoms: O9_44  and  C19_45 
REMARK   18  A    between atoms: C20_47  and  C21_48 
REMARK   19  A    between atoms: C21_48  and  N4_49 
REMARK   20  A    between atoms: C22_53  and  O11_54 
REMARK   21  A    between atoms: C23_56  and  O12_57 
ROOT
HETATM    1  C8  UNL     1      11.100  -0.450   1.431  1.00  0.00     0.184 C 
HETATM    2  C9  UNL     1      10.309  -0.144   2.689  1.00  0.00     0.186 C 
HETATM    3  C15 UNL     1      11.358   0.184   3.728  1.00  0.00     0.217 C 
HETATM    4  C16 UNL     1      12.211  -1.071   3.969  1.00  0.00     0.071 C 
HETATM    5  C17 UNL     1      12.794  -1.632   2.714  1.00  0.00     0.217 C 
HETATM    6  C18 UNL     1      11.650  -1.857   1.740  1.00  0.00     0.186 C 
ENDROOT
BRANCH   1   7
HETATM    7  O4  UNL     1      10.494  -0.338   0.251  1.00  0.00    -0.369 OA
BRANCH   7   8
HETATM    8  C7  UNL     1      10.367   0.859  -0.373  1.00  0.00     0.197 C 
HETATM    9  C6  UNL     1      11.407   1.896  -0.087  1.00  0.00     0.205 C 
HETATM   10  C5  UNL     1      11.032   3.226  -0.651  1.00  0.00     0.288 C 
HETATM   11  O1  UNL     1      10.479   3.185  -1.862  1.00  0.00    -0.349 OA
HETATM   12  C4  UNL     1      10.641   2.024  -2.547  1.00  0.00     0.176 C 
HETATM   13  C24 UNL     1      10.019   0.833  -1.843  1.00  0.00     0.155 C 
HETATM   14  C25 UNL     1       8.527   0.923  -2.077  1.00  0.00     0.057 C 
HETATM   15  F1  UNL     1      10.479  -0.276  -2.511  1.00  0.00    -0.238 F 
BRANCH   9  16
HETATM   16  O3  UNL     1      12.686   1.608  -0.545  1.00  0.00    -0.388 OA
ATOM     17  H3  UNL     1      12.609   1.395  -1.467  1.00  0.00     0.210 HD
ENDBRANCH   9  16
BRANCH  10  18
HETATM   18  O2  UNL     1      12.197   4.061  -0.735  1.00  0.00    -0.369 OA
ATOM     19  H2  UNL     1      12.001   4.872  -0.283  1.00  0.00     0.212 HD
ENDBRANCH  10  18
BRANCH  12  20
HETATM   20  C3  UNL     1      10.069   2.213  -3.941  1.00  0.00     0.109 C 
BRANCH  20  21
HETATM   21  S1  UNL     1      10.804   3.657  -4.759  1.00  0.00    -0.167 SA
BRANCH  21  22
HETATM   22  C2  UNL     1      10.909   3.355  -6.562  1.00  0.00     0.069 C 
HETATM   23  C1  UNL     1      12.298   3.736  -7.069  1.00  0.00     0.016 C 
ENDBRANCH  21  22
ENDBRANCH  20  21
ENDBRANCH  12  20
ENDBRANCH   7   8
ENDBRANCH   1   7
BRANCH   2  24
HETATM   24  O5  UNL     1       9.326   0.717   2.504  1.00  0.00    -0.349 OA
BRANCH  24  25
HETATM   25  C10 UNL     1       9.124   1.760   3.353  1.00  0.00     0.292 C 
HETATM   26  O6  UNL     1       7.903   1.772   4.021  1.00  0.00    -0.349 OA
HETATM   27  C11 UNL     1       7.803   3.065   4.513  1.00  0.00     0.181 C 
HETATM   28  C13 UNL     1       7.986   3.882   3.248  1.00  0.00     0.182 C 
HETATM   29  C14 UNL     1       8.975   3.008   2.494  1.00  0.00     0.204 C 
BRANCH  27  30
HETATM   30  C12 UNL     1       6.435   3.351   5.088  1.00  0.00     0.264 C 
BRANCH  30  31
HETATM   31  N1  UNL     1       6.621   3.741   6.477  1.00  0.00    -0.077 N 
ATOM     32  H13 UNL     1       7.157   3.060   7.014  1.00  0.00     0.274 HD
ATOM     33  H12 UNL     1       7.260   4.529   6.587  1.00  0.00     0.274 HD
ATOM     34  H11 UNL     1       5.696   3.920   6.868  1.00  0.00     0.274 HD
ENDBRANCH  30  31
ENDBRANCH  27  30
BRANCH  28  35
HETATM   35  O7  UNL     1       6.777   4.012   2.580  1.00  0.00    -0.390 OA
ATOM     36  H7  UNL     1       6.595   4.927   2.404  1.00  0.00     0.210 HD
ENDBRANCH  28  35
BRANCH  29  37
HETATM   37  O8  UNL     1       8.372   2.639   1.290  1.00  0.00    -0.388 OA
ATOM     38  H8  UNL     1       7.451   2.475   1.456  1.00  0.00     0.210 HD
ENDBRANCH  29  37
ENDBRANCH  24  25
ENDBRANCH   2  24
BRANCH   6  39
HETATM   39  O9  UNL     1      11.936  -2.610   0.659  1.00  0.00    -0.349 OA
BRANCH  39  40
HETATM   40  C19 UNL     1      11.433  -3.882   0.700  1.00  0.00     0.292 C 
HETATM   41  O10 UNL     1      11.532  -4.560  -0.516  1.00  0.00    -0.349 OA
HETATM   42  C20 UNL     1      11.124  -5.835  -0.133  1.00  0.00     0.181 C 
HETATM   43  C22 UNL     1      12.112  -6.111   0.994  1.00  0.00     0.182 C 
HETATM   44  C23 UNL     1      12.000  -4.778   1.751  1.00  0.00     0.204 C 
BRANCH  42  45
HETATM   45  C21 UNL     1      11.225  -6.849  -1.237  1.00  0.00     0.264 C 
BRANCH  45  46
HETATM   46  N4  UNL     1      10.586  -6.447  -2.446  1.00  0.00    -0.077 N 
ATOM     47  H43 UNL     1       9.618  -6.179  -2.270  1.00  0.00     0.274 HD
ATOM     48  H42 UNL     1      10.955  -5.551  -2.768  1.00  0.00     0.274 HD
ATOM     49  H41 UNL     1      10.636  -7.144  -3.190  1.00  0.00     0.274 HD
ENDBRANCH  45  46
ENDBRANCH  42  45
BRANCH  43  50
HETATM   50  O11 UNL     1      11.707  -7.177   1.765  1.00  0.00    -0.390 OA
ATOM     51  H11 UNL     1      12.337  -7.368   2.449  1.00  0.00     0.210 HD
ENDBRANCH  43  50
BRANCH  44  52
HETATM   52  O12 UNL     1      11.069  -5.048   2.782  1.00  0.00    -0.388 OA
ATOM     53  H12 UNL     1      11.495  -5.228   3.611  1.00  0.00     0.210 HD
ENDBRANCH  44  52
ENDBRANCH  39  40
ENDBRANCH   6  39
BRANCH   3  54
HETATM   54  N2  UNL     1      10.811   0.464   5.044  1.00  0.00    -0.072 N 
ATOM     55  H23 UNL     1      10.077   1.169   4.985  1.00  0.00     0.274 HD
ATOM     56  H22 UNL     1      10.262  -0.327   5.380  1.00  0.00     0.274 HD
ATOM     57  H21 UNL     1      11.513   0.733   5.733  1.00  0.00     0.274 HD
ENDBRANCH   3  54
BRANCH   5  58
HETATM   58  N3  UNL     1      13.514  -2.824   3.042  1.00  0.00    -0.072 N 
ATOM     59  H33 UNL     1      14.126  -3.132   2.287  1.00  0.00     0.274 HD
ATOM     60  H32 UNL     1      14.233  -2.666   3.748  1.00  0.00     0.274 HD
ATOM     61  H31 UNL     1      12.843  -3.540   3.319  1.00  0.00     0.274 HD
ENDBRANCH   5  58
TORSDOF 21
ENDMDL
MODEL 2
REMARK VINA RESULT: -9.211598042      2.281      7.027
REMARK  21 active torsions:
REMARK  status: ('A' for Active; 'I' for Inactive)
REMARK    1  A    between atoms: C2_2  and  S1_3 
REMARK    2  A    between atoms: S1_3  and  C3_4 
REMARK    3  A    between atoms: C3_4  and  C4_5 
REMARK    4  A    between atoms: C5_7  and  O2_8 
REMARK    5  A    between atoms: C6_10  and  O3_11 
REMARK    6  A    between atoms: C7_13  and  O4_14 
REMARK    7  A    between atoms: O4_14  and  C8_15 
REMARK    8  A    between atoms: C9_16  and  O5_17 
REMARK    9  A    between atoms: O5_17  and  C10_18 
REMARK   10  A    between atoms: C11_20  and  C12_21 
REMARK   11  A    between atoms: C12_21  and  N1_22 
REMARK   12  A    between atoms: C13_26  and  O7_27 
REMARK   13  A    between atoms: C14_29  and  O8_30 
REMARK   14  A    between atoms: C15_32  and  N2_33 
REMARK   15  A    between atoms: C17_38  and  N3_39 
REMARK   16  A    between atoms: C18_43  and  O9_44 
REMARK   17  A    between atoms: O9_44  and  C19_45 
REMARK   18  A    between atoms: C20_47  and  C21_48 
REMARK   19  A    between atoms: C21_48  and  N4_49 
REMARK   20  A    between atoms: C22_53  and  O11_54 
REMARK   21  A    between atoms: C23_56  and  O12_57 
ROOT
HETATM    1  C8  UNL     1       9.278   0.941   1.786  1.00  0.00     0.184 C 
HETATM    2  C9  UNL     1      10.461   0.463   2.606  1.00  0.00     0.186 C 
HETATM    3  C15 UNL     1       9.929   0.364   4.019  1.00  0.00     0.217 C 
HETATM    4  C16 UNL     1       9.532   1.772   4.488  1.00  0.00     0.071 C 
HETATM    5  C17 UNL     1       8.583   2.453   3.557  1.00  0.00     0.217 C 
HETATM    6  C18 UNL     1       9.207   2.430   2.173  1.00  0.00     0.186 C 
ENDROOT
BRANCH   1   7
HETATM    7  O4  UNL     1       9.273   0.707   0.475  1.00  0.00    -0.369 OA
BRANCH   7   8
HETATM    8  C7  UNL     1       9.976   1.479  -0.389  1.00  0.00     0.197 C 
HETATM    9  C6  UNL     1      11.467   1.350  -0.368  1.00  0.00     0.205 C 
HETATM   10  C5  UNL     1      12.125   2.403  -1.194  1.00  0.00     0.288 C 
HETATM   11  O1  UNL     1      11.519   2.669  -2.350  1.00  0.00    -0.349 OA
HETATM   12  C4  UNL     1      10.620   1.744  -2.772  1.00  0.00     0.176 C 
HETATM   13  C24 UNL     1       9.462   1.565  -1.807  1.00  0.00     0.155 C 
HETATM   14  C25 UNL     1       8.544   2.750  -2.009  1.00  0.00     0.057 C 
HETATM   15  F1  UNL     1       8.793   0.443  -2.233  1.00  0.00    -0.238 F 
BRANCH   9  16
HETATM   16  O3  UNL     1      11.971   0.128  -0.791  1.00  0.00    -0.388 OA
ATOM     17  H3  UNL     1      11.327  -0.531  -0.565  1.00  0.00     0.210 HD
ENDBRANCH   9  16
BRANCH  10  18
HETATM   18  O2  UNL     1      13.474   2.010  -1.493  1.00  0.00    -0.369 OA
ATOM     19  H2  UNL     1      13.681   2.336  -2.361  1.00  0.00     0.212 HD
ENDBRANCH  10  18
BRANCH  12  20
HETATM   20  C3  UNL     1      10.140   2.146  -4.156  1.00  0.00     0.109 C 
BRANCH  20  21
HETATM   21  S1  UNL     1      11.086   3.560  -4.790  1.00  0.00    -0.167 SA
BRANCH  21  22
HETATM   22  C2  UNL     1      10.992   3.591  -6.618  1.00  0.00     0.069 C 
HETATM   23  C1  UNL     1      12.399   3.665  -7.207  1.00  0.00     0.016 C 
ENDBRANCH  21  22
ENDBRANCH  20  21
ENDBRANCH  12  20
ENDBRANCH   7   8
ENDBRANCH   1   7
BRANCH   2  24
HETATM   24  O5  UNL     1      11.073  -0.590   2.097  1.00  0.00    -0.349 OA
BRANCH  24  25
HETATM   25  C10 UNL     1      10.851  -1.843   2.575  1.00  0.00     0.292 C 
HETATM   26  O6  UNL     1      11.902  -2.418   3.283  1.00  0.00    -0.349 OA
HETATM   27  C11 UNL     1      11.572  -3.765   3.337  1.00  0.00     0.181 C 
HETATM   28  C13 UNL     1      11.380  -4.085   1.867  1.00  0.00     0.182 C 
HETATM   29  C14 UNL     1      10.795  -2.773   1.371  1.00  0.00     0.204 C 
BRANCH  27  30
HETATM   30  C12 UNL     1      12.705  -4.607   3.878  1.00  0.00     0.264 C 
BRANCH  30  31
HETATM   31  N1  UNL     1      13.896  -3.772   3.894  1.00  0.00    -0.077 N 
ATOM     32  H13 UNL     1      13.694  -2.793   4.094  1.00  0.00     0.274 HD
ATOM     33  H12 UNL     1      14.498  -3.951   4.698  1.00  0.00     0.274 HD
ATOM     34  H11 UNL     1      14.372  -3.906   3.001  1.00  0.00     0.274 HD
ENDBRANCH  30  31
ENDBRANCH  27  30
BRANCH  28  35
HETATM   35  O7  UNL     1      12.601  -4.377   1.274  1.00  0.00    -0.390 OA
ATOM     36  H7  UNL     1      12.623  -4.047   0.385  1.00  0.00     0.210 HD
ENDBRANCH  28  35
BRANCH  29  37
HETATM   37  O8  UNL     1      11.659  -2.273   0.393  1.00  0.00    -0.388 OA
ATOM     38  H8  UNL     1      12.501  -2.701   0.494  1.00  0.00     0.210 HD
ENDBRANCH  29  37
ENDBRANCH  24  25
ENDBRANCH   2  24
BRANCH   6  39
HETATM   39  O9  UNL     1       8.633   3.234   1.255  1.00  0.00    -0.349 OA
BRANCH  39  40
HETATM   40  C19 UNL     1       9.128   4.509   1.223  1.00  0.00     0.292 C 
HETATM   41  O10 UNL     1      10.227   4.660   0.374  1.00  0.00    -0.349 OA
HETATM   42  C20 UNL     1      10.390   6.042   0.409  1.00  0.00     0.181 C 
HETATM   43  C22 UNL     1       9.001   6.492  -0.030  1.00  0.00     0.182 C 
HETATM   44  C23 UNL     1       8.152   5.583   0.873  1.00  0.00     0.204 C 
BRANCH  42  45
HETATM   45  C21 UNL     1      11.465   6.538  -0.516  1.00  0.00     0.264 C 
BRANCH  45  46
HETATM   46  N4  UNL     1      11.749   5.649  -1.595  1.00  0.00    -0.077 N 
ATOM     47  H43 UNL     1      11.931   6.171  -2.453  1.00  0.00     0.274 HD
ATOM     48  H42 UNL     1      12.659   5.206  -1.467  1.00  0.00     0.274 HD
ATOM     49  H41 UNL     1      11.026   4.946  -1.749  1.00  0.00     0.274 HD
ENDBRANCH  45  46
ENDBRANCH  42  45
BRANCH  43  50
HETATM   50  O11 UNL     1       8.798   7.826   0.244  1.00  0.00    -0.390 OA
ATOM     51  H11 UNL     1       9.608   8.318   0.184  1.00  0.00     0.210 HD
ENDBRANCH  43  50
BRANCH  44  52
HETATM   52  O12 UNL     1       7.839   6.402   1.984  1.00  0.00    -0.388 OA
ATOM     53  H12 UNL     1       7.161   7.036   1.782  1.00  0.00     0.210 HD
ENDBRANCH  44  52
ENDBRANCH  39  40
ENDBRANCH   6  39
BRANCH   3  54
HETATM   54  N2  UNL     1      10.927  -0.036   4.994  1.00  0.00    -0.072 N 
ATOM     55  H23 UNL     1      11.203  -1.006   4.849  1.00  0.00     0.274 HD
ATOM     56  H22 UNL     1      11.817   0.425   4.806  1.00  0.00     0.274 HD
ATOM     57  H21 UNL     1      10.641   0.115   5.962  1.00  0.00     0.274 HD
ENDBRANCH   3  54
BRANCH   5  58
HETATM   58  N3  UNL     1       8.329   3.770   4.054  1.00  0.00    -0.072 N 
ATOM     59  H33 UNL     1       7.603   4.255   3.527  1.00  0.00     0.274 HD
ATOM     60  H32 UNL     1       7.862   3.764   4.961  1.00  0.00     0.274 HD
ATOM     61  H31 UNL     1       9.210   4.284   4.070  1.00  0.00     0.274 HD
ENDBRANCH   5  58
TORSDOF 21
ENDMDL
MODEL 3
REMARK VINA RESULT: -9.038558425      4.118      8.796
REMARK  21 active torsions:
REMARK  status: ('A' for Active; 'I' for Inactive)
REMARK    1  A    between atoms: C2_2  and  S1_3 
REMARK    2  A    between atoms: S1_3  and  C3_4 
REMARK    3  A    between atoms: C3_4  and  C4_5 
REMARK    4  A    between atoms: C5_7  and  O2_8 
REMARK    5  A    between atoms: C6_10  and  O3_11 
REMARK    6  A    between atoms: C7_13  and  O4_14 
REMARK    7  A    between atoms: O4_14  and  C8_15 
REMARK    8  A    between atoms: C9_16  and  O5_17 
REMARK    9  A    between atoms: O5_17  and  C10_18 
REMARK   10  A    between atoms: C11_20  and  C12_21 
REMARK   11  A    between atoms: C12_21  and  N1_22 
REMARK   12  A    between atoms: C13_26  and  O7_27 
REMARK   13  A    between atoms: C14_29  and  O8_30 
REMARK   14  A    between atoms: C15_32  and  N2_33 
REMARK   15  A    between atoms: C17_38  and  N3_39 
REMARK   16  A    between atoms: C18_43  and  O9_44 
REMARK   17  A    between atoms: O9_44  and  C19_45 
REMARK   18  A    between atoms: C20_47  and  C21_48 
REMARK   19  A    between atoms: C21_48  and  N4_49 
REMARK   20  A    between atoms: C22_53  and  O11_54 
REMARK   21  A    between atoms: C23_56  and  O12_57 
ROOT
HETATM    1  C8  UNL     1       9.325   3.629   0.556  1.00  0.00     0.184 C 
HETATM    2  C9  UNL     1       9.974   2.285   0.286  1.00  0.00     0.186 C 
HETATM    3  C15 UNL     1      11.440   2.603   0.092  1.00  0.00     0.217 C 
HETATM    4  C16 UNL     1      11.583   3.486  -1.157  1.00  0.00     0.071 C 
HETATM    5  C17 UNL     1      10.726   4.708  -1.112  1.00  0.00     0.217 C 
HETATM    6  C18 UNL     1       9.300   4.255  -0.852  1.00  0.00     0.186 C 
ENDROOT
BRANCH   1   7
HETATM    7  O4  UNL     1       8.158   3.659   1.197  1.00  0.00    -0.369 OA
BRANCH   7   8
HETATM    8  C7  UNL     1       8.029   4.240   2.415  1.00  0.00     0.197 C 
HETATM    9  C6  UNL     1       7.469   5.627   2.458  1.00  0.00     0.205 C 
HETATM   10  C5  UNL     1       7.589   6.232   3.816  1.00  0.00     0.288 C 
HETATM   11  O1  UNL     1       7.328   5.401   4.824  1.00  0.00    -0.349 OA
HETATM   12  C4  UNL     1       6.674   4.258   4.494  1.00  0.00     0.176 C 
HETATM   13  C24 UNL     1       7.454   3.391   3.524  1.00  0.00     0.155 C 
HETATM   14  C25 UNL     1       8.533   2.703   4.332  1.00  0.00     0.057 C 
HETATM   15  F1  UNL     1       6.575   2.427   3.097  1.00  0.00    -0.238 F 
BRANCH   9  16
HETATM   16  O3  UNL     1       6.139   5.750   2.075  1.00  0.00    -0.388 OA
ATOM     17  H3  UNL     1       6.011   5.177   1.329  1.00  0.00     0.210 HD
ENDBRANCH   9  16
BRANCH  10  18
HETATM   18  O2  UNL     1       6.690   7.346   3.931  1.00  0.00    -0.369 OA
ATOM     19  H2  UNL     1       6.001   7.225   3.288  1.00  0.00     0.212 HD
ENDBRANCH  10  18
BRANCH  12  20
HETATM   20  C3  UNL     1       6.347   3.512   5.776  1.00  0.00     0.109 C 
BRANCH  20  21
HETATM   21  S1  UNL     1       4.558   3.494   6.083  1.00  0.00    -0.167 SA
BRANCH  21  22
HETATM   22  C2  UNL     1       3.694   2.773   4.639  1.00  0.00     0.069 C 
HETATM   23  C1  UNL     1       3.095   3.888   3.786  1.00  0.00     0.016 C 
ENDBRANCH  21  22
ENDBRANCH  20  21
ENDBRANCH  12  20
ENDBRANCH   7   8
ENDBRANCH   1   7
BRANCH   2  24
HETATM   24  O5  UNL     1       9.651   1.351   1.162  1.00  0.00    -0.349 OA
BRANCH  24  25
HETATM   25  C10 UNL     1      10.557   0.431   1.587  1.00  0.00     0.292 C 
HETATM   26  O6  UNL     1      10.670  -0.715   0.806  1.00  0.00    -0.349 OA
HETATM   27  C11 UNL     1      11.354  -1.608   1.619  1.00  0.00     0.181 C 
HETATM   28  C13 UNL     1      10.478  -1.616   2.857  1.00  0.00     0.182 C 
HETATM   29  C14 UNL     1      10.006  -0.171   2.872  1.00  0.00     0.204 C 
BRANCH  27  30
HETATM   30  C12 UNL     1      11.386  -3.001   1.032  1.00  0.00     0.264 C 
BRANCH  30  31
HETATM   31  N1  UNL     1      12.772  -3.441   1.037  1.00  0.00    -0.077 N 
ATOM     32  H13 UNL     1      13.176  -3.478   1.973  1.00  0.00     0.274 HD
ATOM     33  H12 UNL     1      12.878  -4.429   0.809  1.00  0.00     0.274 HD
ATOM     34  H11 UNL     1      13.288  -2.828   0.405  1.00  0.00     0.274 HD
ENDBRANCH  30  31
ENDBRANCH  27  30
BRANCH  28  35
HETATM   35  O7  UNL     1       9.432  -2.514   2.701  1.00  0.00    -0.390 OA
ATOM     36  H7  UNL     1       8.795  -2.174   2.084  1.00  0.00     0.210 HD
ENDBRANCH  28  35
BRANCH  29  37
HETATM   37  O8  UNL     1       8.612  -0.187   2.785  1.00  0.00    -0.388 OA
ATOM     38  H8  UNL     1       8.258   0.081   3.625  1.00  0.00     0.210 HD
ENDBRANCH  29  37
ENDBRANCH  24  25
ENDBRANCH   2  24
BRANCH   6  39
HETATM   39  O9  UNL     1       8.342   5.183  -1.050  1.00  0.00    -0.349 OA
BRANCH  39  40
HETATM   40  C19 UNL     1       7.755   5.144  -2.285  1.00  0.00     0.292 C 
HETATM   41  O10 UNL     1       8.300   6.055  -3.191  1.00  0.00    -0.349 OA
HETATM   42  C20 UNL     1       7.652   5.671  -4.362  1.00  0.00     0.181 C 
HETATM   43  C22 UNL     1       8.036   4.197  -4.416  1.00  0.00     0.182 C 
HETATM   44  C23 UNL     1       7.735   3.811  -2.959  1.00  0.00     0.204 C 
BRANCH  42  45
HETATM   45  C21 UNL     1       8.120   6.424  -5.576  1.00  0.00     0.264 C 
BRANCH  45  46
HETATM   46  N4  UNL     1       7.737   5.819  -6.809  1.00  0.00    -0.077 N 
ATOM     47  H43 UNL     1       6.723   5.824  -6.913  1.00  0.00     0.274 HD
ATOM     48  H42 UNL     1       7.993   6.415  -7.597  1.00  0.00     0.274 HD
ATOM     49  H41 UNL     1       8.107   4.877  -6.937  1.00  0.00     0.274 HD
ENDBRANCH  45  46
ENDBRANCH  42  45
BRANCH  43  50
HETATM   50  O11 UNL     1       7.244   3.507  -5.306  1.00  0.00    -0.390 OA
ATOM     51  H11 UNL     1       7.768   3.047  -5.950  1.00  0.00     0.210 HD
ENDBRANCH  43  50
BRANCH  44  52
HETATM   52  O12 UNL     1       6.433   3.260  -3.013  1.00  0.00    -0.388 OA
ATOM     53  H12 UNL     1       5.791   3.888  -3.324  1.00  0.00     0.210 HD
ENDBRANCH  44  52
ENDBRANCH  39  40
ENDBRANCH   6  39
BRANCH   3  54
HETATM   54  N2  UNL     1      12.252   1.445  -0.233  1.00  0.00    -0.072 N 
ATOM     55  H23 UNL     1      12.838   1.183   0.560  1.00  0.00     0.274 HD
ATOM     56  H22 UNL     1      11.673   0.608  -0.301  1.00  0.00     0.274 HD
ATOM     57  H21 UNL     1      12.818   1.560  -1.074  1.00  0.00     0.274 HD
ENDBRANCH   3  54
BRANCH   5  58
HETATM   58  N3  UNL     1      10.889   5.422  -2.341  1.00  0.00    -0.072 N 
ATOM     59  H33 UNL     1      11.488   4.929  -3.004  1.00  0.00     0.274 HD
ATOM     60  H32 UNL     1      10.038   5.433  -2.904  1.00  0.00     0.274 HD
ATOM     61  H31 UNL     1      11.229   6.358  -2.127  1.00  0.00     0.274 HD
ENDBRANCH   5  58
TORSDOF 21
ENDMDL
MODEL 4
REMARK VINA RESULT: -8.912037974      2.764      7.855
REMARK  21 active torsions:
REMARK  status: ('A' for Active; 'I' for Inactive)
REMARK    1  A    between atoms: C2_2  and  S1_3 
REMARK    2  A    between atoms: S1_3  and  C3_4 
REMARK    3  A    between atoms: C3_4  and  C4_5 
REMARK    4  A    between atoms: C5_7  and  O2_8 
REMARK    5  A    between atoms: C6_10  and  O3_11 
REMARK    6  A    between atoms: C7_13  and  O4_14 
REMARK    7  A    between atoms: O4_14  and  C8_15 
REMARK    8  A    between atoms: C9_16  and  O5_17 
REMARK    9  A    between atoms: O5_17  and  C10_18 
REMARK   10  A    between atoms: C11_20  and  C12_21 
REMARK   11  A    between atoms: C12_21  and  N1_22 
REMARK   12  A    between atoms: C13_26  and  O7_27 
REMARK   13  A    between atoms: C14_29  and  O8_30 
REMARK   14  A    between atoms: C15_32  and  N2_33 
REMARK   15  A    between atoms: C17_38  and  N3_39 
REMARK   16  A    between atoms: C18_43  and  O9_44 
REMARK   17  A    between atoms: O9_44  and  C19_45 
REMARK   18  A    between atoms: C20_47  and  C21_48 
REMARK   19  A    between atoms: C21_48  and  N4_49 
REMARK   20  A    between atoms: C22_53  and  O11_54 
REMARK   21  A    between atoms: C23_56  and  O12_57 
ROOT
HETATM    1  C8  UNL     1       9.709   2.929   1.302  1.00  0.00     0.184 C 
HETATM    2  C9  UNL     1      10.215   1.829   2.217  1.00  0.00     0.186 C 
HETATM    3  C15 UNL     1       8.996   1.391   2.997  1.00  0.00     0.217 C 
HETATM    4  C16 UNL     1       8.518   2.573   3.854  1.00  0.00     0.071 C 
HETATM    5  C17 UNL     1       8.283   3.815   3.060  1.00  0.00     0.217 C 
HETATM    6  C18 UNL     1       9.555   4.107   2.283  1.00  0.00     0.186 C 
ENDROOT
BRANCH   1   7
HETATM    7  O4  UNL     1      10.399   3.211   0.199  1.00  0.00    -0.369 OA
BRANCH   7   8
HETATM    8  C7  UNL     1      10.288   2.457  -0.923  1.00  0.00     0.197 C 
HETATM    9  C6  UNL     1       8.952   1.846  -1.210  1.00  0.00     0.205 C 
HETATM   10  C5  UNL     1       9.021   0.869  -2.335  1.00  0.00     0.288 C 
HETATM   11  O1  UNL     1       9.790   1.243  -3.356  1.00  0.00    -0.349 OA
HETATM   12  C4  UNL     1      10.119   2.559  -3.397  1.00  0.00     0.176 C 
HETATM   13  C24 UNL     1      10.912   3.007  -2.183  1.00  0.00     0.155 C 
HETATM   14  C25 UNL     1      12.326   2.506  -2.383  1.00  0.00     0.057 C 
HETATM   15  F1  UNL     1      10.944   4.379  -2.245  1.00  0.00    -0.238 F 
BRANCH   9  16
HETATM   16  O3  UNL     1       7.934   2.741  -1.511  1.00  0.00    -0.388 OA
ATOM     17  H3  UNL     1       8.251   3.296  -2.213  1.00  0.00     0.210 HD
ENDBRANCH   9  16
BRANCH  10  18
HETATM   18  O2  UNL     1       7.701   0.633  -2.851  1.00  0.00    -0.369 OA
ATOM     19  H2  UNL     1       7.238   0.097  -2.219  1.00  0.00     0.212 HD
ENDBRANCH  10  18
BRANCH  12  20
HETATM   20  C3  UNL     1      10.875   2.819  -4.689  1.00  0.00     0.109 C 
BRANCH  20  21
HETATM   21  S1  UNL     1      10.249   4.304  -5.524  1.00  0.00    -0.167 SA
BRANCH  21  22
HETATM   22  C2  UNL     1      11.577   5.036  -6.551  1.00  0.00     0.069 C 
HETATM   23  C1  UNL     1      12.347   3.928  -7.265  1.00  0.00     0.016 C 
ENDBRANCH  21  22
ENDBRANCH  20  21
ENDBRANCH  12  20
ENDBRANCH   7   8
ENDBRANCH   1   7
BRANCH   2  24
HETATM   24  O5  UNL     1      10.922   0.903   1.597  1.00  0.00    -0.349 OA
BRANCH  24  25
HETATM   25  C10 UNL     1      10.915  -0.393   2.009  1.00  0.00     0.292 C 
HETATM   26  O6  UNL     1      11.866  -0.730   2.968  1.00  0.00    -0.349 OA
HETATM   27  C11 UNL     1      11.889  -2.117   2.943  1.00  0.00     0.181 C 
HETATM   28  C13 UNL     1      12.160  -2.386   1.475  1.00  0.00     0.182 C 
HETATM   29  C14 UNL     1      11.403  -1.233   0.837  1.00  0.00     0.204 C 
BRANCH  27  30
HETATM   30  C12 UNL     1      13.025  -2.682   3.763  1.00  0.00     0.264 C 
BRANCH  30  31
HETATM   31  N1  UNL     1      12.974  -4.130   3.636  1.00  0.00    -0.077 N 
ATOM     32  H13 UNL     1      12.033  -4.507   3.745  1.00  0.00     0.274 HD
ATOM     33  H12 UNL     1      13.135  -4.452   2.682  1.00  0.00     0.274 HD
ATOM     34  H11 UNL     1      13.639  -4.518   4.305  1.00  0.00     0.274 HD
ENDBRANCH  30  31
ENDBRANCH  27  30
BRANCH  28  35
HETATM   35  O7  UNL     1      13.523  -2.330   1.220  1.00  0.00    -0.390 OA
ATOM     36  H7  UNL     1      13.687  -1.880   0.400  1.00  0.00     0.210 HD
ENDBRANCH  28  35
BRANCH  29  37
HETATM   37  O8  UNL     1      12.326  -0.477   0.112  1.00  0.00    -0.388 OA
ATOM     38  H8  UNL     1      12.461  -0.898  -0.729  1.00  0.00     0.210 HD
ENDBRANCH  29  37
ENDBRANCH  24  25
ENDBRANCH   2  24
BRANCH   6  39
HETATM   39  O9  UNL     1       9.636   5.332   1.724  1.00  0.00    -0.349 OA
BRANCH  39  40
HETATM   40  C19 UNL     1       8.476   5.773   1.146  1.00  0.00     0.292 C 
HETATM   41  O10 UNL     1       7.820   6.754   1.892  1.00  0.00    -0.349 OA
HETATM   42  C20 UNL     1       6.814   7.123   1.003  1.00  0.00     0.181 C 
HETATM   43  C22 UNL     1       7.650   7.501  -0.214  1.00  0.00     0.182 C 
HETATM   44  C23 UNL     1       8.594   6.288  -0.250  1.00  0.00     0.204 C 
BRANCH  42  45
HETATM   45  C21 UNL     1       5.976   8.269   1.494  1.00  0.00     0.264 C 
BRANCH  45  46
HETATM   46  N4  UNL     1       6.401   9.540   1.008  1.00  0.00    -0.077 N 
ATOM     47  H43 UNL     1       7.017   9.430   0.202  1.00  0.00     0.274 HD
ATOM     48  H42 UNL     1       5.626  10.034   0.564  1.00  0.00     0.274 HD
ATOM     49  H41 UNL     1       6.840  10.126   1.718  1.00  0.00     0.274 HD
ENDBRANCH  45  46
ENDBRANCH  42  45
BRANCH  43  50
HETATM   50  O11 UNL     1       6.875   7.584  -1.348  1.00  0.00    -0.390 OA
ATOM     51  H11 UNL     1       7.298   8.106  -2.019  1.00  0.00     0.210 HD
ENDBRANCH  43  50
BRANCH  44  52
HETATM   52  O12 UNL     1       7.996   5.418  -1.192  1.00  0.00    -0.388 OA
ATOM     53  H12 UNL     1       7.499   5.890  -1.850  1.00  0.00     0.210 HD
ENDBRANCH  44  52
ENDBRANCH  39  40
ENDBRANCH   6  39
BRANCH   3  54
HETATM   54  N2  UNL     1       9.269   0.362   3.983  1.00  0.00    -0.072 N 
ATOM     55  H23 UNL     1       8.686  -0.457   3.819  1.00  0.00     0.274 HD
ATOM     56  H22 UNL     1      10.190  -0.049   3.827  1.00  0.00     0.274 HD
ATOM     57  H21 UNL     1       9.177   0.681   4.948  1.00  0.00     0.274 HD
ENDBRANCH   3  54
BRANCH   5  58
HETATM   58  N3  UNL     1       7.903   4.862   3.958  1.00  0.00    -0.072 N 
ATOM     59  H33 UNL     1       7.109   5.403   3.616  1.00  0.00     0.274 HD
ATOM     60  H32 UNL     1       7.473   4.509   4.813  1.00  0.00     0.274 HD
ATOM     61  H31 UNL     1       8.721   5.442   4.141  1.00  0.00     0.274 HD
ENDBRANCH   5  58
TORSDOF 21
ENDMDL
MODEL 5
REMARK VINA RESULT: -8.795584882      4.222      8.906
REMARK  21 active torsions:
REMARK  status: ('A' for Active; 'I' for Inactive)
REMARK    1  A    between atoms: C2_2  and  S1_3 
REMARK    2  A    between atoms: S1_3  and  C3_4 
REMARK    3  A    between atoms: C3_4  and  C4_5 
REMARK    4  A    between atoms: C5_7  and  O2_8 
REMARK    5  A    between atoms: C6_10  and  O3_11 
REMARK    6  A    between atoms: C7_13  and  O4_14 
REMARK    7  A    between atoms: O4_14  and  C8_15 
REMARK    8  A    between atoms: C9_16  and  O5_17 
REMARK    9  A    between atoms: O5_17  and  C10_18 
REMARK   10  A    between atoms: C11_20  and  C12_21 
REMARK   11  A    between atoms: C12_21  and  N1_22 
REMARK   12  A    between atoms: C13_26  and  O7_27 
REMARK   13  A    between atoms: C14_29  and  O8_30 
REMARK   14  A    between atoms: C15_32  and  N2_33 
REMARK   15  A    between atoms: C17_38  and  N3_39 
REMARK   16  A    between atoms: C18_43  and  O9_44 
REMARK   17  A    between atoms: O9_44  and  C19_45 
REMARK   18  A    between atoms: C20_47  and  C21_48 
REMARK   19  A    between atoms: C21_48  and  N4_49 
REMARK   20  A    between atoms: C22_53  and  O11_54 
REMARK   21  A    between atoms: C23_56  and  O12_57 
ROOT
HETATM    1  C8  UNL     1       9.299   5.317   0.177  1.00  0.00     0.184 C 
HETATM    2  C9  UNL     1       9.595   5.443   1.660  1.00  0.00     0.186 C 
HETATM    3  C15 UNL     1       8.234   5.516   2.315  1.00  0.00     0.217 C 
HETATM    4  C16 UNL     1       7.533   6.796   1.836  1.00  0.00     0.071 C 
HETATM    5  C17 UNL     1       7.467   6.905   0.348  1.00  0.00     0.217 C 
HETATM    6  C18 UNL     1       8.882   6.756  -0.184  1.00  0.00     0.186 C 
ENDROOT
BRANCH   1   7
HETATM    7  O4  UNL     1      10.229   4.793  -0.618  1.00  0.00    -0.369 OA
BRANCH   7   8
HETATM    8  C7  UNL     1       9.971   3.719  -1.405  1.00  0.00     0.197 C 
HETATM    9  C6  UNL     1       8.535   3.359  -1.624  1.00  0.00     0.205 C 
HETATM   10  C5  UNL     1       8.393   2.042  -2.312  1.00  0.00     0.288 C 
HETATM   11  O1  UNL     1       9.268   1.826  -3.292  1.00  0.00    -0.349 OA
HETATM   12  C4  UNL     1       9.922   2.922  -3.755  1.00  0.00     0.176 C 
HETATM   13  C24 UNL     1      10.759   3.603  -2.688  1.00  0.00     0.155 C 
HETATM   14  C25 UNL     1      12.006   2.763  -2.516  1.00  0.00     0.057 C 
HETATM   15  F1  UNL     1      11.140   4.808  -3.227  1.00  0.00    -0.238 F 
BRANCH   9  16
HETATM   16  O3  UNL     1       7.788   4.278  -2.350  1.00  0.00    -0.388 OA
ATOM     17  H3  UNL     1       6.966   4.392  -1.890  1.00  0.00     0.210 HD
ENDBRANCH   9  16
BRANCH  10  18
HETATM   18  O2  UNL     1       7.077   1.930  -2.874  1.00  0.00    -0.369 OA
ATOM     19  H2  UNL     1       6.462   2.267  -2.234  1.00  0.00     0.212 HD
ENDBRANCH  10  18
BRANCH  12  20
HETATM   20  C3  UNL     1      10.764   2.503  -4.947  1.00  0.00     0.109 C 
BRANCH  20  21
HETATM   21  S1  UNL     1      10.404   3.537  -6.396  1.00  0.00    -0.167 SA
BRANCH  21  22
HETATM   22  C2  UNL     1      11.747   4.759  -6.627  1.00  0.00     0.069 C 
HETATM   23  C1  UNL     1      12.769   4.221  -7.626  1.00  0.00     0.016 C 
ENDBRANCH  21  22
ENDBRANCH  20  21
ENDBRANCH  12  20
ENDBRANCH   7   8
ENDBRANCH   1   7
BRANCH   2  24
HETATM   24  O5  UNL     1      10.455   4.548   2.110  1.00  0.00    -0.349 OA
BRANCH  24  25
HETATM   25  C10 UNL     1      10.137   3.229   2.182  1.00  0.00     0.292 C 
HETATM   26  O6  UNL     1       9.961   2.716   3.464  1.00  0.00    -0.349 OA
HETATM   27  C11 UNL     1      10.008   1.341   3.284  1.00  0.00     0.181 C 
HETATM   28  C13 UNL     1      11.339   1.177   2.575  1.00  0.00     0.182 C 
HETATM   29  C14 UNL     1      11.371   2.451   1.747  1.00  0.00     0.204 C 
BRANCH  27  30
HETATM   30  C12 UNL     1      10.058   0.596   4.598  1.00  0.00     0.264 C 
BRANCH  30  31
HETATM   31  N1  UNL     1      10.468  -0.769   4.307  1.00  0.00    -0.077 N 
ATOM     32  H13 UNL     1      11.006  -0.849   3.444  1.00  0.00     0.274 HD
ATOM     33  H12 UNL     1      11.188  -1.113   4.943  1.00  0.00     0.274 HD
ATOM     34  H11 UNL     1       9.627  -1.346   4.308  1.00  0.00     0.274 HD
ENDBRANCH  30  31
ENDBRANCH  27  30
BRANCH  28  35
HETATM   35  O7  UNL     1      12.373   1.121   3.499  1.00  0.00    -0.390 OA
ATOM     36  H7  UNL     1      12.870   1.929   3.488  1.00  0.00     0.210 HD
ENDBRANCH  28  35
BRANCH  29  37
HETATM   37  O8  UNL     1      12.501   3.173   2.135  1.00  0.00    -0.388 OA
ATOM     38  H8  UNL     1      12.998   2.643   2.746  1.00  0.00     0.210 HD
ENDBRANCH  29  37
ENDBRANCH  24  25
ENDBRANCH   2  24
BRANCH   6  39
HETATM   39  O9  UNL     1       9.065   7.099  -1.474  1.00  0.00    -0.349 OA
BRANCH  39  40
HETATM   40  C19 UNL     1       9.774   8.254  -1.663  1.00  0.00     0.292 C 
HETATM   41  O10 UNL     1       8.974   9.353  -1.983  1.00  0.00    -0.349 OA
HETATM   42  C20 UNL     1       9.915  10.378  -1.938  1.00  0.00     0.181 C 
HETATM   43  C22 UNL     1      10.453  10.193  -0.524  1.00  0.00     0.182 C 
HETATM   44  C23 UNL     1      10.662   8.670  -0.538  1.00  0.00     0.204 C 
BRANCH  42  45
HETATM   45  C21 UNL     1       9.321  11.742  -2.145  1.00  0.00     0.264 C 
BRANCH  45  46
HETATM   46  N4  UNL     1       9.054  12.442  -0.931  1.00  0.00    -0.077 N 
ATOM     47  H43 UNL     1       8.565  11.841  -0.269  1.00  0.00     0.274 HD
ATOM     48  H42 UNL     1       9.917  12.603  -0.411  1.00  0.00     0.274 HD
ATOM     49  H41 UNL     1       8.547  13.317  -1.065  1.00  0.00     0.274 HD
ENDBRANCH  45  46
ENDBRANCH  42  45
BRANCH  43  50
HETATM   50  O11 UNL     1      11.635  10.874  -0.345  1.00  0.00    -0.390 OA
ATOM     51  H11 UNL     1      12.330  10.507  -0.880  1.00  0.00     0.210 HD
ENDBRANCH  43  50
BRANCH  44  52
HETATM   52  O12 UNL     1      12.032   8.517  -0.855  1.00  0.00    -0.388 OA
ATOM     53  H12 UNL     1      12.456   7.864  -0.309  1.00  0.00     0.210 HD
ENDBRANCH  44  52
ENDBRANCH  39  40
ENDBRANCH   6  39
BRANCH   3  54
HETATM   54  N2  UNL     1       8.286   5.692   3.755  1.00  0.00    -0.072 N 
ATOM     55  H23 UNL     1       8.045   4.824   4.232  1.00  0.00     0.274 HD
ATOM     56  H22 UNL     1       9.250   5.798   4.069  1.00  0.00     0.274 HD
ATOM     57  H21 UNL     1       7.709   6.461   4.097  1.00  0.00     0.274 HD
ENDBRANCH   3  54
BRANCH   5  58
HETATM   58  N3  UNL     1       6.854   8.154   0.012  1.00  0.00    -0.072 N 
ATOM     59  H33 UNL     1       6.301   8.538   0.779  1.00  0.00     0.274 HD
ATOM     60  H32 UNL     1       7.530   8.914  -0.066  1.00  0.00     0.274 HD
ATOM     61  H31 UNL     1       6.308   8.026  -0.839  1.00  0.00     0.274 HD
ENDBRANCH   5  58
TORSDOF 21
ENDMDL
