MODEL 1
REMARK VINA RESULT: -7.608789208      0.000      0.000
REMARK  14 active torsions:
REMARK  status: ('A' for Active; 'I' for Inactive)
REMARK    1  A    between atoms: C3_4  and  N2_5 
REMARK    2  A    between atoms: C5_9  and  C6_10 
REMARK    3  A    between atoms: C7_13  and  S1_14 
REMARK    4  A    between atoms: S1_14  and  C8_15 
REMARK    5  A    between atoms: C8_15  and  C9_16 
REMARK       I    between atoms: C9_16  and  N4_18 
REMARK    6  A    between atoms: N4_18  and  N5_20 
REMARK    7  A    between atoms: C11_26  and  C12_27 
REMARK    8  A    between atoms: C12_27  and  C13_28 
REMARK    9  A    between atoms: C13_28  and  N7_30 
REMARK   10  A    between atoms: C13_28  and  O4_34 
REMARK   11  A    between atoms: N9_39  and  N10_41 
REMARK   12  A    between atoms: N10_41  and  C16_43 
REMARK   13  A    between atoms: C16_43  and  N11_45 
REMARK   14  A    between atoms: N11_45  and  N12_47 
ROOT
HETATM    1  C6  UNL     1     220.591 -67.819  -4.527  1.00  0.00     0.159 A 
HETATM    2  N3  UNL     1     219.857 -66.913  -3.788  1.00  0.00    -0.331 N 
ATOM      3  H3  UNL     1     218.887 -67.050  -3.506  1.00  0.00     0.168 HD
HETATM    4  C7  UNL     1     220.576 -65.844  -3.497  1.00  0.00     0.117 A 
HETATM    5  C10 UNL     1     221.815 -66.058  -4.064  1.00  0.00     0.166 A 
HETATM    6  N6  UNL     1     222.878 -65.249  -4.069  1.00  0.00    -0.328 N 
ATOM      7  H6  UNL     1     222.831 -64.355  -3.579  1.00  0.00     0.168 HD
HETATM    8  C11 UNL     1     224.008 -65.589  -4.709  1.00  0.00     0.103 A 
HETATM    9  N8  UNL     1     223.993 -66.775  -5.327  1.00  0.00    -0.178 N 
ATOM     10  H8  UNL     1     224.831 -67.071  -5.826  1.00  0.00     0.185 HD
HETATM   11  C15 UNL     1     222.912 -67.606  -5.324  1.00  0.00     0.708 A 
HETATM   12  N9  UNL     1     222.968 -68.681  -6.004  1.00  0.00    -0.129 N 
ATOM     13  H9  UNL     1     222.165 -69.310  -6.009  1.00  0.00     0.205 HD
HETATM   14  N13 UNL     1     221.793 -67.245  -4.674  1.00  0.00    -0.111 N 
ENDROOT
BRANCH  12  15
HETATM   15  N10 UNL     1     224.089 -69.013  -6.732  1.00  0.00    -0.261 N 
ATOM     16  H10 UNL     1     225.006 -68.674  -6.441  1.00  0.00     0.190 HD
BRANCH  15  17
HETATM   17  C16 UNL     1     223.971 -69.827  -7.888  1.00  0.00     0.205 C 
HETATM   18  S2  UNL     1     222.881 -71.031  -7.909  1.00  0.00    -0.038 SA
BRANCH  17  19
HETATM   19  N11 UNL     1     224.801 -69.577  -9.005  1.00  0.00    -0.282 N 
ATOM     20  H11 UNL     1     224.708 -70.142  -9.848  1.00  0.00     0.189 HD
BRANCH  19  21
HETATM   21  N12 UNL     1     225.745 -68.557  -8.947  1.00  0.00    -0.343 N 
ATOM     22 2H12 UNL     1     225.452 -67.625  -8.652  1.00  0.00     0.176 HD
ATOM     23 1H12 UNL     1     226.714 -68.750  -9.198  1.00  0.00     0.176 HD
ENDBRANCH  19  21
ENDBRANCH  17  19
ENDBRANCH  15  17
ENDBRANCH  12  15
BRANCH   8  24
HETATM   24  C12 UNL     1     225.168 -64.690  -4.713  1.00  0.00     0.144 C 
BRANCH  24  25
HETATM   25  C13 UNL     1     225.836 -64.561  -3.366  1.00  0.00     0.225 C 
HETATM   26  C14 UNL     1     227.214 -65.136  -3.328  1.00  0.00     0.078 C 
BRANCH  25  27
HETATM   27  N7  UNL     1     225.920 -63.137  -3.020  1.00  0.00    -0.047 N 
ATOM     28  H73 UNL     1     225.217 -62.576  -3.500  1.00  0.00     0.278 HD
ATOM     29  H72 UNL     1     225.621 -62.949  -2.063  1.00  0.00     0.278 HD
ATOM     30  H71 UNL     1     226.870 -62.813  -3.202  1.00  0.00     0.278 HD
ENDBRANCH  25  27
BRANCH  25  31
HETATM   31  O4  UNL     1     225.085 -65.154  -2.351  1.00  0.00    -0.365 OA
ATOM     32  H4  UNL     1     225.491 -65.046  -1.498  1.00  0.00     0.212 HD
ENDBRANCH  25  31
ENDBRANCH  24  25
ENDBRANCH   8  24
BRANCH   1  33
HETATM   33  C5  UNL     1     220.019 -69.056  -5.039  1.00  0.00     0.082 A 
HETATM   34  N1  UNL     1     219.563 -70.133  -4.424  1.00  0.00    -0.356 N 
HETATM   35  C1  UNL     1     219.506 -70.477  -2.984  1.00  0.00     0.156 C 
HETATM   36  C2  UNL     1     218.998 -70.965  -5.357  1.00  0.00     0.127 A 
HETATM   37  C3  UNL     1     219.092 -70.402  -6.600  1.00  0.00     0.120 A 
HETATM   38  C4  UNL     1     219.729 -69.208  -6.412  1.00  0.00     0.071 A 
BRANCH  37  39
HETATM   39  N2  UNL     1     218.616 -70.963  -7.835  1.00  0.00    -0.114 N 
HETATM   40  O1  UNL     1     217.746 -71.851  -7.858  1.00  0.00    -0.532 OA
HETATM   41  O2  UNL     1     219.117 -70.527  -9.035  1.00  0.00    -0.532 OA
ENDBRANCH  37  39
ENDBRANCH   1  33
BRANCH   4  42
HETATM   42  S1  UNL     1     220.058 -64.418  -2.562  1.00  0.00    -0.099 SA
BRANCH  42  43
HETATM   43  C8  UNL     1     221.300 -64.070  -1.310  1.00  0.00     0.185 C 
BRANCH  43  44
HETATM   44  C9  UNL     1     221.998 -62.808  -1.503  1.00  0.00     0.245 C 
HETATM   45  O3  UNL     1     223.118 -62.867  -2.118  1.00  0.00    -0.271 OA
HETATM   46  N4  UNL     1     221.517 -61.575  -1.067  1.00  0.00    -0.276 N 
ATOM     47  H4  UNL     1     220.622 -61.512  -0.582  1.00  0.00     0.189 HD
BRANCH  46  48
HETATM   48  N5  UNL     1     222.289 -60.409  -1.306  1.00  0.00    -0.343 N 
ATOM     49  H52 UNL     1     223.286 -60.498  -1.498  1.00  0.00     0.176 HD
ATOM     50  H51 UNL     1     221.832 -59.497  -1.281  1.00  0.00     0.176 HD
ENDBRANCH  46  48
ENDBRANCH  43  44
ENDBRANCH  42  43
ENDBRANCH   4  42
TORSDOF 14
ENDMDL
MODEL 2
REMARK VINA RESULT: -7.537887504      2.861      6.432
REMARK  14 active torsions:
REMARK  status: ('A' for Active; 'I' for Inactive)
REMARK    1  A    between atoms: C3_4  and  N2_5 
REMARK    2  A    between atoms: C5_9  and  C6_10 
REMARK    3  A    between atoms: C7_13  and  S1_14 
REMARK    4  A    between atoms: S1_14  and  C8_15 
REMARK    5  A    between atoms: C8_15  and  C9_16 
REMARK       I    between atoms: C9_16  and  N4_18 
REMARK    6  A    between atoms: N4_18  and  N5_20 
REMARK    7  A    between atoms: C11_26  and  C12_27 
REMARK    8  A    between atoms: C12_27  and  C13_28 
REMARK    9  A    between atoms: C13_28  and  N7_30 
REMARK   10  A    between atoms: C13_28  and  O4_34 
REMARK   11  A    between atoms: N9_39  and  N10_41 
REMARK   12  A    between atoms: N10_41  and  C16_43 
REMARK   13  A    between atoms: C16_43  and  N11_45 
REMARK   14  A    between atoms: N11_45  and  N12_47 
ROOT
HETATM    1  C6  UNL     1     219.531 -69.296  -3.857  1.00  0.00     0.159 A 
HETATM    2  N3  UNL     1     219.909 -70.146  -4.877  1.00  0.00    -0.331 N 
ATOM      3  H3  UNL     1     219.660 -71.134  -4.926  1.00  0.00     0.168 HD
HETATM    4  C7  UNL     1     220.635 -69.513  -5.779  1.00  0.00     0.117 A 
HETATM    5  C10 UNL     1     220.737 -68.211  -5.333  1.00  0.00     0.166 A 
HETATM    6  N6  UNL     1     221.400 -67.191  -5.887  1.00  0.00    -0.328 N 
ATOM      7  H6  UNL     1     221.887 -67.332  -6.773  1.00  0.00     0.168 HD
HETATM    8  C11 UNL     1     221.435 -65.984  -5.301  1.00  0.00     0.103 A 
HETATM    9  N8  UNL     1     220.773 -65.879  -4.144  1.00  0.00    -0.178 N 
ATOM     10  H8  UNL     1     220.776 -64.979  -3.665  1.00  0.00     0.185 HD
HETATM   11  C15 UNL     1     220.094 -66.915  -3.574  1.00  0.00     0.708 A 
HETATM   12  N9  UNL     1     219.556 -66.737  -2.434  1.00  0.00    -0.129 N 
ATOM     13  H9  UNL     1     219.046 -67.505  -1.998  1.00  0.00     0.205 HD
HETATM   14  N13 UNL     1     220.069 -68.113  -4.182  1.00  0.00    -0.111 N 
ENDROOT
BRANCH  12  15
HETATM   15  N10 UNL     1     219.648 -65.530  -1.777  1.00  0.00    -0.261 N 
ATOM     16  H10 UNL     1     218.932 -64.816  -1.918  1.00  0.00     0.190 HD
BRANCH  15  17
HETATM   17  C16 UNL     1     220.736 -65.277  -0.902  1.00  0.00     0.205 C 
HETATM   18  S2  UNL     1     221.044 -66.312   0.311  1.00  0.00    -0.038 SA
BRANCH  17  19
HETATM   19  N11 UNL     1     221.537 -64.129  -1.101  1.00  0.00    -0.282 N 
ATOM     20  H11 UNL     1     222.502 -64.114  -0.770  1.00  0.00     0.189 HD
BRANCH  19  21
HETATM   21  N12 UNL     1     221.004 -63.020  -1.750  1.00  0.00    -0.343 N 
ATOM     22 2H12 UNL     1     220.342 -63.162  -2.513  1.00  0.00     0.176 HD
ATOM     23 1H12 UNL     1     221.279 -62.083  -1.458  1.00  0.00     0.176 HD
ENDBRANCH  19  21
ENDBRANCH  17  19
ENDBRANCH  15  17
ENDBRANCH  12  15
BRANCH   8  24
HETATM   24  C12 UNL     1     222.171 -64.873  -5.916  1.00  0.00     0.144 C 
BRANCH  24  25
HETATM   25  C13 UNL     1     223.356 -64.413  -5.104  1.00  0.00     0.225 C 
HETATM   26  C14 UNL     1     224.300 -65.514  -4.750  1.00  0.00     0.078 C 
BRANCH  25  27
HETATM   27  N7  UNL     1     224.092 -63.407  -5.880  1.00  0.00    -0.047 N 
ATOM     28  H73 UNL     1     225.092 -63.409  -5.675  1.00  0.00     0.278 HD
ATOM     29  H72 UNL     1     224.152 -63.643  -6.870  1.00  0.00     0.278 HD
ATOM     30  H71 UNL     1     223.663 -62.495  -5.722  1.00  0.00     0.278 HD
ENDBRANCH  25  27
BRANCH  25  31
HETATM   31  O4  UNL     1     222.968 -63.772  -3.928  1.00  0.00    -0.365 OA
ATOM     32  H4  UNL     1     223.194 -64.278  -3.155  1.00  0.00     0.212 HD
ENDBRANCH  25  31
ENDBRANCH  24  25
ENDBRANCH   8  24
BRANCH   1  33
HETATM   33  C5  UNL     1     218.779 -69.753  -2.697  1.00  0.00     0.082 A 
HETATM   34  N1  UNL     1     219.150 -70.011  -1.456  1.00  0.00    -0.356 N 
HETATM   35  C1  UNL     1     220.483 -69.959  -0.812  1.00  0.00     0.156 C 
HETATM   36  C2  UNL     1     218.031 -70.279  -0.709  1.00  0.00     0.127 A 
HETATM   37  C3  UNL     1     216.914 -70.185  -1.494  1.00  0.00     0.120 A 
HETATM   38  C4  UNL     1     217.371 -69.856  -2.740  1.00  0.00     0.071 A 
BRANCH  37  39
HETATM   39  N2  UNL     1     215.554 -70.392  -1.080  1.00  0.00    -0.114 N 
HETATM   40  O1  UNL     1     214.605 -69.815  -1.638  1.00  0.00    -0.532 OA
HETATM   41  O2  UNL     1     215.265 -71.245  -0.045  1.00  0.00    -0.532 OA
ENDBRANCH  37  39
ENDBRANCH   1  33
BRANCH   4  42
HETATM   42  S1  UNL     1     221.340 -70.193  -7.268  1.00  0.00    -0.099 SA
BRANCH  42  43
HETATM   43  C8  UNL     1     223.075 -70.553  -6.970  1.00  0.00     0.185 C 
BRANCH  43  44
HETATM   44  C9  UNL     1     223.988 -69.542  -7.483  1.00  0.00     0.245 C 
HETATM   45  O3  UNL     1     224.094 -68.470  -6.793  1.00  0.00    -0.271 OA
HETATM   46  N4  UNL     1     224.732 -69.684  -8.652  1.00  0.00    -0.276 N 
ATOM     47  H4  UNL     1     224.664 -70.537  -9.208  1.00  0.00     0.189 HD
BRANCH  46  48
HETATM   48  N5  UNL     1     225.587 -68.628  -9.059  1.00  0.00    -0.343 N 
ATOM     49  H52 UNL     1     225.306 -68.024  -9.832  1.00  0.00     0.176 HD
ATOM     50  H51 UNL     1     226.471 -68.488  -8.570  1.00  0.00     0.176 HD
ENDBRANCH  46  48
ENDBRANCH  43  44
ENDBRANCH  42  43
ENDBRANCH   4  42
TORSDOF 14
ENDMDL
MODEL 3
REMARK VINA RESULT: -7.494034425      3.863     10.305
REMARK  14 active torsions:
REMARK  status: ('A' for Active; 'I' for Inactive)
REMARK    1  A    between atoms: C3_4  and  N2_5 
REMARK    2  A    between atoms: C5_9  and  C6_10 
REMARK    3  A    between atoms: C7_13  and  S1_14 
REMARK    4  A    between atoms: S1_14  and  C8_15 
REMARK    5  A    between atoms: C8_15  and  C9_16 
REMARK       I    between atoms: C9_16  and  N4_18 
REMARK    6  A    between atoms: N4_18  and  N5_20 
REMARK    7  A    between atoms: C11_26  and  C12_27 
REMARK    8  A    between atoms: C12_27  and  C13_28 
REMARK    9  A    between atoms: C13_28  and  N7_30 
REMARK   10  A    between atoms: C13_28  and  O4_34 
REMARK   11  A    between atoms: N9_39  and  N10_41 
REMARK   12  A    between atoms: N10_41  and  C16_43 
REMARK   13  A    between atoms: C16_43  and  N11_45 
REMARK   14  A    between atoms: N11_45  and  N12_47 
ROOT
HETATM    1  C6  UNL     1     224.921 -62.499  -2.181  1.00  0.00     0.159 A 
HETATM    2  N3  UNL     1     225.376 -62.994  -3.388  1.00  0.00    -0.331 N 
ATOM      3  H3  UNL     1     226.342 -62.934  -3.708  1.00  0.00     0.168 HD
HETATM    4  C7  UNL     1     224.396 -63.554  -4.072  1.00  0.00     0.117 A 
HETATM    5  C10 UNL     1     223.267 -63.419  -3.291  1.00  0.00     0.166 A 
HETATM    6  N6  UNL     1     222.015 -63.801  -3.563  1.00  0.00    -0.328 N 
ATOM      7  H6  UNL     1     221.820 -64.288  -4.438  1.00  0.00     0.168 HD
HETATM    8  C11 UNL     1     221.011 -63.556  -2.707  1.00  0.00     0.103 A 
HETATM    9  N8  UNL     1     221.348 -62.914  -1.583  1.00  0.00    -0.178 N 
ATOM     10  H8  UNL     1     220.614 -62.707  -0.906  1.00  0.00     0.185 HD
HETATM   11  C15 UNL     1     222.622 -62.523  -1.298  1.00  0.00     0.708 A 
HETATM   12  N9  UNL     1     222.830 -61.853  -0.236  1.00  0.00    -0.129 N 
ATOM     13  H9  UNL     1     223.780 -61.555  -0.013  1.00  0.00     0.205 HD
HETATM   14  N13 UNL     1     223.612 -62.783  -2.169  1.00  0.00    -0.111 N 
ENDROOT
BRANCH  12  15
HETATM   15  N10 UNL     1     221.802 -61.521   0.618  1.00  0.00    -0.261 N 
ATOM     16  H10 UNL     1     220.847 -61.807   0.402  1.00  0.00     0.190 HD
BRANCH  15  17
HETATM   17  C16 UNL     1     222.069 -60.782   1.800  1.00  0.00     0.205 C 
HETATM   18  S2  UNL     1     223.169 -59.588   1.764  1.00  0.00    -0.038 SA
BRANCH  17  19
HETATM   19  N11 UNL     1     221.373 -61.096   2.990  1.00  0.00    -0.282 N 
ATOM     20  H11 UNL     1     221.392 -60.450   3.779  1.00  0.00     0.189 HD
BRANCH  19  21
HETATM   21  N12 UNL     1     220.662 -62.288   3.079  1.00  0.00    -0.343 N 
ATOM     22 2H12 UNL     1     221.088 -63.087   3.549  1.00  0.00     0.176 HD
ATOM     23 1H12 UNL     1     219.727 -62.350   2.676  1.00  0.00     0.176 HD
ENDBRANCH  19  21
ENDBRANCH  17  19
ENDBRANCH  15  17
ENDBRANCH  12  15
BRANCH   8  24
HETATM   24  C12 UNL     1     219.640 -63.975  -3.020  1.00  0.00     0.144 C 
BRANCH  24  25
HETATM   25  C13 UNL     1     219.342 -65.401  -2.629  1.00  0.00     0.225 C 
HETATM   26  C14 UNL     1     220.057 -66.410  -3.465  1.00  0.00     0.078 C 
BRANCH  25  27
HETATM   27  N7  UNL     1     219.741 -65.595  -1.229  1.00  0.00    -0.047 N 
ATOM     28  H73 UNL     1     220.635 -65.153  -1.013  1.00  0.00     0.278 HD
ATOM     29  H72 UNL     1     219.162 -65.064  -0.580  1.00  0.00     0.278 HD
ATOM     30  H71 UNL     1     219.740 -66.595  -1.026  1.00  0.00     0.278 HD
ENDBRANCH  25  27
BRANCH  25  31
HETATM   31  O4  UNL     1     217.976 -65.682  -2.674  1.00  0.00    -0.365 OA
ATOM     32  H4  UNL     1     217.611 -65.537  -3.539  1.00  0.00     0.212 HD
ENDBRANCH  25  31
ENDBRANCH  24  25
ENDBRANCH   8  24
BRANCH   1  33
HETATM   33  C5  UNL     1     225.782 -61.772  -1.260  1.00  0.00     0.082 A 
HETATM   34  N1  UNL     1     226.556 -62.184  -0.272  1.00  0.00    -0.356 N 
HETATM   35  C1  UNL     1     226.795 -63.540   0.273  1.00  0.00     0.156 C 
HETATM   36  C2  UNL     1     227.273 -61.113   0.201  1.00  0.00     0.127 A 
HETATM   37  C3  UNL     1     226.950 -59.988  -0.508  1.00  0.00     0.120 A 
HETATM   38  C4  UNL     1     226.019 -60.390  -1.425  1.00  0.00     0.071 A 
BRANCH  37  39
HETATM   39  N2  UNL     1     227.487 -58.669  -0.317  1.00  0.00    -0.114 N 
HETATM   40  O1  UNL     1     226.762 -57.660  -0.327  1.00  0.00    -0.532 OA
HETATM   41  O2  UNL     1     228.832 -58.489  -0.114  1.00  0.00    -0.532 OA
ENDBRANCH  37  39
ENDBRANCH   1  33
BRANCH   4  42
HETATM   42  S1  UNL     1     224.503 -64.328  -5.673  1.00  0.00    -0.099 SA
BRANCH  42  43
HETATM   43  C8  UNL     1     224.250 -66.096  -5.475  1.00  0.00     0.185 C 
BRANCH  43  44
HETATM   44  C9  UNL     1     224.762 -66.897  -6.577  1.00  0.00     0.245 C 
HETATM   45  O3  UNL     1     225.737 -66.396  -7.237  1.00  0.00    -0.271 OA
HETATM   46  N4  UNL     1     224.259 -68.146  -6.934  1.00  0.00    -0.276 N 
ATOM     47  H4  UNL     1     223.487 -68.560  -6.412  1.00  0.00     0.189 HD
BRANCH  46  48
HETATM   48  N5  UNL     1     224.834 -68.833  -8.033  1.00  0.00    -0.343 N 
ATOM     49  H52 UNL     1     225.281 -69.738  -7.882  1.00  0.00     0.176 HD
ATOM     50  H51 UNL     1     224.791 -68.411  -8.961  1.00  0.00     0.176 HD
ENDBRANCH  46  48
ENDBRANCH  43  44
ENDBRANCH  42  43
ENDBRANCH   4  42
TORSDOF 14
ENDMDL
MODEL 4
REMARK VINA RESULT: -7.422689929      2.434      8.354
REMARK  14 active torsions:
REMARK  status: ('A' for Active; 'I' for Inactive)
REMARK    1  A    between atoms: C3_4  and  N2_5 
REMARK    2  A    between atoms: C5_9  and  C6_10 
REMARK    3  A    between atoms: C7_13  and  S1_14 
REMARK    4  A    between atoms: S1_14  and  C8_15 
REMARK    5  A    between atoms: C8_15  and  C9_16 
REMARK       I    between atoms: C9_16  and  N4_18 
REMARK    6  A    between atoms: N4_18  and  N5_20 
REMARK    7  A    between atoms: C11_26  and  C12_27 
REMARK    8  A    between atoms: C12_27  and  C13_28 
REMARK    9  A    between atoms: C13_28  and  N7_30 
REMARK   10  A    between atoms: C13_28  and  O4_34 
REMARK   11  A    between atoms: N9_39  and  N10_41 
REMARK   12  A    between atoms: N10_41  and  C16_43 
REMARK   13  A    between atoms: C16_43  and  N11_45 
REMARK   14  A    between atoms: N11_45  and  N12_47 
ROOT
HETATM    1  C6  UNL     1     223.240 -67.008  -5.260  1.00  0.00     0.159 A 
HETATM    2  N3  UNL     1     223.651 -68.053  -6.063  1.00  0.00    -0.331 N 
ATOM      3  H3  UNL     1     224.366 -67.979  -6.786  1.00  0.00     0.168 HD
HETATM    4  C7  UNL     1     222.995 -69.162  -5.773  1.00  0.00     0.117 A 
HETATM    5  C10 UNL     1     222.128 -68.830  -4.752  1.00  0.00     0.166 A 
HETATM    6  N6  UNL     1     221.230 -69.606  -4.137  1.00  0.00    -0.328 N 
ATOM      7  H6  UNL     1     221.155 -70.589  -4.398  1.00  0.00     0.168 HD
HETATM    8  C11 UNL     1     220.425 -69.115  -3.182  1.00  0.00     0.103 A 
HETATM    9  N8  UNL     1     220.584 -67.819  -2.896  1.00  0.00    -0.178 N 
ATOM     10  H8  UNL     1     219.990 -67.406  -2.177  1.00  0.00     0.185 HD
HETATM   11  C15 UNL     1     221.498 -67.022  -3.518  1.00  0.00     0.708 A 
HETATM   12  N9  UNL     1     221.523 -65.782  -3.229  1.00  0.00    -0.129 N 
ATOM     13  H9  UNL     1     222.203 -65.177  -3.689  1.00  0.00     0.205 HD
HETATM   14  N13 UNL     1     222.296 -67.537  -4.469  1.00  0.00    -0.111 N 
ENDROOT
BRANCH  12  15
HETATM   15  N10 UNL     1     220.652 -65.241  -2.309  1.00  0.00    -0.261 N 
ATOM     16  H10 UNL     1     219.700 -65.598  -2.236  1.00  0.00     0.190 HD
BRANCH  15  17
HETATM   17  C16 UNL     1     221.079 -64.186  -1.461  1.00  0.00     0.205 C 
HETATM   18  S2  UNL     1     221.828 -64.537  -0.064  1.00  0.00    -0.038 SA
BRANCH  17  19
HETATM   19  N11 UNL     1     220.846 -62.846  -1.847  1.00  0.00    -0.282 N 
ATOM     20  H11 UNL     1     220.266 -62.640  -2.660  1.00  0.00     0.189 HD
BRANCH  19  21
HETATM   21  N12 UNL     1     221.412 -61.809  -1.112  1.00  0.00    -0.343 N 
ATOM     22 2H12 UNL     1     222.110 -61.210  -1.553  1.00  0.00     0.176 HD
ATOM     23 1H12 UNL     1     221.125 -61.659  -0.145  1.00  0.00     0.176 HD
ENDBRANCH  19  21
ENDBRANCH  17  19
ENDBRANCH  15  17
ENDBRANCH  12  15
BRANCH   8  24
HETATM   24  C12 UNL     1     219.439 -69.976  -2.517  1.00  0.00     0.144 C 
BRANCH  24  25
HETATM   25  C13 UNL     1     218.089 -69.974  -3.189  1.00  0.00     0.225 C 
HETATM   26  C14 UNL     1     217.548 -71.343  -3.443  1.00  0.00     0.078 C 
BRANCH  25  27
HETATM   27  N7  UNL     1     217.139 -69.255  -2.330  1.00  0.00    -0.047 N 
ATOM     28  H73 UNL     1     217.231 -69.512  -1.347  1.00  0.00     0.278 HD
ATOM     29  H72 UNL     1     217.367 -68.266  -2.239  1.00  0.00     0.278 HD
ATOM     30  H71 UNL     1     216.196 -69.408  -2.688  1.00  0.00     0.278 HD
ENDBRANCH  25  27
BRANCH  25  31
HETATM   31  O4  UNL     1     218.106 -69.279  -4.398  1.00  0.00    -0.365 OA
ATOM     32  H4  UNL     1     218.667 -69.696  -5.041  1.00  0.00     0.212 HD
ENDBRANCH  25  31
ENDBRANCH  24  25
ENDBRANCH   8  24
BRANCH   1  33
HETATM   33  C5  UNL     1     223.754 -65.655  -5.414  1.00  0.00     0.082 A 
HETATM   34  N1  UNL     1     224.603 -64.950  -4.687  1.00  0.00    -0.356 N 
HETATM   35  C1  UNL     1     225.309 -65.281  -3.428  1.00  0.00     0.156 C 
HETATM   36  C2  UNL     1     224.867 -63.772  -5.339  1.00  0.00     0.127 A 
HETATM   37  C3  UNL     1     224.171 -63.726  -6.516  1.00  0.00     0.120 A 
HETATM   38  C4  UNL     1     223.472 -64.899  -6.573  1.00  0.00     0.071 A 
BRANCH  37  39
HETATM   39  N2  UNL     1     224.184 -62.659  -7.479  1.00  0.00    -0.114 N 
HETATM   40  O1  UNL     1     225.030 -61.750  -7.437  1.00  0.00    -0.532 OA
HETATM   41  O2  UNL     1     223.249 -62.619  -8.483  1.00  0.00    -0.532 OA
ENDBRANCH  37  39
ENDBRANCH   1  33
BRANCH   4  42
HETATM   42  S1  UNL     1     223.186 -70.760  -6.537  1.00  0.00    -0.099 SA
BRANCH  42  43
HETATM   43  C8  UNL     1     223.076 -70.562  -8.320  1.00  0.00     0.185 C 
BRANCH  43  44
HETATM   44  C9  UNL     1     221.714 -70.550  -8.832  1.00  0.00     0.245 C 
HETATM   45  O3  UNL     1     221.553 -70.978 -10.027  1.00  0.00    -0.271 OA
HETATM   46  N4  UNL     1     220.610 -70.113  -8.104  1.00  0.00    -0.276 N 
ATOM     47  H4  UNL     1     220.722 -69.777  -7.148  1.00  0.00     0.189 HD
BRANCH  46  48
HETATM   48  N5  UNL     1     219.328 -70.141  -8.710  1.00  0.00    -0.343 N 
ATOM     49  H52 UNL     1     218.964 -71.021  -9.075  1.00  0.00     0.176 HD
ATOM     50  H51 UNL     1     218.788 -69.277  -8.771  1.00  0.00     0.176 HD
ENDBRANCH  46  48
ENDBRANCH  43  44
ENDBRANCH  42  43
ENDBRANCH   4  42
TORSDOF 14
ENDMDL
MODEL 5
REMARK VINA RESULT: -7.405034883      4.087      7.016
REMARK  14 active torsions:
REMARK  status: ('A' for Active; 'I' for Inactive)
REMARK    1  A    between atoms: C3_4  and  N2_5 
REMARK    2  A    between atoms: C5_9  and  C6_10 
REMARK    3  A    between atoms: C7_13  and  S1_14 
REMARK    4  A    between atoms: S1_14  and  C8_15 
REMARK    5  A    between atoms: C8_15  and  C9_16 
REMARK       I    between atoms: C9_16  and  N4_18 
REMARK    6  A    between atoms: N4_18  and  N5_20 
REMARK    7  A    between atoms: C11_26  and  C12_27 
REMARK    8  A    between atoms: C12_27  and  C13_28 
REMARK    9  A    between atoms: C13_28  and  N7_30 
REMARK   10  A    between atoms: C13_28  and  O4_34 
REMARK   11  A    between atoms: N9_39  and  N10_41 
REMARK   12  A    between atoms: N10_41  and  C16_43 
REMARK   13  A    between atoms: C16_43  and  N11_45 
REMARK   14  A    between atoms: N11_45  and  N12_47 
ROOT
HETATM    1  C6  UNL     1     223.584 -63.457  -2.762  1.00  0.00     0.159 A 
HETATM    2  N3  UNL     1     224.343 -62.312  -2.902  1.00  0.00    -0.331 N 
ATOM      3  H3  UNL     1     224.746 -61.992  -3.783  1.00  0.00     0.168 HD
HETATM    4  C7  UNL     1     224.478 -61.687  -1.748  1.00  0.00     0.117 A 
HETATM    5  C10 UNL     1     223.790 -62.447  -0.825  1.00  0.00     0.166 A 
HETATM    6  N6  UNL     1     223.659 -62.244   0.490  1.00  0.00    -0.328 N 
ATOM      7  H6  UNL     1     224.079 -61.416   0.913  1.00  0.00     0.168 HD
HETATM    8  C11 UNL     1     222.985 -63.109   1.263  1.00  0.00     0.103 A 
HETATM    9  N8  UNL     1     222.464 -64.168   0.635  1.00  0.00    -0.178 N 
ATOM     10  H8  UNL     1     221.945 -64.851   1.187  1.00  0.00     0.185 HD
HETATM   11  C15 UNL     1     222.592 -64.381  -0.705  1.00  0.00     0.708 A 
HETATM   12  N9  UNL     1     222.124 -65.457  -1.199  1.00  0.00    -0.129 N 
ATOM     13  H9  UNL     1     222.215 -65.627  -2.201  1.00  0.00     0.205 HD
HETATM   14  N13 UNL     1     223.268 -63.499  -1.460  1.00  0.00    -0.111 N 
ENDROOT
BRANCH  12  15
HETATM   15  N10 UNL     1     221.498 -66.397  -0.411  1.00  0.00    -0.261 N 
ATOM     16  H10 UNL     1     221.951 -66.735   0.438  1.00  0.00     0.190 HD
BRANCH  15  17
HETATM   17  C16 UNL     1     220.221 -66.897  -0.778  1.00  0.00     0.205 C 
HETATM   18  S2  UNL     1     220.009 -68.498  -0.948  1.00  0.00    -0.038 SA
BRANCH  17  19
HETATM   19  N11 UNL     1     219.154 -65.994  -0.989  1.00  0.00    -0.282 N 
ATOM     20  H11 UNL     1     218.926 -65.297  -0.281  1.00  0.00     0.189 HD
BRANCH  19  21
HETATM   21  N12 UNL     1     218.417 -66.061  -2.167  1.00  0.00    -0.343 N 
ATOM     22 2H12 UNL     1     218.455 -66.911  -2.729  1.00  0.00     0.176 HD
ATOM     23 1H12 UNL     1     217.850 -65.263  -2.453  1.00  0.00     0.176 HD
ENDBRANCH  19  21
ENDBRANCH  17  19
ENDBRANCH  15  17
ENDBRANCH  12  15
BRANCH   8  24
HETATM   24  C12 UNL     1     222.852 -62.878   2.707  1.00  0.00     0.144 C 
BRANCH  24  25
HETATM   25  C13 UNL     1     221.437 -62.591   3.144  1.00  0.00     0.225 C 
HETATM   26  C14 UNL     1     221.285 -62.465   4.624  1.00  0.00     0.078 C 
BRANCH  25  27
HETATM   27  N7  UNL     1     221.004 -61.330   2.527  1.00  0.00    -0.047 N 
ATOM     28  H73 UNL     1     221.395 -61.198   1.594  1.00  0.00     0.278 HD
ATOM     29  H72 UNL     1     220.019 -61.341   2.267  1.00  0.00     0.278 HD
ATOM     30  H71 UNL     1     221.234 -60.563   3.159  1.00  0.00     0.278 HD
ENDBRANCH  25  27
BRANCH  25  31
HETATM   31  O4  UNL     1     220.542 -63.560   2.691  1.00  0.00    -0.365 OA
ATOM     32  H4  UNL     1     220.237 -63.380   1.809  1.00  0.00     0.212 HD
ENDBRANCH  25  31
ENDBRANCH  24  25
ENDBRANCH   8  24
BRANCH   1  33
HETATM   33  C5  UNL     1     223.335 -64.370  -3.868  1.00  0.00     0.082 A 
HETATM   34  N1  UNL     1     222.235 -64.652  -4.543  1.00  0.00    -0.356 N 
HETATM   35  C1  UNL     1     220.848 -64.158  -4.387  1.00  0.00     0.156 C 
HETATM   36  C2  UNL     1     222.561 -65.481  -5.587  1.00  0.00     0.127 A 
HETATM   37  C3  UNL     1     223.906 -65.732  -5.580  1.00  0.00     0.120 A 
HETATM   38  C4  UNL     1     224.400 -65.041  -4.509  1.00  0.00     0.071 A 
BRANCH  37  39
HETATM   39  N2  UNL     1     224.631 -66.552  -6.511  1.00  0.00    -0.114 N 
HETATM   40  O1  UNL     1     224.232 -67.683  -6.835  1.00  0.00    -0.532 OA
HETATM   41  O2  UNL     1     225.798 -66.099  -7.073  1.00  0.00    -0.532 OA
ENDBRANCH  37  39
ENDBRANCH   1  33
BRANCH   4  42
HETATM   42  S1  UNL     1     225.364 -60.172  -1.438  1.00  0.00    -0.099 SA
BRANCH  42  43
HETATM   43  C8  UNL     1     224.253 -59.010  -0.634  1.00  0.00     0.185 C 
BRANCH  43  44
HETATM   44  C9  UNL     1     224.387 -58.967   0.814  1.00  0.00     0.245 C 
HETATM   45  O3  UNL     1     223.394 -59.406   1.490  1.00  0.00    -0.271 OA
HETATM   46  N4  UNL     1     225.514 -58.489   1.480  1.00  0.00    -0.276 N 
ATOM     47  H4  UNL     1     226.317 -58.144   0.954  1.00  0.00     0.189 HD
BRANCH  46  48
HETATM   48  N5  UNL     1     225.531 -58.490   2.898  1.00  0.00    -0.343 N 
ATOM     49  H52 UNL     1     224.772 -58.940   3.409  1.00  0.00     0.176 HD
ATOM     50  H51 UNL     1     226.304 -58.037   3.386  1.00  0.00     0.176 HD
ENDBRANCH  46  48
ENDBRANCH  43  44
ENDBRANCH  42  43
ENDBRANCH   4  42
TORSDOF 14
ENDMDL
