MODEL 1
REMARK VINA RESULT: -8.855784037      0.000      0.000
REMARK  10 active torsions:
REMARK  status: ('A' for Active; 'I' for Inactive)
REMARK    1  A    between atoms: S1_2  and  C2_3 
REMARK    2  A    between atoms: C2_3  and  C3_4 
REMARK       I    between atoms: C3_4  and  N1_6 
REMARK    3  A    between atoms: N1_6  and  C4_8 
REMARK    4  A    between atoms: C7_14  and  O2_15 
REMARK    5  A    between atoms: O2_15  and  C8_16 
REMARK    6  A    between atoms: C10_18  and  O3_19 
REMARK    7  A    between atoms: C12_23  and  O5_24 
REMARK    8  A    between atoms: C13_26  and  O6_27 
REMARK    9  A    between atoms: O6_27  and  C14_28 
REMARK   10  A    between atoms: C20_35  and  O8_36 
ROOT
HETATM    1  C4  UNL     1      30.461   5.471  12.062  1.00  0.00     0.146 C 
HETATM    2  C5  UNL     1      29.817   6.715  12.603  1.00  0.00     0.210 C 
HETATM    3  C6  UNL     1      30.915   7.645  13.075  1.00  0.00     0.042 C 
HETATM    4  N2  UNL     1      29.012   7.414  11.662  1.00  0.00    -0.040 N 
ATOM      5  H21 UNL     1      29.459   7.446  10.744  1.00  0.00     0.280 HD
ATOM      6  H22 UNL     1      28.990   8.413  11.864  1.00  0.00     0.280 HD
HETATM    7  C7  UNL     1      27.696   6.873  11.578  1.00  0.00     0.355 C 
HETATM    8  C12 UNL     1      27.562   5.753  10.550  1.00  0.00     0.206 C 
HETATM    9  C13 UNL     1      28.887   5.100  10.232  1.00  0.00     0.185 C 
HETATM   10  C20 UNL     1      29.460   4.502  11.477  1.00  0.00     0.174 C 
ENDROOT
BRANCH   7  11
HETATM   11  O2  UNL     1      26.727   7.816  11.339  1.00  0.00    -0.326 OA
BRANCH  11  12
HETATM   12  C8  UNL     1      25.532   7.417  11.881  1.00  0.00     0.265 C 
HETATM   13  C9  UNL     1      24.335   7.876  11.085  1.00  0.00     0.094 C 
HETATM   14  C10 UNL     1      23.477   8.539  12.138  1.00  0.00     0.146 C 
HETATM   15  C11 UNL     1      24.532   8.979  13.140  1.00  0.00     0.202 C 
HETATM   16  O4  UNL     1      25.412   7.929  13.163  1.00  0.00    -0.359 OA
BRANCH  14  17
HETATM   17  O3  UNL     1      22.582   7.666  12.732  1.00  0.00    -0.393 OA
ATOM     18  H3  UNL     1      21.734   8.061  12.895  1.00  0.00     0.210 HD
ENDBRANCH  14  17
ENDBRANCH  11  12
ENDBRANCH   7  11
BRANCH   8  19
HETATM   19  O5  UNL     1      27.028   6.354   9.412  1.00  0.00    -0.388 OA
ATOM     20  H5  UNL     1      27.735   6.367   8.778  1.00  0.00     0.210 HD
ENDBRANCH   8  19
BRANCH   9  21
HETATM   21  O6  UNL     1      28.750   4.238   9.178  1.00  0.00    -0.373 OA
BRANCH  21  22
HETATM   22  C14 UNL     1      29.516   4.463   8.071  1.00  0.00     0.145 C 
HETATM   23  C15 UNL     1      30.742   3.551   8.243  1.00  0.00     0.034 C 
HETATM   24  C16 UNL     1      31.578   3.454   7.014  1.00  0.00     0.005 C 
HETATM   25  C17 UNL     1      31.126   2.209   6.269  1.00  0.00     0.026 C 
HETATM   26  C18 UNL     1      29.871   2.538   5.518  1.00  0.00     0.167 C 
HETATM   27  O7  UNL     1      29.543   3.861   5.722  1.00  0.00    -0.389 OA
HETATM   28  C19 UNL     1      28.736   4.072   6.838  1.00  0.00     0.199 C 
ENDBRANCH  21  22
ENDBRANCH   9  21
BRANCH   1  29
HETATM   29  N1  UNL     1      31.167   4.820  13.160  1.00  0.00    -0.351 N 
HETATM   30  C3  UNL     1      32.126   3.795  12.940  1.00  0.00     0.227 C 
HETATM   31  O1  UNL     1      32.409   3.402  11.785  1.00  0.00    -0.273 OA
ATOM     32  H1  UNL     1      30.965   5.109  14.117  1.00  0.00     0.163 HD
BRANCH  30  33
HETATM   33  C2  UNL     1      32.813   3.168  14.092  1.00  0.00     0.176 C 
BRANCH  33  34
HETATM   34  S1  UNL     1      31.681   2.620  15.368  1.00  0.00    -0.164 SA
HETATM   35  C1  UNL     1      30.226   3.738  15.360  1.00  0.00     0.090 C 
ENDBRANCH  33  34
ENDBRANCH  30  33
ENDBRANCH   1  29
BRANCH  10  36
HETATM   36  O8  UNL     1      28.556   4.156  12.439  1.00  0.00    -0.391 OA
ATOM     37  H8  UNL     1      27.712   3.998  12.033  1.00  0.00     0.210 HD
ENDBRANCH  10  36
TORSDOF 10
ENDMDL
MODEL 2
REMARK VINA RESULT: -8.104432208      1.033      1.140
REMARK  10 active torsions:
REMARK  status: ('A' for Active; 'I' for Inactive)
REMARK    1  A    between atoms: S1_2  and  C2_3 
REMARK    2  A    between atoms: C2_3  and  C3_4 
REMARK       I    between atoms: C3_4  and  N1_6 
REMARK    3  A    between atoms: N1_6  and  C4_8 
REMARK    4  A    between atoms: C7_14  and  O2_15 
REMARK    5  A    between atoms: O2_15  and  C8_16 
REMARK    6  A    between atoms: C10_18  and  O3_19 
REMARK    7  A    between atoms: C12_23  and  O5_24 
REMARK    8  A    between atoms: C13_26  and  O6_27 
REMARK    9  A    between atoms: O6_27  and  C14_28 
REMARK   10  A    between atoms: C20_35  and  O8_36 
ROOT
HETATM    1  C4  UNL     1      30.648   5.166  11.806  1.00  0.00     0.146 C 
HETATM    2  C5  UNL     1      29.847   6.301  12.375  1.00  0.00     0.210 C 
HETATM    3  C6  UNL     1      30.811   7.384  12.812  1.00  0.00     0.042 C 
HETATM    4  N2  UNL     1      28.914   6.873  11.466  1.00  0.00    -0.040 N 
ATOM      5  H21 UNL     1      29.318   6.969  10.534  1.00  0.00     0.280 HD
ATOM      6  H22 UNL     1      28.752   7.858  11.674  1.00  0.00     0.280 HD
HETATM    7  C7  UNL     1      27.691   6.143  11.427  1.00  0.00     0.355 C 
HETATM    8  C12 UNL     1      27.687   5.014  10.399  1.00  0.00     0.206 C 
HETATM    9  C13 UNL     1      29.082   4.565  10.032  1.00  0.00     0.185 C 
HETATM   10  C20 UNL     1      29.781   4.059  11.252  1.00  0.00     0.174 C 
ENDROOT
BRANCH   7  11
HETATM   11  O2  UNL     1      26.585   6.932  11.226  1.00  0.00    -0.326 OA
BRANCH  11  12
HETATM   12  C8  UNL     1      26.307   7.658  12.356  1.00  0.00     0.265 C 
HETATM   13  C9  UNL     1      24.918   8.248  12.358  1.00  0.00     0.094 C 
HETATM   14  C10 UNL     1      25.183   9.703  12.666  1.00  0.00     0.146 C 
HETATM   15  C11 UNL     1      26.590   9.868  12.117  1.00  0.00     0.202 C 
HETATM   16  O4  UNL     1      27.212   8.700  12.471  1.00  0.00    -0.359 OA
BRANCH  14  17
HETATM   17  O3  UNL     1      25.158   9.980  14.022  1.00  0.00    -0.393 OA
ATOM     18  H3  UNL     1      25.066   9.200  14.557  1.00  0.00     0.210 HD
ENDBRANCH  14  17
ENDBRANCH  11  12
ENDBRANCH   7  11
BRANCH   8  19
HETATM   19  O5  UNL     1      27.029   5.529   9.284  1.00  0.00    -0.388 OA
ATOM     20  H5  UNL     1      26.293   6.021   9.629  1.00  0.00     0.210 HD
ENDBRANCH   8  19
BRANCH   9  21
HETATM   21  O6  UNL     1      29.037   3.691   8.979  1.00  0.00    -0.373 OA
BRANCH  21  22
HETATM   22  C14 UNL     1      29.718   4.027   7.846  1.00  0.00     0.145 C 
HETATM   23  C15 UNL     1      31.030   3.227   7.918  1.00  0.00     0.034 C 
HETATM   24  C16 UNL     1      31.805   3.254   6.646  1.00  0.00     0.005 C 
HETATM   25  C17 UNL     1      31.427   2.002   5.873  1.00  0.00     0.026 C 
HETATM   26  C18 UNL     1      30.110   2.240   5.200  1.00  0.00     0.167 C 
HETATM   27  O7  UNL     1      29.675   3.519   5.475  1.00  0.00    -0.389 OA
HETATM   28  C19 UNL     1      28.912   3.612   6.637  1.00  0.00     0.199 C 
ENDBRANCH  21  22
ENDBRANCH   9  21
BRANCH   1  29
HETATM   29  N1  UNL     1      31.481   4.627  12.875  1.00  0.00    -0.351 N 
HETATM   30  C3  UNL     1      32.080   3.342  12.792  1.00  0.00     0.227 C 
HETATM   31  O1  UNL     1      31.918   2.609  11.790  1.00  0.00    -0.273 OA
ATOM     32  H1  UNL     1      31.639   5.192  13.710  1.00  0.00     0.163 HD
BRANCH  30  33
HETATM   33  C2  UNL     1      32.917   2.845  13.907  1.00  0.00     0.176 C 
BRANCH  33  34
HETATM   34  S1  UNL     1      32.004   2.658  15.437  1.00  0.00    -0.164 SA
HETATM   35  C1  UNL     1      30.556   3.785  15.381  1.00  0.00     0.090 C 
ENDBRANCH  33  34
ENDBRANCH  30  33
ENDBRANCH   1  29
BRANCH  10  36
HETATM   36  O8  UNL     1      28.973   3.584  12.245  1.00  0.00    -0.391 OA
ATOM     37  H8  UNL     1      28.124   3.367  11.879  1.00  0.00     0.210 HD
ENDBRANCH  10  36
TORSDOF 10
ENDMDL
MODEL 3
REMARK VINA RESULT: -7.912039788      0.936      1.268
REMARK  10 active torsions:
REMARK  status: ('A' for Active; 'I' for Inactive)
REMARK    1  A    between atoms: S1_2  and  C2_3 
REMARK    2  A    between atoms: C2_3  and  C3_4 
REMARK       I    between atoms: C3_4  and  N1_6 
REMARK    3  A    between atoms: N1_6  and  C4_8 
REMARK    4  A    between atoms: C7_14  and  O2_15 
REMARK    5  A    between atoms: O2_15  and  C8_16 
REMARK    6  A    between atoms: C10_18  and  O3_19 
REMARK    7  A    between atoms: C12_23  and  O5_24 
REMARK    8  A    between atoms: C13_26  and  O6_27 
REMARK    9  A    between atoms: O6_27  and  C14_28 
REMARK   10  A    between atoms: C20_35  and  O8_36 
ROOT
HETATM    1  C4  UNL     1      30.159   5.415  11.769  1.00  0.00     0.146 C 
HETATM    2  C5  UNL     1      29.612   6.511  12.637  1.00  0.00     0.210 C 
HETATM    3  C6  UNL     1      30.777   7.183  13.333  1.00  0.00     0.042 C 
HETATM    4  N2  UNL     1      28.879   7.505  11.932  1.00  0.00    -0.040 N 
ATOM      5  H21 UNL     1      29.337   7.750  11.054  1.00  0.00     0.280 HD
ATOM      6  H22 UNL     1      28.936   8.409  12.401  1.00  0.00     0.280 HD
HETATM    7  C7  UNL     1      27.524   7.118  11.719  1.00  0.00     0.355 C 
HETATM    8  C12 UNL     1      27.311   6.336  10.425  1.00  0.00     0.206 C 
HETATM    9  C13 UNL     1      28.581   5.689   9.926  1.00  0.00     0.185 C 
HETATM   10  C20 UNL     1      29.089   4.728  10.953  1.00  0.00     0.174 C 
ENDROOT
BRANCH   7  11
HETATM   11  O2  UNL     1      26.638   8.166  11.757  1.00  0.00    -0.326 OA
BRANCH  11  12
HETATM   12  C8  UNL     1      25.353   7.699  11.866  1.00  0.00     0.265 C 
HETATM   13  C9  UNL     1      24.344   8.560  11.145  1.00  0.00     0.094 C 
HETATM   14  C10 UNL     1      23.307   8.811  12.215  1.00  0.00     0.146 C 
HETATM   15  C11 UNL     1      24.151   8.694  13.473  1.00  0.00     0.202 C 
HETATM   16  O4  UNL     1      24.991   7.648  13.202  1.00  0.00    -0.359 OA
BRANCH  14  17
HETATM   17  O3  UNL     1      22.298   7.864  12.220  1.00  0.00    -0.393 OA
ATOM     18  H3  UNL     1      21.651   8.017  12.898  1.00  0.00     0.210 HD
ENDBRANCH  14  17
ENDBRANCH  11  12
ENDBRANCH   7  11
BRANCH   8  19
HETATM   19  O5  UNL     1      26.841   7.268   9.501  1.00  0.00    -0.388 OA
ATOM     20  H5  UNL     1      27.430   8.011   9.569  1.00  0.00     0.210 HD
ENDBRANCH   8  19
BRANCH   9  21
HETATM   21  O6  UNL     1      28.387   5.162   8.678  1.00  0.00    -0.373 OA
BRANCH  21  22
HETATM   22  C14 UNL     1      28.841   3.897   8.446  1.00  0.00     0.145 C 
HETATM   23  C15 UNL     1      28.675   3.685   6.931  1.00  0.00     0.034 C 
HETATM   24  C16 UNL     1      29.354   2.458   6.432  1.00  0.00     0.005 C 
HETATM   25  C17 UNL     1      30.721   2.885   5.923  1.00  0.00     0.026 C 
HETATM   26  C18 UNL     1      31.636   3.042   7.100  1.00  0.00     0.167 C 
HETATM   27  O7  UNL     1      30.957   2.726   8.258  1.00  0.00    -0.389 OA
HETATM   28  C19 UNL     1      30.299   3.812   8.833  1.00  0.00     0.199 C 
ENDBRANCH  21  22
ENDBRANCH   9  21
BRANCH   1  29
HETATM   29  N1  UNL     1      30.796   4.432  12.639  1.00  0.00    -0.351 N 
HETATM   30  C3  UNL     1      32.050   3.845  12.325  1.00  0.00     0.227 C 
HETATM   31  O1  UNL     1      32.669   4.146  11.279  1.00  0.00    -0.273 OA
ATOM     32  H1  UNL     1      30.324   4.157  13.502  1.00  0.00     0.163 HD
BRANCH  30  33
HETATM   33  C2  UNL     1      32.651   2.852  13.244  1.00  0.00     0.176 C 
BRANCH  33  34
HETATM   34  S1  UNL     1      31.980   2.939  14.903  1.00  0.00    -0.164 SA
HETATM   35  C1  UNL     1      31.947   4.701  15.416  1.00  0.00     0.090 C 
ENDBRANCH  33  34
ENDBRANCH  30  33
ENDBRANCH   1  29
BRANCH  10  36
HETATM   36  O8  UNL     1      28.148   4.207  11.794  1.00  0.00    -0.391 OA
ATOM     37  H8  UNL     1      28.572   3.911  12.591  1.00  0.00     0.210 HD
ENDBRANCH  10  36
TORSDOF 10
ENDMDL
MODEL 4
REMARK VINA RESULT: -7.144363260      1.225      1.619
REMARK  10 active torsions:
REMARK  status: ('A' for Active; 'I' for Inactive)
REMARK    1  A    between atoms: S1_2  and  C2_3 
REMARK    2  A    between atoms: C2_3  and  C3_4 
REMARK       I    between atoms: C3_4  and  N1_6 
REMARK    3  A    between atoms: N1_6  and  C4_8 
REMARK    4  A    between atoms: C7_14  and  O2_15 
REMARK    5  A    between atoms: O2_15  and  C8_16 
REMARK    6  A    between atoms: C10_18  and  O3_19 
REMARK    7  A    between atoms: C12_23  and  O5_24 
REMARK    8  A    between atoms: C13_26  and  O6_27 
REMARK    9  A    between atoms: O6_27  and  C14_28 
REMARK   10  A    between atoms: C20_35  and  O8_36 
ROOT
HETATM    1  C4  UNL     1      30.199   5.574  11.822  1.00  0.00     0.146 C 
HETATM    2  C5  UNL     1      29.380   6.651  12.473  1.00  0.00     0.210 C 
HETATM    3  C6  UNL     1      30.316   7.766  12.890  1.00  0.00     0.042 C 
HETATM    4  N2  UNL     1      28.369   7.203  11.639  1.00  0.00    -0.040 N 
ATOM      5  H21 UNL     1      28.712   7.348  10.689  1.00  0.00     0.280 HD
ATOM      6  H22 UNL     1      28.173   8.172  11.888  1.00  0.00     0.280 HD
HETATM    7  C7  UNL     1      27.181   6.416  11.646  1.00  0.00     0.355 C 
HETATM    8  C12 UNL     1      27.171   5.320  10.584  1.00  0.00     0.206 C 
HETATM    9  C13 UNL     1      28.561   4.951  10.122  1.00  0.00     0.185 C 
HETATM   10  C20 UNL     1      29.354   4.443  11.283  1.00  0.00     0.174 C 
ENDROOT
BRANCH   7  11
HETATM   11  O2  UNL     1      26.030   7.155  11.536  1.00  0.00    -0.326 OA
BRANCH  11  12
HETATM   12  C8  UNL     1      25.865   7.589  10.245  1.00  0.00     0.265 C 
HETATM   13  C9  UNL     1      26.174   9.055  10.066  1.00  0.00     0.094 C 
HETATM   14  C10 UNL     1      24.937   9.566   9.364  1.00  0.00     0.146 C 
HETATM   15  C11 UNL     1      23.892   8.579   9.857  1.00  0.00     0.202 C 
HETATM   16  O4  UNL     1      24.554   7.380   9.850  1.00  0.00    -0.359 OA
BRANCH  14  17
HETATM   17  O3  UNL     1      25.040   9.512   7.985  1.00  0.00    -0.393 OA
ATOM     18  H3  UNL     1      24.821  10.335   7.565  1.00  0.00     0.210 HD
ENDBRANCH  14  17
ENDBRANCH  11  12
ENDBRANCH   7  11
BRANCH   8  19
HETATM   19  O5  UNL     1      26.425   5.836   9.526  1.00  0.00    -0.388 OA
ATOM     20  H5  UNL     1      26.688   6.745   9.450  1.00  0.00     0.210 HD
ENDBRANCH   8  19
BRANCH   9  21
HETATM   21  O6  UNL     1      28.495   4.108   9.045  1.00  0.00    -0.373 OA
BRANCH  21  22
HETATM   22  C14 UNL     1      29.294   4.384   7.974  1.00  0.00     0.145 C 
HETATM   23  C15 UNL     1      30.588   3.594   8.229  1.00  0.00     0.034 C 
HETATM   24  C16 UNL     1      31.494   3.554   7.047  1.00  0.00     0.005 C 
HETATM   25  C17 UNL     1      31.199   2.260   6.308  1.00  0.00     0.026 C 
HETATM   26  C18 UNL     1      29.961   2.455   5.487  1.00  0.00     0.167 C 
HETATM   27  O7  UNL     1      29.502   3.746   5.643  1.00  0.00    -0.389 OA
HETATM   28  C19 UNL     1      28.620   3.900   6.711  1.00  0.00     0.199 C 
ENDBRANCH  21  22
ENDBRANCH   9  21
BRANCH   1  29
HETATM   29  N1  UNL     1      31.119   5.045  12.823  1.00  0.00    -0.351 N 
HETATM   30  C3  UNL     1      32.136   4.110  12.496  1.00  0.00     0.227 C 
HETATM   31  O1  UNL     1      32.289   3.695  11.324  1.00  0.00    -0.273 OA
ATOM     32  H1  UNL     1      31.027   5.356  13.790  1.00  0.00     0.163 HD
BRANCH  30  33
HETATM   33  C2  UNL     1      33.042   3.605  13.551  1.00  0.00     0.176 C 
BRANCH  33  34
HETATM   34  S1  UNL     1      32.166   2.933  14.962  1.00  0.00    -0.164 SA
HETATM   35  C1  UNL     1      30.774   4.061  15.362  1.00  0.00     0.090 C 
ENDBRANCH  33  34
ENDBRANCH  30  33
ENDBRANCH   1  29
BRANCH  10  36
HETATM   36  O8  UNL     1      28.630   3.899  12.304  1.00  0.00    -0.391 OA
ATOM     37  H8  UNL     1      28.049   4.560  12.661  1.00  0.00     0.210 HD
ENDBRANCH  10  36
TORSDOF 10
ENDMDL
MODEL 5
REMARK VINA RESULT: -7.030674747      2.683      7.080
REMARK  10 active torsions:
REMARK  status: ('A' for Active; 'I' for Inactive)
REMARK    1  A    between atoms: S1_2  and  C2_3 
REMARK    2  A    between atoms: C2_3  and  C3_4 
REMARK       I    between atoms: C3_4  and  N1_6 
REMARK    3  A    between atoms: N1_6  and  C4_8 
REMARK    4  A    between atoms: C7_14  and  O2_15 
REMARK    5  A    between atoms: O2_15  and  C8_16 
REMARK    6  A    between atoms: C10_18  and  O3_19 
REMARK    7  A    between atoms: C12_23  and  O5_24 
REMARK    8  A    between atoms: C13_26  and  O6_27 
REMARK    9  A    between atoms: O6_27  and  C14_28 
REMARK   10  A    between atoms: C20_35  and  O8_36 
ROOT
HETATM    1  C4  UNL     1      28.974   4.866   9.345  1.00  0.00     0.146 C 
HETATM    2  C5  UNL     1      29.969   4.273  10.300  1.00  0.00     0.210 C 
HETATM    3  C6  UNL     1      31.183   3.842   9.504  1.00  0.00     0.042 C 
HETATM    4  N2  UNL     1      30.398   5.160  11.325  1.00  0.00    -0.040 N 
ATOM      5  H21 UNL     1      30.561   6.098  10.958  1.00  0.00     0.280 HD
ATOM      6  H22 UNL     1      31.345   4.940  11.632  1.00  0.00     0.280 HD
HETATM    7  C7  UNL     1      29.491   5.185  12.424  1.00  0.00     0.355 C 
HETATM    8  C12 UNL     1      28.381   6.223  12.274  1.00  0.00     0.206 C 
HETATM    9  C13 UNL     1      28.152   6.619  10.834  1.00  0.00     0.185 C 
HETATM   10  C20 UNL     1      27.751   5.415  10.043  1.00  0.00     0.174 C 
ENDROOT
BRANCH   7  11
HETATM   11  O2  UNL     1      30.103   5.360  13.640  1.00  0.00    -0.326 OA
BRANCH  11  12
HETATM   12  C8  UNL     1      30.506   4.151  14.147  1.00  0.00     0.265 C 
HETATM   13  C9  UNL     1      31.351   4.279  15.391  1.00  0.00     0.094 C 
HETATM   14  C10 UNL     1      32.560   3.439  15.052  1.00  0.00     0.146 C 
HETATM   15  C11 UNL     1      32.576   3.547  13.536  1.00  0.00     0.202 C 
HETATM   16  O4  UNL     1      31.252   3.475  13.195  1.00  0.00    -0.359 OA
BRANCH  14  17
HETATM   17  O3  UNL     1      32.425   2.118  15.441  1.00  0.00    -0.393 OA
ATOM     18  H3  UNL     1      32.963   1.525  14.931  1.00  0.00     0.210 HD
ENDBRANCH  14  17
ENDBRANCH  11  12
ENDBRANCH   7  11
BRANCH   8  19
HETATM   19  O5  UNL     1      28.798   7.323  13.023  1.00  0.00    -0.388 OA
ATOM     20  H5  UNL     1      28.328   8.066  12.663  1.00  0.00     0.210 HD
ENDBRANCH   8  19
BRANCH   9  21
HETATM   21  O6  UNL     1      27.289   7.679  10.765  1.00  0.00    -0.373 OA
BRANCH  21  22
HETATM   22  C14 UNL     1      26.164   7.531  10.007  1.00  0.00     0.145 C 
HETATM   23  C15 UNL     1      25.050   7.190  11.010  1.00  0.00     0.034 C 
HETATM   24  C16 UNL     1      23.686   7.243  10.414  1.00  0.00     0.005 C 
HETATM   25  C17 UNL     1      23.127   8.624  10.714  1.00  0.00     0.026 C 
HETATM   26  C18 UNL     1      23.710   9.594   9.732  1.00  0.00     0.167 C 
HETATM   27  O7  UNL     1      24.543   8.925   8.861  1.00  0.00    -0.389 OA
HETATM   28  C19 UNL     1      25.861   8.835   9.305  1.00  0.00     0.199 C 
ENDBRANCH  21  22
ENDBRANCH   9  21
BRANCH   1  29
HETATM   29  N1  UNL     1      28.561   3.816   8.420  1.00  0.00    -0.351 N 
HETATM   30  C3  UNL     1      28.682   3.958   7.013  1.00  0.00     0.227 C 
HETATM   31  O1  UNL     1      29.152   4.999   6.499  1.00  0.00    -0.273 OA
ATOM     32  H1  UNL     1      28.171   2.952   8.797  1.00  0.00     0.163 HD
BRANCH  30  33
HETATM   33  C2  UNL     1      28.248   2.860   6.120  1.00  0.00     0.176 C 
BRANCH  33  34
HETATM   34  S1  UNL     1      29.585   2.193   5.132  1.00  0.00    -0.164 SA
HETATM   35  C1  UNL     1      31.163   2.511   6.014  1.00  0.00     0.090 C 
ENDBRANCH  33  34
ENDBRANCH  30  33
ENDBRANCH   1  29
BRANCH  10  36
HETATM   36  O8  UNL     1      27.151   4.414  10.751  1.00  0.00    -0.391 OA
ATOM     37  H8  UNL     1      27.197   4.616  11.678  1.00  0.00     0.210 HD
ENDBRANCH  10  36
TORSDOF 10
ENDMDL
