MODEL 1
REMARK VINA RESULT: -9.816886987      0.000      0.000
REMARK  9 active torsions:
REMARK  status: ('A' for Active; 'I' for Inactive)
REMARK    1  A    between atoms: S1_2  and  C2_3 
REMARK    2  A    between atoms: C2_3  and  C3_4 
REMARK    3  A    between atoms: C4_6  and  O2_7 
REMARK    4  A    between atoms: O2_7  and  C5_8 
REMARK    5  A    between atoms: C6_10  and  O4_11 
REMARK    6  A    between atoms: O4_11  and  C7_12 
REMARK    7  A    between atoms: C10_16  and  N1_17 
REMARK       I    between atoms: N1_17  and  C11_19 
REMARK    8  A    between atoms: C12_24  and  N4_25 
REMARK       I    between atoms: N4_25  and  C13_27 
REMARK    9  A    between atoms: C16_32  and  O8_34 
ROOT
HETATM    1  C5  UNL     1      29.372   4.912  10.657  1.00  0.00     0.293 C 
HETATM    2  O3  UNL     1      29.893   4.391   9.468  1.00  0.00    -0.329 OA
HETATM    3  C6  UNL     1      30.440   3.107   9.677  1.00  0.00     0.274 C 
HETATM    4  C9  UNL     1      31.578   3.122  10.639  1.00  0.00     0.088 C 
HETATM    5  C10 UNL     1      31.064   3.758  11.939  1.00  0.00     0.116 C 
HETATM    6  C12 UNL     1      30.529   5.119  11.573  1.00  0.00     0.162 C 
ENDROOT
BRANCH   1   7
HETATM    7  O2  UNL     1      28.724   6.095  10.314  1.00  0.00    -0.306 OA
BRANCH   7   8
HETATM    8  C4  UNL     1      27.587   6.304  11.081  1.00  0.00     0.415 C 
HETATM    9  O1  UNL     1      26.519   6.722  10.285  1.00  0.00    -0.330 OA
HETATM   10  C3  UNL     1      25.629   7.497  11.115  1.00  0.00     0.172 C 
HETATM   11  C16 UNL     1      26.241   8.835  11.237  1.00  0.00     0.102 C 
HETATM   12  C15 UNL     1      27.723   8.535  11.646  1.00  0.00     0.213 C 
HETATM   13  C17 UNL     1      26.329   9.606   9.958  1.00  0.00     0.051 C 
HETATM   14  O7  UNL     1      27.812   7.233  12.120  1.00  0.00    -0.336 OA
BRANCH  10  15
HETATM   15  C2  UNL     1      24.247   7.305  10.670  1.00  0.00     0.108 C 
BRANCH  15  16
HETATM   16  S1  UNL     1      23.010   8.178  11.568  1.00  0.00    -0.171 SA
HETATM   17  C1  UNL     1      23.045   8.072  13.331  1.00  0.00     0.089 C 
ENDBRANCH  15  16
ENDBRANCH  10  15
BRANCH  11  18
HETATM   18  O8  UNL     1      25.715   9.634  12.231  1.00  0.00    -0.385 OA
ATOM     19  H8  UNL     1      25.909   9.356  13.118  1.00  0.00     0.210 HD
ENDBRANCH  11  18
ENDBRANCH   7   8
ENDBRANCH   1   7
BRANCH   6  20
HETATM   20  N4  UNL     1      30.262   5.962  12.702  1.00  0.00    -0.350 N 
HETATM   21  C13 UNL     1      31.145   6.891  13.259  1.00  0.00     0.214 C 
HETATM   22  C14 UNL     1      30.752   7.698  14.422  1.00  0.00     0.117 C 
HETATM   23  O6  UNL     1      32.278   7.035  12.760  1.00  0.00    -0.274 OA
ATOM     24  H4  UNL     1      29.345   5.875  13.139  1.00  0.00     0.163 HD
ENDBRANCH   6  20
BRANCH   3  25
HETATM   25  O4  UNL     1      30.696   2.574   8.433  1.00  0.00    -0.290 OA
BRANCH  25  26
HETATM   26  C7  UNL     1      30.406   3.151   7.214  1.00  0.00     0.257 C 
HETATM   27  C8  UNL     1      29.063   3.224   6.620  1.00  0.00     0.126 C 
HETATM   28  O5  UNL     1      31.366   3.641   6.586  1.00  0.00    -0.266 OA
ENDBRANCH  25  26
ENDBRANCH   3  25
BRANCH   5  29
HETATM   29  N1  UNL     1      32.127   3.837  12.917  1.00  0.00    -0.358 N 
HETATM   30  C11 UNL     1      31.815   3.460  14.259  1.00  0.00     0.182 C 
HETATM   31  N2  UNL     1      31.973   2.256  14.645  1.00  0.00    -0.374 N 
HETATM   32  N3  UNL     1      31.321   4.398  15.202  1.00  0.00    -0.064 NA
ATOM     33  H22 UNL     1      32.327   1.581  13.966  1.00  0.00     0.158 HD
ATOM     34  H21 UNL     1      31.750   1.986  15.602  1.00  0.00     0.158 HD
ATOM     35  H1  UNL     1      33.062   4.151  12.658  1.00  0.00     0.162 HD
ENDBRANCH   5  29
TORSDOF 9
ENDMDL
MODEL 2
REMARK VINA RESULT: -9.778870472      0.975      1.217
REMARK  9 active torsions:
REMARK  status: ('A' for Active; 'I' for Inactive)
REMARK    1  A    between atoms: S1_2  and  C2_3 
REMARK    2  A    between atoms: C2_3  and  C3_4 
REMARK    3  A    between atoms: C4_6  and  O2_7 
REMARK    4  A    between atoms: O2_7  and  C5_8 
REMARK    5  A    between atoms: C6_10  and  O4_11 
REMARK    6  A    between atoms: O4_11  and  C7_12 
REMARK    7  A    between atoms: C10_16  and  N1_17 
REMARK       I    between atoms: N1_17  and  C11_19 
REMARK    8  A    between atoms: C12_24  and  N4_25 
REMARK       I    between atoms: N4_25  and  C13_27 
REMARK    9  A    between atoms: C16_32  and  O8_34 
ROOT
HETATM    1  C5  UNL     1      29.360   4.925  10.605  1.00  0.00     0.293 C 
HETATM    2  O3  UNL     1      29.872   4.412   9.409  1.00  0.00    -0.329 OA
HETATM    3  C6  UNL     1      30.434   3.133   9.608  1.00  0.00     0.274 C 
HETATM    4  C9  UNL     1      31.582   3.157  10.557  1.00  0.00     0.088 C 
HETATM    5  C10 UNL     1      31.076   3.785  11.865  1.00  0.00     0.116 C 
HETATM    6  C12 UNL     1      30.524   5.142  11.508  1.00  0.00     0.162 C 
ENDROOT
BRANCH   1   7
HETATM    7  O2  UNL     1      28.696   6.103  10.271  1.00  0.00    -0.306 OA
BRANCH   7   8
HETATM    8  C4  UNL     1      27.399   6.125  10.764  1.00  0.00     0.415 C 
HETATM    9  O1  UNL     1      26.626   7.070  10.089  1.00  0.00    -0.330 OA
HETATM   10  C3  UNL     1      25.575   7.497  10.982  1.00  0.00     0.172 C 
HETATM   11  C16 UNL     1      26.193   8.464  11.911  1.00  0.00     0.102 C 
HETATM   12  C15 UNL     1      27.479   7.728  12.419  1.00  0.00     0.213 C 
HETATM   13  C17 UNL     1      26.682   9.726  11.274  1.00  0.00     0.051 C 
HETATM   14  O7  UNL     1      27.365   6.370  12.154  1.00  0.00    -0.336 OA
BRANCH  10  15
HETATM   15  C2  UNL     1      24.370   7.811  10.211  1.00  0.00     0.108 C 
BRANCH  15  16
HETATM   16  S1  UNL     1      24.493   9.160   9.087  1.00  0.00    -0.171 SA
HETATM   17  C1  UNL     1      23.010   9.716   8.306  1.00  0.00     0.089 C 
ENDBRANCH  15  16
ENDBRANCH  10  15
BRANCH  11  18
HETATM   18  O8  UNL     1      25.446   8.762  13.031  1.00  0.00    -0.385 OA
ATOM     19  H8  UNL     1      25.105   9.648  13.066  1.00  0.00     0.210 HD
ENDBRANCH  11  18
ENDBRANCH   7   8
ENDBRANCH   1   7
BRANCH   6  20
HETATM   20  N4  UNL     1      30.262   5.979  12.642  1.00  0.00    -0.350 N 
HETATM   21  C13 UNL     1      31.158   6.883  13.218  1.00  0.00     0.214 C 
HETATM   22  C14 UNL     1      30.768   7.688  14.385  1.00  0.00     0.117 C 
HETATM   23  O6  UNL     1      32.300   7.008  12.735  1.00  0.00    -0.274 OA
ATOM     24  H4  UNL     1      29.338   5.908  13.067  1.00  0.00     0.163 HD
ENDBRANCH   6  20
BRANCH   3  25
HETATM   25  O4  UNL     1      30.681   2.606   8.360  1.00  0.00    -0.290 OA
BRANCH  25  26
HETATM   26  C7  UNL     1      30.392   3.193   7.145  1.00  0.00     0.257 C 
HETATM   27  C8  UNL     1      29.061   3.214   6.521  1.00  0.00     0.126 C 
HETATM   28  O5  UNL     1      31.342   3.739   6.550  1.00  0.00    -0.266 OA
ENDBRANCH  25  26
ENDBRANCH   3  25
BRANCH   5  29
HETATM   29  N1  UNL     1      32.149   3.872  12.831  1.00  0.00    -0.358 N 
HETATM   30  C11 UNL     1      31.857   3.481  14.173  1.00  0.00     0.182 C 
HETATM   31  N2  UNL     1      32.036   2.277  14.549  1.00  0.00    -0.374 N 
HETATM   32  N3  UNL     1      31.362   4.406  15.129  1.00  0.00    -0.064 NA
ATOM     33  H22 UNL     1      32.392   1.612  13.862  1.00  0.00     0.158 HD
ATOM     34  H21 UNL     1      31.828   1.998  15.508  1.00  0.00     0.158 HD
ATOM     35  H1  UNL     1      33.077   4.200  12.564  1.00  0.00     0.162 HD
ENDBRANCH   5  29
TORSDOF 9
ENDMDL
MODEL 3
REMARK VINA RESULT: -8.743692353      1.871      2.408
REMARK  9 active torsions:
REMARK  status: ('A' for Active; 'I' for Inactive)
REMARK    1  A    between atoms: S1_2  and  C2_3 
REMARK    2  A    between atoms: C2_3  and  C3_4 
REMARK    3  A    between atoms: C4_6  and  O2_7 
REMARK    4  A    between atoms: O2_7  and  C5_8 
REMARK    5  A    between atoms: C6_10  and  O4_11 
REMARK    6  A    between atoms: O4_11  and  C7_12 
REMARK    7  A    between atoms: C10_16  and  N1_17 
REMARK       I    between atoms: N1_17  and  C11_19 
REMARK    8  A    between atoms: C12_24  and  N4_25 
REMARK       I    between atoms: N4_25  and  C13_27 
REMARK    9  A    between atoms: C16_32  and  O8_34 
ROOT
HETATM    1  C5  UNL     1      27.842   5.361  10.196  1.00  0.00     0.293 C 
HETATM    2  O3  UNL     1      28.075   4.915   8.891  1.00  0.00    -0.329 OA
HETATM    3  C6  UNL     1      28.316   3.526   8.868  1.00  0.00     0.274 C 
HETATM    4  C9  UNL     1      29.531   3.146   9.643  1.00  0.00     0.088 C 
HETATM    5  C10 UNL     1      29.345   3.685  11.069  1.00  0.00     0.116 C 
HETATM    6  C12 UNL     1      29.116   5.170  10.944  1.00  0.00     0.162 C 
ENDROOT
BRANCH   1   7
HETATM    7  O2  UNL     1      27.462   6.697  10.090  1.00  0.00    -0.306 OA
BRANCH   7   8
HETATM    8  C4  UNL     1      26.203   6.922  10.628  1.00  0.00     0.415 C 
HETATM    9  O1  UNL     1      25.678   8.133  10.176  1.00  0.00    -0.330 OA
HETATM   10  C3  UNL     1      24.750   8.609  11.174  1.00  0.00     0.172 C 
HETATM   11  C16 UNL     1      25.571   9.207  12.246  1.00  0.00     0.102 C 
HETATM   12  C15 UNL     1      26.645   8.109  12.554  1.00  0.00     0.213 C 
HETATM   13  C17 UNL     1      26.347  10.421  11.843  1.00  0.00     0.051 C 
HETATM   14  O7  UNL     1      26.217   6.892  12.039  1.00  0.00    -0.336 OA
BRANCH  10  15
HETATM   15  C2  UNL     1      23.659   9.338  10.525  1.00  0.00     0.108 C 
BRANCH  15  16
HETATM   16  S1  UNL     1      23.731   9.452   8.770  1.00  0.00    -0.171 SA
HETATM   17  C1  UNL     1      22.233   9.814   7.907  1.00  0.00     0.089 C 
ENDBRANCH  15  16
ENDBRANCH  10  15
BRANCH  11  18
HETATM   18  O8  UNL     1      24.907   9.446  13.431  1.00  0.00    -0.385 OA
ATOM     19  H8  UNL     1      24.280  10.159  13.407  1.00  0.00     0.210 HD
ENDBRANCH  11  18
ENDBRANCH   7   8
ENDBRANCH   1   7
BRANCH   6  20
HETATM   20  N4  UNL     1      29.198   5.877  12.188  1.00  0.00    -0.350 N 
HETATM   21  C13 UNL     1      30.348   6.462  12.724  1.00  0.00     0.214 C 
HETATM   22  C14 UNL     1      30.303   7.163  14.016  1.00  0.00     0.117 C 
HETATM   23  O6  UNL     1      31.423   6.388  12.097  1.00  0.00    -0.274 OA
ATOM     24  H4  UNL     1      28.339   5.961  12.732  1.00  0.00     0.163 HD
ENDBRANCH   6  20
BRANCH   3  25
HETATM   25  O4  UNL     1      28.284   3.136   7.547  1.00  0.00    -0.290 OA
BRANCH  25  26
HETATM   26  C7  UNL     1      29.186   3.484   6.563  1.00  0.00     0.257 C 
HETATM   27  C8  UNL     1      30.485   2.829   6.348  1.00  0.00     0.126 C 
HETATM   28  O5  UNL     1      28.856   4.422   5.811  1.00  0.00    -0.266 OA
ENDBRANCH  25  26
ENDBRANCH   3  25
BRANCH   5  29
HETATM   29  N1  UNL     1      30.506   3.381  11.878  1.00  0.00    -0.358 N 
HETATM   30  C11 UNL     1      31.709   3.031  11.195  1.00  0.00     0.182 C 
HETATM   31  N2  UNL     1      32.556   3.928  10.874  1.00  0.00    -0.374 N 
HETATM   32  N3  UNL     1      32.007   1.687  10.849  1.00  0.00    -0.064 NA
ATOM     33  H22 UNL     1      32.342   4.894  11.122  1.00  0.00     0.158 HD
ATOM     34  H21 UNL     1      33.415   3.678  10.386  1.00  0.00     0.158 HD
ATOM     35  H1  UNL     1      30.465   3.416  12.897  1.00  0.00     0.162 HD
ENDBRANCH   5  29
TORSDOF 9
ENDMDL
MODEL 4
REMARK VINA RESULT: -8.584353928      1.585      2.032
REMARK  9 active torsions:
REMARK  status: ('A' for Active; 'I' for Inactive)
REMARK    1  A    between atoms: S1_2  and  C2_3 
REMARK    2  A    between atoms: C2_3  and  C3_4 
REMARK    3  A    between atoms: C4_6  and  O2_7 
REMARK    4  A    between atoms: O2_7  and  C5_8 
REMARK    5  A    between atoms: C6_10  and  O4_11 
REMARK    6  A    between atoms: O4_11  and  C7_12 
REMARK    7  A    between atoms: C10_16  and  N1_17 
REMARK       I    between atoms: N1_17  and  C11_19 
REMARK    8  A    between atoms: C12_24  and  N4_25 
REMARK       I    between atoms: N4_25  and  C13_27 
REMARK    9  A    between atoms: C16_32  and  O8_34 
ROOT
HETATM    1  C5  UNL     1      28.471   6.173  11.187  1.00  0.00     0.293 C 
HETATM    2  O3  UNL     1      28.711   5.462  10.006  1.00  0.00    -0.329 OA
HETATM    3  C6  UNL     1      28.498   4.081  10.196  1.00  0.00     0.274 C 
HETATM    4  C9  UNL     1      29.423   3.496  11.209  1.00  0.00     0.088 C 
HETATM    5  C10 UNL     1      29.241   4.300  12.505  1.00  0.00     0.116 C 
HETATM    6  C12 UNL     1      29.514   5.743  12.160  1.00  0.00     0.162 C 
ENDROOT
BRANCH   1   7
HETATM    7  O2  UNL     1      28.553   7.522  10.854  1.00  0.00    -0.306 OA
BRANCH   7   8
HETATM    8  C4  UNL     1      27.574   8.272  11.491  1.00  0.00     0.415 C 
HETATM    9  O1  UNL     1      26.616   7.445  12.079  1.00  0.00    -0.330 OA
HETATM   10  C3  UNL     1      25.380   8.186  12.150  1.00  0.00     0.172 C 
HETATM   11  C16 UNL     1      24.791   8.136  10.797  1.00  0.00     0.102 C 
HETATM   12  C15 UNL     1      25.972   8.560   9.858  1.00  0.00     0.213 C 
HETATM   13  C17 UNL     1      24.387   6.772  10.336  1.00  0.00     0.051 C 
HETATM   14  O7  UNL     1      26.954   9.187  10.612  1.00  0.00    -0.336 OA
BRANCH  10  15
HETATM   15  C2  UNL     1      24.633   7.786  13.344  1.00  0.00     0.108 C 
BRANCH  15  16
HETATM   16  S1  UNL     1      22.932   8.240  13.389  1.00  0.00    -0.171 SA
HETATM   17  C1  UNL     1      22.062   8.016  14.910  1.00  0.00     0.089 C 
ENDBRANCH  15  16
ENDBRANCH  10  15
BRANCH  11  18
HETATM   18  O8  UNL     1      23.769   9.032  10.567  1.00  0.00    -0.385 OA
ATOM     19  H8  UNL     1      23.844   9.535   9.764  1.00  0.00     0.210 HD
ENDBRANCH  11  18
ENDBRANCH   7   8
ENDBRANCH   1   7
BRANCH   6  20
HETATM   20  N4  UNL     1      29.661   6.595  13.304  1.00  0.00    -0.350 N 
HETATM   21  C13 UNL     1      30.817   7.292  13.664  1.00  0.00     0.214 C 
HETATM   22  C14 UNL     1      30.842   8.137  14.867  1.00  0.00     0.117 C 
HETATM   23  O6  UNL     1      31.838   7.194  12.955  1.00  0.00    -0.274 OA
ATOM     24  H4  UNL     1      28.848   6.703  13.910  1.00  0.00     0.163 HD
ENDBRANCH   6  20
BRANCH   3  25
HETATM   25  O4  UNL     1      28.509   3.499   8.948  1.00  0.00    -0.290 OA
BRANCH  25  26
HETATM   26  C7  UNL     1      29.473   3.655   7.974  1.00  0.00     0.257 C 
HETATM   27  C8  UNL     1      30.771   2.964   7.961  1.00  0.00     0.126 C 
HETATM   28  O5  UNL     1      29.206   4.444   7.045  1.00  0.00    -0.266 OA
ENDBRANCH  25  26
ENDBRANCH   3  25
BRANCH   5  29
HETATM   29  N1  UNL     1      30.134   3.810  13.532  1.00  0.00    -0.358 N 
HETATM   30  C11 UNL     1      29.662   3.834  14.879  1.00  0.00     0.182 C 
HETATM   31  N2  UNL     1      29.050   2.829  15.368  1.00  0.00    -0.374 N 
HETATM   32  N3  UNL     1      29.850   4.965  15.715  1.00  0.00    -0.064 NA
ATOM     33  H22 UNL     1      28.914   2.016  14.767  1.00  0.00     0.158 HD
ATOM     34  H21 UNL     1      28.713   2.846  16.330  1.00  0.00     0.158 HD
ATOM     35  H1  UNL     1      31.064   3.460  13.302  1.00  0.00     0.162 HD
ENDBRANCH   5  29
TORSDOF 9
ENDMDL
MODEL 5
REMARK VINA RESULT: -8.409466935      1.556      2.291
REMARK  9 active torsions:
REMARK  status: ('A' for Active; 'I' for Inactive)
REMARK    1  A    between atoms: S1_2  and  C2_3 
REMARK    2  A    between atoms: C2_3  and  C3_4 
REMARK    3  A    between atoms: C4_6  and  O2_7 
REMARK    4  A    between atoms: O2_7  and  C5_8 
REMARK    5  A    between atoms: C6_10  and  O4_11 
REMARK    6  A    between atoms: O4_11  and  C7_12 
REMARK    7  A    between atoms: C10_16  and  N1_17 
REMARK       I    between atoms: N1_17  and  C11_19 
REMARK    8  A    between atoms: C12_24  and  N4_25 
REMARK       I    between atoms: N4_25  and  C13_27 
REMARK    9  A    between atoms: C16_32  and  O8_34 
ROOT
HETATM    1  C5  UNL     1      28.337   6.461  10.969  1.00  0.00     0.293 C 
HETATM    2  O3  UNL     1      28.442   6.124   9.616  1.00  0.00    -0.329 OA
HETATM    3  C6  UNL     1      28.170   4.755   9.414  1.00  0.00     0.274 C 
HETATM    4  C9  UNL     1      29.138   3.871  10.122  1.00  0.00     0.088 C 
HETATM    5  C10 UNL     1      29.105   4.262  11.608  1.00  0.00     0.116 C 
HETATM    6  C12 UNL     1      29.428   5.733  11.675  1.00  0.00     0.162 C 
ENDROOT
BRANCH   1   7
HETATM    7  O2  UNL     1      28.466   7.846  11.038  1.00  0.00    -0.306 OA
BRANCH   7   8
HETATM    8  C4  UNL     1      27.392   8.434  11.691  1.00  0.00     0.415 C 
HETATM    9  O1  UNL     1      26.471   7.470  12.103  1.00  0.00    -0.330 OA
HETATM   10  C3  UNL     1      25.176   8.103  12.177  1.00  0.00     0.172 C 
HETATM   11  C16 UNL     1      24.678   8.184  10.789  1.00  0.00     0.102 C 
HETATM   12  C15 UNL     1      25.875   8.810   9.996  1.00  0.00     0.213 C 
HETATM   13  C17 UNL     1      24.415   6.864  10.136  1.00  0.00     0.051 C 
HETATM   14  O7  UNL     1      26.755   9.406  10.890  1.00  0.00    -0.336 OA
BRANCH  10  15
HETATM   15  C2  UNL     1      24.392   7.499  13.256  1.00  0.00     0.108 C 
BRANCH  15  16
HETATM   16  S1  UNL     1      22.854   8.270  13.629  1.00  0.00    -0.171 SA
HETATM   17  C1  UNL     1      22.096   7.886  15.177  1.00  0.00     0.089 C 
ENDBRANCH  15  16
ENDBRANCH  10  15
BRANCH  11  18
HETATM   18  O8  UNL     1      23.601   9.024  10.598  1.00  0.00    -0.385 OA
ATOM     19  H8  UNL     1      23.715   9.909  10.926  1.00  0.00     0.210 HD
ENDBRANCH  11  18
ENDBRANCH   7   8
ENDBRANCH   1   7
BRANCH   6  20
HETATM   20  N4  UNL     1      29.713   6.205  12.998  1.00  0.00    -0.350 N 
HETATM   21  C13 UNL     1      30.924   6.751  13.432  1.00  0.00     0.214 C 
HETATM   22  C14 UNL     1      31.092   7.200  14.821  1.00  0.00     0.117 C 
HETATM   23  O6  UNL     1      31.870   6.858  12.628  1.00  0.00    -0.274 OA
ATOM     24  H4  UNL     1      28.963   6.136  13.686  1.00  0.00     0.163 HD
ENDBRANCH   6  20
BRANCH   3  25
HETATM   25  O4  UNL     1      28.049   4.567   8.055  1.00  0.00    -0.290 OA
BRANCH  25  26
HETATM   26  C7  UNL     1      29.007   4.055   7.205  1.00  0.00     0.257 C 
HETATM   27  C8  UNL     1      28.738   3.107   6.114  1.00  0.00     0.126 C 
HETATM   28  O5  UNL     1      30.180   4.437   7.392  1.00  0.00    -0.266 OA
ENDBRANCH  25  26
ENDBRANCH   3  25
BRANCH   5  29
HETATM   29  N1  UNL     1      30.048   3.464  12.360  1.00  0.00    -0.358 N 
HETATM   30  C11 UNL     1      31.329   3.233  11.773  1.00  0.00     0.182 C 
HETATM   31  N2  UNL     1      32.298   4.029  12.000  1.00  0.00    -0.374 N 
HETATM   32  N3  UNL     1      31.570   2.123  10.922  1.00  0.00    -0.064 NA
ATOM     33  H22 UNL     1      32.124   4.827  12.612  1.00  0.00     0.158 HD
ATOM     34  H21 UNL     1      33.212   3.864  11.581  1.00  0.00     0.158 HD
ATOM     35  H1  UNL     1      29.807   3.081  13.275  1.00  0.00     0.162 HD
ENDBRANCH   5  29
TORSDOF 9
ENDMDL
