MODEL 1
REMARK VINA RESULT: -5.779764499      0.000      0.000
REMARK  5 active torsions:
REMARK  status: ('A' for Active; 'I' for Inactive)
REMARK    1  A    between atoms: C3_9  and  C4_10 
REMARK    2  A    between atoms: C4_10  and  N4_11 
REMARK    3  A    between atoms: C4_10  and  C5_15 
REMARK    4  A    between atoms: C5_15  and  N5_16 
REMARK    5  A    between atoms: C5_15  and  O1_20 
ROOT
HETATM    1  C4  UNL     1     -27.501  15.349  58.196  1.00  0.00     0.291 C 
ENDROOT
BRANCH   1   2
HETATM    2  C3  UNL     1     -26.203  14.611  58.131  1.00  0.00     0.085 A 
HETATM    3  C2  UNL     1     -25.448  14.283  59.260  1.00  0.00     0.049 A 
HETATM    4  C1  UNL     1     -25.679  14.689  60.616  1.00  0.00     0.072 C 
HETATM    5  N1  UNL     1     -24.401  13.573  58.752  1.00  0.00    -0.289 N 
HETATM    6  N2  UNL     1     -24.534  13.501  57.492  1.00  0.00    -0.242 N 
ATOM      7  H1  UNL     1     -23.638  13.169  59.294  1.00  0.00     0.188 HD
HETATM    8  N3  UNL     1     -25.602  14.107  57.080  1.00  0.00    -0.286 N 
ATOM      9  H2  UNL     1     -23.877  13.021  56.876  1.00  0.00     0.208 HD
ATOM     10  H3  UNL     1     -25.919  14.179  56.114  1.00  0.00     0.188 HD
ENDBRANCH   1   2
BRANCH   1  11
HETATM   11  N4  UNL     1     -28.269  14.850  59.319  1.00  0.00    -0.065 N 
ATOM     12  H43 UNL     1     -27.851  14.019  59.737  1.00  0.00     0.275 HD
ATOM     13  H42 UNL     1     -28.211  15.463  60.132  1.00  0.00     0.275 HD
ATOM     14  H41 UNL     1     -29.231  14.693  59.018  1.00  0.00     0.275 HD
ENDBRANCH   1  11
BRANCH   1  15
HETATM   15  C5  UNL     1     -28.335  14.922  56.974  1.00  0.00     0.353 C 
BRANCH  15  16
HETATM   16  N5  UNL     1     -29.674  15.551  57.172  1.00  0.00    -0.051 N 
ATOM     17  H53 UNL     1     -29.742  16.118  58.017  1.00  0.00     0.277 HD
ATOM     18  H52 UNL     1     -29.879  16.299  56.510  1.00  0.00     0.277 HD
ATOM     19  H51 UNL     1     -30.341  14.780  57.139  1.00  0.00     0.277 HD
ENDBRANCH  15  16
BRANCH  15  20
HETATM   20  O1  UNL     1     -27.819  15.388  55.806  1.00  0.00    -0.368 OA
ATOM     21  H1  UNL     1     -28.493  15.616  55.177  1.00  0.00     0.212 HD
ENDBRANCH  15  20
ENDBRANCH   1  15
TORSDOF 5
ENDMDL
MODEL 2
REMARK VINA RESULT: -5.775039724      1.889      3.961
REMARK  5 active torsions:
REMARK  status: ('A' for Active; 'I' for Inactive)
REMARK    1  A    between atoms: C3_9  and  C4_10 
REMARK    2  A    between atoms: C4_10  and  N4_11 
REMARK    3  A    between atoms: C4_10  and  C5_15 
REMARK    4  A    between atoms: C5_15  and  N5_16 
REMARK    5  A    between atoms: C5_15  and  O1_20 
ROOT
HETATM    1  C4  UNL     1     -25.772  14.755  57.316  1.00  0.00     0.291 C 
ENDROOT
BRANCH   1   2
HETATM    2  C3  UNL     1     -26.729  14.765  58.464  1.00  0.00     0.085 A 
HETATM    3  C2  UNL     1     -28.089  15.056  58.328  1.00  0.00     0.049 A 
HETATM    4  C1  UNL     1     -28.773  15.515  57.155  1.00  0.00     0.072 C 
HETATM    5  N1  UNL     1     -28.581  14.889  59.588  1.00  0.00    -0.289 N 
HETATM    6  N2  UNL     1     -27.627  14.548  60.354  1.00  0.00    -0.242 N 
ATOM      7  H1  UNL     1     -29.552  15.018  59.870  1.00  0.00     0.188 HD
HETATM    8  N3  UNL     1     -26.502  14.459  59.718  1.00  0.00    -0.286 N 
ATOM      9  H2  UNL     1     -27.735  14.364  61.351  1.00  0.00     0.208 HD
ATOM     10  H3  UNL     1     -25.602  14.199  60.121  1.00  0.00     0.188 HD
ENDBRANCH   1   2
BRANCH   1  11
HETATM   11  N4  UNL     1     -25.612  13.393  56.851  1.00  0.00    -0.065 N 
ATOM     12  H43 UNL     1     -26.491  12.875  56.854  1.00  0.00     0.275 HD
ATOM     13  H42 UNL     1     -25.422  13.343  55.850  1.00  0.00     0.275 HD
ATOM     14  H41 UNL     1     -24.889  12.936  57.407  1.00  0.00     0.275 HD
ENDBRANCH   1  11
BRANCH   1  15
HETATM   15  C5  UNL     1     -24.381  15.110  57.872  1.00  0.00     0.353 C 
BRANCH  15  16
HETATM   16  N5  UNL     1     -23.614  13.829  57.863  1.00  0.00    -0.051 N 
ATOM     17  H53 UNL     1     -24.156  13.022  58.174  1.00  0.00     0.277 HD
ATOM     18  H52 UNL     1     -23.408  13.481  56.928  1.00  0.00     0.277 HD
ATOM     19  H51 UNL     1     -22.784  14.008  58.428  1.00  0.00     0.277 HD
ENDBRANCH  15  16
BRANCH  15  20
HETATM   20  O1  UNL     1     -23.721  16.003  57.089  1.00  0.00    -0.368 OA
ATOM     21  H1  UNL     1     -22.788  16.022  57.268  1.00  0.00     0.212 HD
ENDBRANCH  15  20
ENDBRANCH   1  15
TORSDOF 5
ENDMDL
MODEL 3
REMARK VINA RESULT: -5.682360176      2.088      3.947
REMARK  5 active torsions:
REMARK  status: ('A' for Active; 'I' for Inactive)
REMARK    1  A    between atoms: C3_9  and  C4_10 
REMARK    2  A    between atoms: C4_10  and  N4_11 
REMARK    3  A    between atoms: C4_10  and  C5_15 
REMARK    4  A    between atoms: C5_15  and  N5_16 
REMARK    5  A    between atoms: C5_15  and  O1_20 
ROOT
HETATM    1  C4  UNL     1     -25.516  15.132  58.170  1.00  0.00     0.291 C 
ENDROOT
BRANCH   1   2
HETATM    2  C3  UNL     1     -26.878  15.079  57.557  1.00  0.00     0.085 A 
HETATM    3  C2  UNL     1     -28.059  15.156  58.299  1.00  0.00     0.049 A 
HETATM    4  C1  UNL     1     -28.198  15.156  59.726  1.00  0.00     0.072 C 
HETATM    5  N1  UNL     1     -29.038  15.134  57.351  1.00  0.00    -0.289 N 
HETATM    6  N2  UNL     1     -28.492  15.055  56.207  1.00  0.00    -0.242 N 
ATOM      7  H1  UNL     1     -30.041  15.174  57.529  1.00  0.00     0.188 HD
HETATM    8  N3  UNL     1     -27.199  15.022  56.287  1.00  0.00    -0.286 N 
ATOM      9  H2  UNL     1     -29.010  15.021  55.330  1.00  0.00     0.208 HD
ATOM     10  H3  UNL     1     -26.549  14.964  55.504  1.00  0.00     0.188 HD
ENDBRANCH   1   2
BRANCH   1  11
HETATM   11  N4  UNL     1     -24.566  15.565  57.167  1.00  0.00    -0.065 N 
ATOM     12  H43 UNL     1     -24.480  16.581  57.125  1.00  0.00     0.275 HD
ATOM     13  H42 UNL     1     -23.603  15.351  57.426  1.00  0.00     0.275 HD
ATOM     14  H41 UNL     1     -24.827  15.159  56.268  1.00  0.00     0.275 HD
ENDBRANCH   1  11
BRANCH   1  15
HETATM   15  C5  UNL     1     -25.089  13.684  58.469  1.00  0.00     0.353 C 
BRANCH  15  16
HETATM   16  N5  UNL     1     -23.696  13.568  57.944  1.00  0.00    -0.051 N 
ATOM     17  H53 UNL     1     -22.990  13.460  58.673  1.00  0.00     0.277 HD
ATOM     18  H52 UNL     1     -23.510  12.687  57.467  1.00  0.00     0.277 HD
ATOM     19  H51 UNL     1     -23.559  14.390  57.357  1.00  0.00     0.277 HD
ENDBRANCH  15  16
BRANCH  15  20
HETATM   20  O1  UNL     1     -25.062  13.415  59.801  1.00  0.00    -0.368 OA
ATOM     21  H1  UNL     1     -24.197  13.529  60.176  1.00  0.00     0.212 HD
ENDBRANCH  15  20
ENDBRANCH   1  15
TORSDOF 5
ENDMDL
MODEL 4
REMARK VINA RESULT: -5.594323685      2.172      4.183
REMARK  5 active torsions:
REMARK  status: ('A' for Active; 'I' for Inactive)
REMARK    1  A    between atoms: C3_9  and  C4_10 
REMARK    2  A    between atoms: C4_10  and  N4_11 
REMARK    3  A    between atoms: C4_10  and  C5_15 
REMARK    4  A    between atoms: C5_15  and  N5_16 
REMARK    5  A    between atoms: C5_15  and  O1_20 
ROOT
HETATM    1  C4  UNL     1     -25.639  14.923  58.271  1.00  0.00     0.291 C 
ENDROOT
BRANCH   1   2
HETATM    2  C3  UNL     1     -26.786  14.785  59.218  1.00  0.00     0.085 A 
HETATM    3  C2  UNL     1     -28.097  15.147  58.897  1.00  0.00     0.049 A 
HETATM    4  C1  UNL     1     -28.555  15.817  57.715  1.00  0.00     0.072 C 
HETATM    5  N1  UNL     1     -28.809  14.798  60.006  1.00  0.00    -0.289 N 
HETATM    6  N2  UNL     1     -28.011  14.299  60.858  1.00  0.00    -0.242 N 
ATOM      7  H1  UNL     1     -29.813  14.917  60.130  1.00  0.00     0.188 HD
HETATM    8  N3  UNL     1     -26.791  14.270  60.424  1.00  0.00    -0.286 N 
ATOM      9  H2  UNL     1     -28.298  13.960  61.777  1.00  0.00     0.208 HD
ATOM     10  H3  UNL     1     -25.981  13.912  60.929  1.00  0.00     0.188 HD
ENDBRANCH   1   2
BRANCH   1  11
HETATM   11  N4  UNL     1     -25.941  14.190  57.058  1.00  0.00    -0.065 N 
ATOM     12  H43 UNL     1     -26.680  13.500  57.195  1.00  0.00     0.275 HD
ATOM     13  H42 UNL     1     -26.413  14.767  56.362  1.00  0.00     0.275 HD
ATOM     14  H41 UNL     1     -25.081  13.773  56.701  1.00  0.00     0.275 HD
ENDBRANCH   1  11
BRANCH   1  15
HETATM   15  C5  UNL     1     -24.451  14.150  58.870  1.00  0.00     0.353 C 
BRANCH  15  16
HETATM   16  N5  UNL     1     -23.681  13.638  57.698  1.00  0.00    -0.051 N 
ATOM     17  H53 UNL     1     -23.856  12.654  57.490  1.00  0.00     0.277 HD
ATOM     18  H52 UNL     1     -24.001  14.007  56.804  1.00  0.00     0.277 HD
ATOM     19  H51 UNL     1     -22.705  13.847  57.905  1.00  0.00     0.277 HD
ENDBRANCH  15  16
BRANCH  15  20
HETATM   20  O1  UNL     1     -23.627  14.950  59.599  1.00  0.00    -0.368 OA
ATOM     21  H1  UNL     1     -22.941  14.460  60.037  1.00  0.00     0.212 HD
ENDBRANCH  15  20
ENDBRANCH   1  15
TORSDOF 5
ENDMDL
MODEL 5
REMARK VINA RESULT: -5.417254960      1.535      2.004
REMARK  5 active torsions:
REMARK  status: ('A' for Active; 'I' for Inactive)
REMARK    1  A    between atoms: C3_9  and  C4_10 
REMARK    2  A    between atoms: C4_10  and  N4_11 
REMARK    3  A    between atoms: C4_10  and  C5_15 
REMARK    4  A    between atoms: C5_15  and  N5_16 
REMARK    5  A    between atoms: C5_15  and  O1_20 
ROOT
HETATM    1  C4  UNL     1     -27.106  15.666  57.629  1.00  0.00     0.291 C 
ENDROOT
BRANCH   1   2
HETATM    2  C3  UNL     1     -26.561  14.889  58.784  1.00  0.00     0.085 A 
HETATM    3  C2  UNL     1     -25.299  14.289  58.779  1.00  0.00     0.049 A 
HETATM    4  C1  UNL     1     -24.385  14.182  57.680  1.00  0.00     0.072 C 
HETATM    5  N1  UNL     1     -25.191  13.757  60.029  1.00  0.00    -0.289 N 
HETATM    6  N2  UNL     1     -26.254  14.015  60.673  1.00  0.00    -0.242 N 
ATOM      7  H1  UNL     1     -24.391  13.237  60.388  1.00  0.00     0.188 HD
HETATM    8  N3  UNL     1     -27.099  14.695  59.963  1.00  0.00    -0.286 N 
ATOM      9  H2  UNL     1     -26.423  13.723  61.635  1.00  0.00     0.208 HD
ATOM     10  H3  UNL     1     -28.016  15.020  60.267  1.00  0.00     0.188 HD
ENDBRANCH   1   2
BRANCH   1  11
HETATM   11  N4  UNL     1     -27.996  16.692  58.132  1.00  0.00    -0.065 N 
ATOM     12  H43 UNL     1     -28.414  17.245  57.384  1.00  0.00     0.275 HD
ATOM     13  H42 UNL     1     -28.857  16.304  58.520  1.00  0.00     0.275 HD
ATOM     14  H41 UNL     1     -27.491  17.267  58.806  1.00  0.00     0.275 HD
ENDBRANCH   1  11
BRANCH   1  15
HETATM   15  C5  UNL     1     -28.044  14.730  56.846  1.00  0.00     0.353 C 
BRANCH  15  16
HETATM   16  N5  UNL     1     -29.424  15.099  57.281  1.00  0.00    -0.051 N 
ATOM     17  H53 UNL     1     -30.026  14.296  57.466  1.00  0.00     0.277 HD
ATOM     18  H52 UNL     1     -29.466  15.499  58.218  1.00  0.00     0.277 HD
ATOM     19  H51 UNL     1     -29.778  15.720  56.553  1.00  0.00     0.277 HD
ENDBRANCH  15  16
BRANCH  15  20
HETATM   20  O1  UNL     1     -27.961  14.916  55.502  1.00  0.00    -0.368 OA
ATOM     21  H1  UNL     1     -27.782  15.820  55.273  1.00  0.00     0.212 HD
ENDBRANCH  15  20
ENDBRANCH   1  15
TORSDOF 5
ENDMDL
