MODEL 1
REMARK VINA RESULT: -7.300701666      0.000      0.000
REMARK  3 active torsions:
REMARK  status: ('A' for Active; 'I' for Inactive)
REMARK    1  A    between atoms: N6_20  and  C12_21 
REMARK    2  A    between atoms: C12_21  and  C15_24 
REMARK    3  A    between atoms: C16_25  and  C17_26 
ROOT
HETATM    1  C1  UNL     1      62.347  77.228  -4.359  1.00  0.00     0.070 C 
HETATM    2  C2  UNL     1      60.881  77.042  -4.304  1.00  0.00     0.029 A 
HETATM    3  N1  UNL     1      60.229  76.656  -5.385  1.00  0.00    -0.344 N 
ATOM      4  H1  UNL     1      60.773  76.497  -6.233  1.00  0.00     0.167 HD
HETATM    5  C3  UNL     1      58.891  76.455  -5.450  1.00  0.00     0.124 A 
HETATM    6  C4  UNL     1      58.173  76.678  -4.276  1.00  0.00     0.065 A 
HETATM    7  C5  UNL     1      58.778  77.081  -3.112  1.00  0.00     0.085 A 
HETATM    8  N2  UNL     1      58.024  77.302  -1.928  1.00  0.00    -0.100 NA
HETATM    9  C6  UNL     1      60.167  77.260  -3.150  1.00  0.00     0.092 A 
HETATM   10  C7  UNL     1      60.812  77.676  -1.962  1.00  0.00     0.103 C 
HETATM   11  N3  UNL     1      61.354  78.010  -0.991  1.00  0.00    -0.191 NA
HETATM   12  C8  UNL     1      56.873  76.399  -4.631  1.00  0.00     0.093 A 
HETATM   13  N4  UNL     1      55.597  76.349  -4.165  1.00  0.00    -0.297 N 
ATOM     14  H4  UNL     1      55.317  76.574  -3.210  1.00  0.00     0.187 HD
HETATM   15  N5  UNL     1      54.783  75.975  -5.110  1.00  0.00    -0.302 N 
ATOM     16  H5  UNL     1      53.775  75.863  -5.001  1.00  0.00     0.186 HD
HETATM   17  C9  UNL     1      55.478  75.751  -6.278  1.00  0.00     0.051 A 
HETATM   18  C10 UNL     1      54.882  75.317  -7.548  1.00  0.00     0.072 C 
HETATM   19  C11 UNL     1      56.786  76.020  -5.966  1.00  0.00     0.090 A 
HETATM   20  N6  UNL     1      58.065  76.067  -6.444  1.00  0.00    -0.308 N 
ENDROOT
BRANCH  20  21
HETATM   21  C12 UNL     1      58.432  75.745  -7.786  1.00  0.00     0.096 C 
HETATM   22  C13 UNL     1      57.981  76.740  -8.832  1.00  0.00     0.053 C 
HETATM   23  C14 UNL     1      59.952  75.732  -7.909  1.00  0.00     0.053 C 
BRANCH  21  24
HETATM   24  C15 UNL     1      58.042  74.353  -8.147  1.00  0.00    -0.072 C 
HETATM   25  C16 UNL     1      57.741  73.224  -8.457  1.00  0.00    -0.061 C 
BRANCH  25  26
HETATM   26  C17 UNL     1      57.354  71.871  -8.839  1.00  0.00     0.159 C 
HETATM   27  C18 UNL     1      56.715  71.829 -10.208  1.00  0.00     0.066 C 
HETATM   28  C19 UNL     1      58.615  71.041  -8.897  1.00  0.00     0.066 C 
HETATM   29  F1  UNL     1      56.454  71.309  -7.952  1.00  0.00    -0.230 F 
ENDBRANCH  25  26
ENDBRANCH  21  24
ENDBRANCH  20  21
TORSDOF 3
ENDMDL
MODEL 2
REMARK VINA RESULT: -7.205457992      3.377      7.235
REMARK  3 active torsions:
REMARK  status: ('A' for Active; 'I' for Inactive)
REMARK    1  A    between atoms: N6_20  and  C12_21 
REMARK    2  A    between atoms: C12_21  and  C15_24 
REMARK    3  A    between atoms: C16_25  and  C17_26 
ROOT
HETATM    1  C1  UNL     1      56.816  76.410  -5.625  1.00  0.00     0.070 C 
HETATM    2  C2  UNL     1      58.131  75.793  -5.346  1.00  0.00     0.029 A 
HETATM    3  N1  UNL     1      58.681  75.938  -4.154  1.00  0.00    -0.344 N 
ATOM      4  H1  UNL     1      58.168  76.480  -3.459  1.00  0.00     0.167 HD
HETATM    5  C3  UNL     1      59.878  75.421  -3.788  1.00  0.00     0.124 A 
HETATM    6  C4  UNL     1      60.557  74.684  -4.758  1.00  0.00     0.065 A 
HETATM    7  C5  UNL     1      60.051  74.489  -6.018  1.00  0.00     0.085 A 
HETATM    8  N2  UNL     1      60.764  73.734  -6.989  1.00  0.00    -0.100 NA
HETATM    9  C6  UNL     1      58.806  75.067  -6.296  1.00  0.00     0.092 A 
HETATM   10  C7  UNL     1      58.265  74.879  -7.590  1.00  0.00     0.103 C 
HETATM   11  N3  UNL     1      57.808  74.726  -8.646  1.00  0.00    -0.191 NA
HETATM   12  C8  UNL     1      61.710  74.289  -4.118  1.00  0.00     0.093 A 
HETATM   13  N4  UNL     1      62.867  73.593  -4.276  1.00  0.00    -0.297 N 
ATOM     14  H4  UNL     1      63.148  73.118  -5.134  1.00  0.00     0.187 HD
HETATM   15  N5  UNL     1      63.566  73.617  -3.178  1.00  0.00    -0.302 N 
ATOM     16  H5  UNL     1      64.471  73.164  -3.052  1.00  0.00     0.186 HD
HETATM   17  C9  UNL     1      62.907  74.343  -2.210  1.00  0.00     0.051 A 
HETATM   18  C10 UNL     1      63.400  74.580  -0.846  1.00  0.00     0.072 C 
HETATM   19  C11 UNL     1      61.746  74.759  -2.809  1.00  0.00     0.090 A 
HETATM   20  N6  UNL     1      60.586  75.460  -2.641  1.00  0.00    -0.308 N 
ENDROOT
BRANCH  20  21
HETATM   21  C12 UNL     1      60.215  76.115  -1.427  1.00  0.00     0.096 C 
HETATM   22  C13 UNL     1      60.568  75.370  -0.160  1.00  0.00     0.053 C 
HETATM   23  C14 UNL     1      60.970  77.435  -1.310  1.00  0.00     0.053 C 
BRANCH  21  24
HETATM   24  C15 UNL     1      58.785  76.534  -1.439  1.00  0.00    -0.072 C 
HETATM   25  C16 UNL     1      57.630  76.890  -1.434  1.00  0.00    -0.061 C 
BRANCH  25  26
HETATM   26  C17 UNL     1      56.230  77.298  -1.416  1.00  0.00     0.159 C 
HETATM   27  C18 UNL     1      55.753  77.751  -2.777  1.00  0.00     0.066 C 
HETATM   28  C19 UNL     1      55.413  76.089  -1.024  1.00  0.00     0.066 C 
HETATM   29  F1  UNL     1      55.994  78.338  -0.535  1.00  0.00    -0.230 F 
ENDBRANCH  25  26
ENDBRANCH  21  24
ENDBRANCH  20  21
TORSDOF 3
ENDMDL
MODEL 3
REMARK VINA RESULT: -7.140173913      2.958      6.197
REMARK  3 active torsions:
REMARK  status: ('A' for Active; 'I' for Inactive)
REMARK    1  A    between atoms: N6_20  and  C12_21 
REMARK    2  A    between atoms: C12_21  and  C15_24 
REMARK    3  A    between atoms: C16_25  and  C17_26 
ROOT
HETATM    1  C1  UNL     1      61.435  73.803  -8.262  1.00  0.00     0.070 C 
HETATM    2  C2  UNL     1      59.978  73.956  -8.063  1.00  0.00     0.029 A 
HETATM    3  N1  UNL     1      59.524  74.890  -7.246  1.00  0.00    -0.344 N 
ATOM      4  H1  UNL     1      60.210  75.481  -6.776  1.00  0.00     0.167 HD
HETATM    5  C3  UNL     1      58.215  75.119  -6.987  1.00  0.00     0.124 A 
HETATM    6  C4  UNL     1      57.300  74.297  -7.644  1.00  0.00     0.065 A 
HETATM    7  C5  UNL     1      57.693  73.305  -8.506  1.00  0.00     0.085 A 
HETATM    8  N2  UNL     1      56.740  72.480  -9.164  1.00  0.00    -0.100 NA
HETATM    9  C6  UNL     1      59.071  73.150  -8.706  1.00  0.00     0.092 A 
HETATM   10  C7  UNL     1      59.499  72.133  -9.591  1.00  0.00     0.103 C 
HETATM   11  N3  UNL     1      59.863  71.306 -10.320  1.00  0.00    -0.191 NA
HETATM   12  C8  UNL     1      56.078  74.752  -7.202  1.00  0.00     0.093 A 
HETATM   13  N4  UNL     1      54.736  74.560  -7.303  1.00  0.00    -0.297 N 
ATOM     14  H4  UNL     1      54.292  73.850  -7.886  1.00  0.00     0.187 HD
HETATM   15  N5  UNL     1      54.097  75.411  -6.553  1.00  0.00    -0.302 N 
ATOM     16  H5  UNL     1      53.083  75.464  -6.463  1.00  0.00     0.186 HD
HETATM   17  C9  UNL     1      54.989  76.231  -5.897  1.00  0.00     0.051 A 
HETATM   18  C10 UNL     1      54.624  77.308  -4.967  1.00  0.00     0.072 C 
HETATM   19  C11 UNL     1      56.227  75.809  -6.310  1.00  0.00     0.090 A 
HETATM   20  N6  UNL     1      57.574  76.009  -6.202  1.00  0.00    -0.308 N 
ENDROOT
BRANCH  20  21
HETATM   21  C12 UNL     1      58.171  77.013  -5.380  1.00  0.00     0.096 C 
HETATM   22  C13 UNL     1      59.682  77.028  -5.377  1.00  0.00     0.053 C 
HETATM   23  C14 UNL     1      57.781  78.393  -5.899  1.00  0.00     0.053 C 
BRANCH  21  24
HETATM   24  C15 UNL     1      57.618  76.995  -3.996  1.00  0.00    -0.072 C 
HETATM   25  C16 UNL     1      57.177  76.959  -2.871  1.00  0.00    -0.061 C 
BRANCH  25  26
HETATM   26  C17 UNL     1      56.621  76.916  -1.524  1.00  0.00     0.159 C 
HETATM   27  C18 UNL     1      55.950  78.217  -1.145  1.00  0.00     0.066 C 
HETATM   28  C19 UNL     1      55.566  75.835  -1.506  1.00  0.00     0.066 C 
HETATM   29  F1  UNL     1      57.582  76.659  -0.563  1.00  0.00    -0.230 F 
ENDBRANCH  25  26
ENDBRANCH  21  24
ENDBRANCH  20  21
TORSDOF 3
ENDMDL
MODEL 4
REMARK VINA RESULT: -7.138607727      4.041      6.820
REMARK  3 active torsions:
REMARK  status: ('A' for Active; 'I' for Inactive)
REMARK    1  A    between atoms: N6_20  and  C12_21 
REMARK    2  A    between atoms: C12_21  and  C15_24 
REMARK    3  A    between atoms: C16_25  and  C17_26 
ROOT
HETATM    1  C1  UNL     1      55.644  76.097  -1.725  1.00  0.00     0.070 C 
HETATM    2  C2  UNL     1      56.658  76.570  -2.692  1.00  0.00     0.029 A 
HETATM    3  N1  UNL     1      57.928  76.624  -2.335  1.00  0.00    -0.344 N 
ATOM      4  H1  UNL     1      58.165  76.331  -1.387  1.00  0.00     0.167 HD
HETATM    5  C3  UNL     1      58.938  77.040  -3.135  1.00  0.00     0.124 A 
HETATM    6  C4  UNL     1      58.585  77.433  -4.425  1.00  0.00     0.065 A 
HETATM    7  C5  UNL     1      57.287  77.405  -4.871  1.00  0.00     0.085 A 
HETATM    8  N2  UNL     1      56.953  77.811  -6.191  1.00  0.00    -0.100 NA
HETATM    9  C6  UNL     1      56.317  76.959  -3.965  1.00  0.00     0.092 A 
HETATM   10  C7  UNL     1      54.972  76.922  -4.402  1.00  0.00     0.103 C 
HETATM   11  N3  UNL     1      53.866  76.882  -4.752  1.00  0.00    -0.191 NA
HETATM   12  C8  UNL     1      59.785  77.793  -4.996  1.00  0.00     0.093 A 
HETATM   13  N4  UNL     1      60.359  78.261  -6.136  1.00  0.00    -0.297 N 
ATOM     14  H4  UNL     1      59.852  78.486  -6.993  1.00  0.00     0.187 HD
HETATM   15  N5  UNL     1      61.646  78.383  -5.980  1.00  0.00    -0.302 N 
ATOM     16  H5  UNL     1      62.292  78.715  -6.696  1.00  0.00     0.186 HD
HETATM   17  C9  UNL     1      62.010  77.999  -4.708  1.00  0.00     0.051 A 
HETATM   18  C10 UNL     1      63.381  78.005  -4.181  1.00  0.00     0.072 C 
HETATM   19  C11 UNL     1      60.837  77.631  -4.101  1.00  0.00     0.090 A 
HETATM   20  N6  UNL     1      60.269  77.160  -2.951  1.00  0.00    -0.308 N 
ENDROOT
BRANCH  20  21
HETATM   21  C12 UNL     1      61.001  76.851  -1.764  1.00  0.00     0.096 C 
HETATM   22  C13 UNL     1      61.533  78.047  -1.007  1.00  0.00     0.053 C 
HETATM   23  C14 UNL     1      60.083  76.152  -0.767  1.00  0.00     0.053 C 
BRANCH  21  24
HETATM   24  C15 UNL     1      62.068  75.842  -2.019  1.00  0.00    -0.072 C 
HETATM   25  C16 UNL     1      62.936  75.021  -2.204  1.00  0.00    -0.061 C 
BRANCH  25  26
HETATM   26  C17 UNL     1      63.998  74.050  -2.435  1.00  0.00     0.159 C 
HETATM   27  C18 UNL     1      63.459  72.727  -2.931  1.00  0.00     0.066 C 
HETATM   28  C19 UNL     1      64.896  74.611  -3.513  1.00  0.00     0.066 C 
HETATM   29  F1  UNL     1      64.732  73.788  -1.293  1.00  0.00    -0.230 F 
ENDBRANCH  25  26
ENDBRANCH  21  24
ENDBRANCH  20  21
TORSDOF 3
ENDMDL
MODEL 5
REMARK VINA RESULT: -7.034621019      2.281      3.620
REMARK  3 active torsions:
REMARK  status: ('A' for Active; 'I' for Inactive)
REMARK    1  A    between atoms: N6_20  and  C12_21 
REMARK    2  A    between atoms: C12_21  and  C15_24 
REMARK    3  A    between atoms: C16_25  and  C17_26 
ROOT
HETATM    1  C1  UNL     1      64.116  75.361  -3.206  1.00  0.00     0.070 C 
HETATM    2  C2  UNL     1      62.734  75.626  -2.751  1.00  0.00     0.029 A 
HETATM    3  N1  UNL     1      61.859  76.153  -3.589  1.00  0.00    -0.344 N 
ATOM      4  H1  UNL     1      62.178  76.361  -4.535  1.00  0.00     0.167 HD
HETATM    5  C3  UNL     1      60.572  76.438  -3.282  1.00  0.00     0.124 A 
HETATM    6  C4  UNL     1      60.164  76.143  -1.982  1.00  0.00     0.065 A 
HETATM    7  C5  UNL     1      61.014  75.595  -1.054  1.00  0.00     0.085 A 
HETATM    8  N2  UNL     1      60.574  75.303   0.266  1.00  0.00    -0.100 NA
HETATM    9  C6  UNL     1      62.326  75.338  -1.472  1.00  0.00     0.092 A 
HETATM   10  C7  UNL     1      63.219  74.773  -0.532  1.00  0.00     0.103 C 
HETATM   11  N3  UNL     1      63.960  74.303   0.229  1.00  0.00    -0.191 NA
HETATM   12  C8  UNL     1      58.842  76.526  -1.960  1.00  0.00     0.093 A 
HETATM   13  N4  UNL     1      57.736  76.600  -1.173  1.00  0.00    -0.297 N 
ATOM     14  H4  UNL     1      57.694  76.302  -0.198  1.00  0.00     0.187 HD
HETATM   15  N5  UNL     1      56.738  77.105  -1.839  1.00  0.00    -0.302 N 
ATOM     16  H5  UNL     1      55.803  77.259  -1.462  1.00  0.00     0.186 HD
HETATM   17  C9  UNL     1      57.126  77.403  -3.127  1.00  0.00     0.051 A 
HETATM   18  C10 UNL     1      56.259  77.987  -4.159  1.00  0.00     0.072 C 
HETATM   19  C11 UNL     1      58.445  77.036  -3.192  1.00  0.00     0.090 A 
HETATM   20  N6  UNL     1      59.551  76.965  -3.990  1.00  0.00    -0.308 N 
ENDROOT
BRANCH  20  21
HETATM   21  C12 UNL     1      59.583  77.388  -5.354  1.00  0.00     0.096 C 
HETATM   22  C13 UNL     1      59.453  78.879  -5.569  1.00  0.00     0.053 C 
HETATM   23  C14 UNL     1      60.936  77.037  -5.964  1.00  0.00     0.053 C 
BRANCH  21  24
HETATM   24  C15 UNL     1      58.616  76.625  -6.192  1.00  0.00    -0.072 C 
HETATM   25  C16 UNL     1      57.838  76.018  -6.890  1.00  0.00    -0.061 C 
BRANCH  25  26
HETATM   26  C17 UNL     1      56.880  75.297  -7.720  1.00  0.00     0.159 C 
HETATM   27  C18 UNL     1      57.330  73.883  -8.009  1.00  0.00     0.066 C 
HETATM   28  C19 UNL     1      55.585  75.216  -6.946  1.00  0.00     0.066 C 
HETATM   29  F1  UNL     1      56.667  75.914  -8.939  1.00  0.00    -0.230 F 
ENDBRANCH  25  26
ENDBRANCH  21  24
ENDBRANCH  20  21
TORSDOF 3
ENDMDL
