MODEL 1
REMARK VINA RESULT: -5.592992168      0.000      0.000
REMARK  4 active torsions:
REMARK  status: ('A' for Active; 'I' for Inactive)
REMARK    1  A    between atoms: N1_1  and  C1_5 
REMARK    2  A    between atoms: C1_5  and  C2_6 
REMARK    3  A    between atoms: C2_6  and  C3_7 
REMARK    4  A    between atoms: C3_7  and  N2_8 
ROOT
HETATM    1  N2  UNL     1      13.623   6.819   5.934  1.00  0.00    -0.196 NA
HETATM    2  C4  UNL     1      12.486   5.986   6.063  1.00  0.00     0.234 C 
HETATM    3  N3  UNL     1      12.043   5.694   4.684  1.00  0.00    -0.350 N 
ATOM      4  H3  UNL     1      11.604   4.798   4.469  1.00  0.00     0.163 HD
HETATM    5  C5  UNL     1      12.211   6.574   3.748  1.00  0.00     0.202 C 
HETATM    6  N4  UNL     1      11.804   6.345   2.402  1.00  0.00    -0.062 NA
HETATM    7  N5  UNL     1      12.821   7.805   4.094  1.00  0.00    -0.262 N 
ATOM      8  H5  UNL     1      12.974   8.518   3.380  1.00  0.00     0.186 HD
HETATM    9  N6  UNL     1      13.211   8.041   5.405  1.00  0.00    -0.044 NA
ENDROOT
BRANCH   1  10
HETATM   10  C3  UNL     1      14.470   7.003   7.038  1.00  0.00     0.115 C 
BRANCH  10  11
HETATM   11  C2  UNL     1      15.711   7.810   6.751  1.00  0.00     0.043 C 
BRANCH  11  12
HETATM   12  C1  UNL     1      15.803   8.896   7.825  1.00  0.00     0.231 C 
BRANCH  12  13
HETATM   13  N1  UNL     1      14.802   8.723   8.839  1.00  0.00    -0.079 N 
ATOM     14  H13 UNL     1      14.416   9.618   9.138  1.00  0.00     0.274 HD
ATOM     15  H12 UNL     1      13.954   8.304   8.457  1.00  0.00     0.274 HD
ATOM     16  H11 UNL     1      15.159   8.188   9.631  1.00  0.00     0.274 HD
ENDBRANCH  12  13
ENDBRANCH  11  12
ENDBRANCH  10  11
ENDBRANCH   1  10
TORSDOF 4
ENDMDL
MODEL 2
REMARK VINA RESULT: -5.522604476      1.536      2.042
REMARK  4 active torsions:
REMARK  status: ('A' for Active; 'I' for Inactive)
REMARK    1  A    between atoms: N1_1  and  C1_5 
REMARK    2  A    between atoms: C1_5  and  C2_6 
REMARK    3  A    between atoms: C2_6  and  C3_7 
REMARK    4  A    between atoms: C3_7  and  N2_8 
ROOT
HETATM    1  N2  UNL     1      12.585   5.758   4.728  1.00  0.00    -0.196 NA
HETATM    2  C4  UNL     1      11.286   5.235   4.932  1.00  0.00     0.234 C 
HETATM    3  N3  UNL     1      10.715   5.037   3.585  1.00  0.00    -0.350 N 
ATOM      4  H3  UNL     1      10.060   4.274   3.416  1.00  0.00     0.163 HD
HETATM    5  C5  UNL     1      11.047   5.831   2.616  1.00  0.00     0.202 C 
HETATM    6  N4  UNL     1      10.529   5.686   1.296  1.00  0.00    -0.062 NA
HETATM    7  N5  UNL     1      11.959   6.879   2.897  1.00  0.00    -0.262 N 
ATOM      8  H5  UNL     1      12.246   7.518   2.156  1.00  0.00     0.186 HD
HETATM    9  N6  UNL     1      12.460   7.034   4.181  1.00  0.00    -0.044 NA
ENDROOT
BRANCH   1  10
HETATM   10  C3  UNL     1      13.506   5.747   5.787  1.00  0.00     0.115 C 
BRANCH  10  11
HETATM   11  C2  UNL     1      13.185   6.697   6.912  1.00  0.00     0.043 C 
BRANCH  11  12
HETATM   12  C1  UNL     1      14.451   7.510   7.193  1.00  0.00     0.231 C 
BRANCH  12  13
HETATM   13  N1  UNL     1      14.670   8.510   6.189  1.00  0.00    -0.079 N 
ATOM     14  H13 UNL     1      14.301   8.218   5.285  1.00  0.00     0.274 HD
ATOM     15  H12 UNL     1      14.081   9.329   6.343  1.00  0.00     0.274 HD
ATOM     16  H11 UNL     1      15.656   8.767   6.124  1.00  0.00     0.274 HD
ENDBRANCH  12  13
ENDBRANCH  11  12
ENDBRANCH  10  11
ENDBRANCH   1  10
TORSDOF 4
ENDMDL
MODEL 3
REMARK VINA RESULT: -5.490900099      1.312      1.403
REMARK  4 active torsions:
REMARK  status: ('A' for Active; 'I' for Inactive)
REMARK    1  A    between atoms: N1_1  and  C1_5 
REMARK    2  A    between atoms: C1_5  and  C2_6 
REMARK    3  A    between atoms: C2_6  and  C3_7 
REMARK    4  A    between atoms: C3_7  and  N2_8 
ROOT
HETATM    1  N2  UNL     1      13.647   7.788   5.421  1.00  0.00    -0.196 NA
HETATM    2  C4  UNL     1      12.732   6.792   5.837  1.00  0.00     0.234 C 
HETATM    3  N3  UNL     1      12.291   6.110   4.604  1.00  0.00    -0.350 N 
ATOM      4  H3  UNL     1      12.051   5.118   4.627  1.00  0.00     0.163 HD
HETATM    5  C5  UNL     1      12.208   6.769   3.491  1.00  0.00     0.202 C 
HETATM    6  N4  UNL     1      11.789   6.162   2.272  1.00  0.00    -0.062 NA
HETATM    7  N5  UNL     1      12.548   8.145   3.507  1.00  0.00    -0.262 N 
ATOM      8  H5  UNL     1      12.500   8.692   2.647  1.00  0.00     0.186 HD
HETATM    9  N6  UNL     1      12.946   8.747   4.691  1.00  0.00    -0.044 NA
ENDROOT
BRANCH   1  10
HETATM   10  C3  UNL     1      14.491   8.388   6.369  1.00  0.00     0.115 C 
BRANCH  10  11
HETATM   11  C2  UNL     1      14.762   7.549   7.591  1.00  0.00     0.043 C 
BRANCH  11  12
HETATM   12  C1  UNL     1      16.281   7.469   7.757  1.00  0.00     0.231 C 
BRANCH  12  13
HETATM   13  N1  UNL     1      16.958   7.603   6.500  1.00  0.00    -0.079 N 
ATOM     14  H13 UNL     1      16.602   6.940   5.812  1.00  0.00     0.274 HD
ATOM     15  H12 UNL     1      16.701   8.471   6.030  1.00  0.00     0.274 HD
ATOM     16  H11 UNL     1      17.970   7.522   6.607  1.00  0.00     0.274 HD
ENDBRANCH  12  13
ENDBRANCH  11  12
ENDBRANCH  10  11
ENDBRANCH   1  10
TORSDOF 4
ENDMDL
MODEL 4
REMARK VINA RESULT: -5.207653356      2.631      5.692
REMARK  4 active torsions:
REMARK  status: ('A' for Active; 'I' for Inactive)
REMARK    1  A    between atoms: N1_1  and  C1_5 
REMARK    2  A    between atoms: C1_5  and  C2_6 
REMARK    3  A    between atoms: C2_6  and  C3_7 
REMARK    4  A    between atoms: C3_7  and  N2_8 
ROOT
HETATM    1  N2  UNL     1      11.119   5.508   3.353  1.00  0.00    -0.196 NA
HETATM    2  C4  UNL     1      11.996   5.009   4.345  1.00  0.00     0.234 C 
HETATM    3  N3  UNL     1      12.524   6.195   5.050  1.00  0.00    -0.350 N 
ATOM      4  H3  UNL     1      12.756   6.137   6.041  1.00  0.00     0.163 HD
HETATM    5  C5  UNL     1      12.692   7.309   4.410  1.00  0.00     0.202 C 
HETATM    6  N4  UNL     1      13.197   8.483   5.039  1.00  0.00    -0.062 NA
HETATM    7  N5  UNL     1      12.359   7.342   3.032  1.00  0.00    -0.262 N 
ATOM      8  H5  UNL     1      12.473   8.204   2.500  1.00  0.00     0.186 HD
HETATM    9  N6  UNL     1      11.877   6.200   2.409  1.00  0.00    -0.044 NA
ENDROOT
BRANCH   1  10
HETATM   10  C3  UNL     1      10.210   4.636   2.734  1.00  0.00     0.115 C 
BRANCH  10  11
HETATM   11  C2  UNL     1       8.780   4.796   3.180  1.00  0.00     0.043 C 
BRANCH  11  12
HETATM   12  C1  UNL     1       8.072   5.655   2.130  1.00  0.00     0.231 C 
BRANCH  12  13
HETATM   13  N1  UNL     1       8.963   6.612   1.541  1.00  0.00    -0.079 N 
ATOM     14  H13 UNL     1       8.576   7.554   1.576  1.00  0.00     0.274 HD
ATOM     15  H12 UNL     1       9.789   6.759   2.122  1.00  0.00     0.274 HD
ATOM     16  H11 UNL     1       9.220   6.349   0.589  1.00  0.00     0.274 HD
ENDBRANCH  12  13
ENDBRANCH  11  12
ENDBRANCH  10  11
ENDBRANCH   1  10
TORSDOF 4
ENDMDL
MODEL 5
REMARK VINA RESULT: -5.049955726      1.512      5.131
REMARK  4 active torsions:
REMARK  status: ('A' for Active; 'I' for Inactive)
REMARK    1  A    between atoms: N1_1  and  C1_5 
REMARK    2  A    between atoms: C1_5  and  C2_6 
REMARK    3  A    between atoms: C2_6  and  C3_7 
REMARK    4  A    between atoms: C3_7  and  N2_8 
ROOT
HETATM    1  N2  UNL     1      12.261   6.192   5.021  1.00  0.00    -0.196 NA
HETATM    2  C4  UNL     1      13.246   5.381   5.634  1.00  0.00     0.234 C 
HETATM    3  N3  UNL     1      13.795   6.186   6.744  1.00  0.00    -0.350 N 
ATOM      4  H3  UNL     1      14.123   5.725   7.594  1.00  0.00     0.163 HD
HETATM    5  C5  UNL     1      13.860   7.476   6.642  1.00  0.00     0.202 C 
HETATM    6  N4  UNL     1      14.379   8.300   7.682  1.00  0.00    -0.062 NA
HETATM    7  N5  UNL     1      13.395   8.072   5.443  1.00  0.00    -0.262 N 
ATOM      8  H5  UNL     1      13.426   9.085   5.332  1.00  0.00     0.186 HD
HETATM    9  N6  UNL     1      12.899   7.277   4.421  1.00  0.00    -0.044 NA
ENDROOT
BRANCH   1  10
HETATM   10  C3  UNL     1      11.330   5.605   4.150  1.00  0.00     0.115 C 
BRANCH  10  11
HETATM   11  C2  UNL     1      11.322   6.179   2.757  1.00  0.00     0.043 C 
BRANCH  11  12
HETATM   12  C1  UNL     1      10.138   5.555   2.016  1.00  0.00     0.231 C 
BRANCH  12  13
HETATM   13  N1  UNL     1       9.194   6.549   1.594  1.00  0.00    -0.079 N 
ATOM     14  H13 UNL     1       8.236   6.263   1.794  1.00  0.00     0.274 HD
ATOM     15  H12 UNL     1       9.238   7.379   2.186  1.00  0.00     0.274 HD
ATOM     16  H11 UNL     1       9.314   6.787   0.609  1.00  0.00     0.274 HD
ENDBRANCH  12  13
ENDBRANCH  11  12
ENDBRANCH  10  11
ENDBRANCH   1  10
TORSDOF 4
ENDMDL
