MODEL 1
REMARK VINA RESULT: -7.697638070      0.000      0.000
REMARK  6 active torsions:
REMARK  status: ('A' for Active; 'I' for Inactive)
REMARK    1  A    between atoms: O1_2  and  C2_3 
REMARK    2  A    between atoms: C5_6  and  C6_7 
REMARK    3  A    between atoms: C9_11  and  O2_12 
REMARK    4  A    between atoms: C10_14  and  C11_15 
REMARK    5  A    between atoms: C11_15  and  C12_16 
REMARK       I    between atoms: C12_16  and  N1_18 
REMARK    6  A    between atoms: C13_19  and  C14_20 
ROOT
HETATM    1  C2  UNL     1       6.490   5.641  17.905  1.00  0.00     0.130 C 
HETATM    2  C3  UNL     1       7.709   4.745  17.611  1.00  0.00     0.017 C 
HETATM    3  C4  UNL     1       6.923   3.458  17.382  1.00  0.00     0.018 C 
HETATM    4  C5  UNL     1       5.870   3.539  18.500  1.00  0.00    -0.024 C 
HETATM    5  C7  UNL     1       6.058   2.355  19.372  1.00  0.00     0.013 C 
HETATM    6  C8  UNL     1       7.434   2.369  20.000  1.00  0.00     0.033 C 
HETATM    7  C9  UNL     1       7.434   3.639  20.844  1.00  0.00     0.127 C 
HETATM    8  C10 UNL     1       7.322   4.883  20.012  1.00  0.00     0.001 C 
HETATM    9  C19 UNL     1       8.413   4.790  18.923  1.00  0.00     0.020 C 
HETATM   10  C20 UNL     1       6.075   4.887  19.155  1.00  0.00     0.036 C 
ENDROOT
BRANCH   8  11
HETATM   11  C11 UNL     1       7.563   6.109  20.784  1.00  0.00     0.115 C 
BRANCH  11  12
HETATM   12  C12 UNL     1       6.464   6.779  21.496  1.00  0.00     0.222 C 
HETATM   13  O3  UNL     1       5.334   6.278  21.683  1.00  0.00    -0.273 OA
HETATM   14  N1  UNL     1       6.645   8.090  22.027  1.00  0.00    -0.327 N 
HETATM   15  C13 UNL     1       7.853   8.881  21.945  1.00  0.00     0.246 C 
HETATM   16  C18 UNL     1       5.644   8.844  22.732  1.00  0.00     0.100 A 
HETATM   17  C15 UNL     1       7.408  10.286  22.146  1.00  0.00     0.164 C 
HETATM   18  O5  UNL     1       8.016  11.260  21.816  1.00  0.00    -0.295 OA
HETATM   19  C16 UNL     1       6.101  10.249  22.814  1.00  0.00     0.083 A 
HETATM   20  C17 UNL     1       4.911   9.907  21.964  1.00  0.00     0.040 A 
BRANCH  15  21
HETATM   21  C14 UNL     1       8.775   8.571  23.064  1.00  0.00     0.261 C 
HETATM   22  N2  UNL     1       9.993   9.276  23.196  1.00  0.00    -0.060 NA
HETATM   23  O4  UNL     1       8.511   7.691  23.908  1.00  0.00    -0.274 OA
ENDBRANCH  15  21
ENDBRANCH  11  12
ENDBRANCH   8  11
BRANCH   7  24
HETATM   24  O2  UNL     1       6.359   3.435  21.698  1.00  0.00    -0.395 OA
ATOM     25  H2  UNL     1       6.642   3.869  22.494  1.00  0.00     0.210 HD
ENDBRANCH   7  24
BRANCH   1  26
HETATM   26  O1  UNL     1       6.765   6.948  18.024  1.00  0.00    -0.390 OA
HETATM   27  C1  UNL     1       5.552   7.674  18.027  1.00  0.00     0.202 C 
ENDBRANCH   1  26
BRANCH   4  28
HETATM   28  C6  UNL     1       4.465   3.433  17.926  1.00  0.00     0.095 C 
HETATM   29 BR1  UNL     1       3.410   2.307  19.068  1.00  0.00    -0.096 Br
ENDBRANCH   4  28
TORSDOF 6
ENDMDL
MODEL 2
REMARK VINA RESULT: -7.668561586      1.439      1.532
REMARK  6 active torsions:
REMARK  status: ('A' for Active; 'I' for Inactive)
REMARK    1  A    between atoms: O1_2  and  C2_3 
REMARK    2  A    between atoms: C5_6  and  C6_7 
REMARK    3  A    between atoms: C9_11  and  O2_12 
REMARK    4  A    between atoms: C10_14  and  C11_15 
REMARK    5  A    between atoms: C11_15  and  C12_16 
REMARK       I    between atoms: C12_16  and  N1_18 
REMARK    6  A    between atoms: C13_19  and  C14_20 
ROOT
HETATM    1  C2  UNL     1       6.771   4.441  17.075  1.00  0.00     0.130 C 
HETATM    2  C3  UNL     1       8.037   3.632  17.418  1.00  0.00     0.017 C 
HETATM    3  C4  UNL     1       7.316   2.365  17.862  1.00  0.00     0.018 C 
HETATM    4  C5  UNL     1       6.140   2.947  18.665  1.00  0.00    -0.024 C 
HETATM    5  C7  UNL     1       6.257   2.439  20.053  1.00  0.00     0.013 C 
HETATM    6  C8  UNL     1       7.551   2.905  20.683  1.00  0.00     0.033 C 
HETATM    7  C9  UNL     1       7.422   4.424  20.696  1.00  0.00     0.127 C 
HETATM    8  C10 UNL     1       7.374   5.010  19.315  1.00  0.00     0.001 C 
HETATM    9  C19 UNL     1       8.585   4.436  18.547  1.00  0.00     0.020 C 
HETATM   10  C20 UNL     1       6.235   4.447  18.495  1.00  0.00     0.036 C 
ENDROOT
BRANCH   8  11
HETATM   11  C11 UNL     1       7.494   6.473  19.312  1.00  0.00     0.115 C 
BRANCH  11  12
HETATM   12  C12 UNL     1       6.406   7.318  19.828  1.00  0.00     0.222 C 
HETATM   13  O3  UNL     1       5.194   7.021  19.773  1.00  0.00    -0.273 OA
HETATM   14  N1  UNL     1       6.700   8.572  20.441  1.00  0.00    -0.327 N 
HETATM   15  C13 UNL     1       8.017   9.140  20.626  1.00  0.00     0.246 C 
HETATM   16  C18 UNL     1       5.723   9.483  20.973  1.00  0.00     0.100 A 
HETATM   17  C15 UNL     1       7.786  10.600  20.799  1.00  0.00     0.164 C 
HETATM   18  O5  UNL     1       8.603  11.455  20.635  1.00  0.00    -0.295 OA
HETATM   19  C16 UNL     1       6.387  10.786  21.202  1.00  0.00     0.083 A 
HETATM   20  C17 UNL     1       5.347  10.665  20.126  1.00  0.00     0.040 A 
BRANCH  15  21
HETATM   21  C14 UNL     1       8.635   8.663  21.887  1.00  0.00     0.261 C 
HETATM   22  N2  UNL     1       8.101   7.539  22.557  1.00  0.00    -0.060 NA
HETATM   23  O4  UNL     1       9.628   9.229  22.388  1.00  0.00    -0.274 OA
ENDBRANCH  15  21
ENDBRANCH  11  12
ENDBRANCH   8  11
BRANCH   7  24
HETATM   24  O2  UNL     1       6.261   4.622  21.432  1.00  0.00    -0.395 OA
ATOM     25  H2  UNL     1       5.843   5.339  20.969  1.00  0.00     0.210 HD
ENDBRANCH   7  24
BRANCH   1  26
HETATM   26  O1  UNL     1       6.997   5.623  16.485  1.00  0.00    -0.390 OA
HETATM   27  C1  UNL     1       5.777   6.123  15.977  1.00  0.00     0.202 C 
ENDBRANCH   1  26
BRANCH   4  28
HETATM   28  C6  UNL     1       4.814   2.431  18.128  1.00  0.00     0.095 C 
HETATM   29 BR1  UNL     1       3.513   2.470  19.539  1.00  0.00    -0.096 Br
ENDBRANCH   4  28
TORSDOF 6
ENDMDL
MODEL 3
REMARK VINA RESULT: -7.581255612      1.930      3.201
REMARK  6 active torsions:
REMARK  status: ('A' for Active; 'I' for Inactive)
REMARK    1  A    between atoms: O1_2  and  C2_3 
REMARK    2  A    between atoms: C5_6  and  C6_7 
REMARK    3  A    between atoms: C9_11  and  O2_12 
REMARK    4  A    between atoms: C10_14  and  C11_15 
REMARK    5  A    between atoms: C11_15  and  C12_16 
REMARK       I    between atoms: C12_16  and  N1_18 
REMARK    6  A    between atoms: C13_19  and  C14_20 
ROOT
HETATM    1  C2  UNL     1       5.890   2.855  20.842  1.00  0.00     0.130 C 
HETATM    2  C3  UNL     1       4.999   3.157  19.621  1.00  0.00     0.017 C 
HETATM    3  C4  UNL     1       6.008   2.724  18.563  1.00  0.00     0.018 C 
HETATM    4  C5  UNL     1       7.316   3.301  19.131  1.00  0.00    -0.024 C 
HETATM    5  C7  UNL     1       7.847   4.261  18.134  1.00  0.00     0.013 C 
HETATM    6  C8  UNL     1       6.872   5.396  17.916  1.00  0.00     0.033 C 
HETATM    7  C9  UNL     1       6.782   6.065  19.283  1.00  0.00     0.127 C 
HETATM    8  C10 UNL     1       6.180   5.169  20.325  1.00  0.00     0.001 C 
HETATM    9  C19 UNL     1       4.854   4.636  19.740  1.00  0.00     0.020 C 
HETATM   10  C20 UNL     1       6.952   3.877  20.482  1.00  0.00     0.036 C 
ENDROOT
BRANCH   8  11
HETATM   11  C11 UNL     1       5.867   5.875  21.574  1.00  0.00     0.115 C 
BRANCH  11  12
HETATM   12  C12 UNL     1       5.410   7.273  21.553  1.00  0.00     0.222 C 
HETATM   13  O3  UNL     1       4.310   7.651  21.097  1.00  0.00    -0.273 OA
HETATM   14  N1  UNL     1       6.241   8.307  22.076  1.00  0.00    -0.327 N 
HETATM   15  C13 UNL     1       7.554   8.131  22.659  1.00  0.00     0.246 C 
HETATM   16  C18 UNL     1       5.907   9.705  22.103  1.00  0.00     0.100 A 
HETATM   17  C15 UNL     1       8.202   9.467  22.560  1.00  0.00     0.164 C 
HETATM   18  O5  UNL     1       9.378   9.671  22.603  1.00  0.00    -0.295 OA
HETATM   19  C16 UNL     1       7.140  10.467  22.400  1.00  0.00     0.083 A 
HETATM   20  C17 UNL     1       6.510  10.581  21.042  1.00  0.00     0.040 A 
BRANCH  15  21
HETATM   21  C14 UNL     1       7.461   7.818  24.105  1.00  0.00     0.261 C 
HETATM   22  N2  UNL     1       8.635   7.693  24.881  1.00  0.00    -0.060 NA
HETATM   23  O4  UNL     1       6.361   7.656  24.673  1.00  0.00    -0.274 OA
ENDBRANCH  15  21
ENDBRANCH  11  12
ENDBRANCH   8  11
BRANCH   7  24
HETATM   24  O2  UNL     1       8.102   6.414  19.536  1.00  0.00    -0.395 OA
ATOM     25  H2  UNL     1       8.059   6.757  20.421  1.00  0.00     0.210 HD
ENDBRANCH   7  24
BRANCH   1  26
HETATM   26  O1  UNL     1       5.280   2.975  22.030  1.00  0.00    -0.390 OA
HETATM   27  C1  UNL     1       4.484   1.829  22.256  1.00  0.00     0.202 C 
ENDBRANCH   1  26
BRANCH   4  28
HETATM   28  C6  UNL     1       8.365   2.210  19.281  1.00  0.00     0.095 C 
HETATM   29 BR1  UNL     1       9.709   2.450  17.933  1.00  0.00    -0.096 Br
ENDBRANCH   4  28
TORSDOF 6
ENDMDL
MODEL 4
REMARK VINA RESULT: -7.145496997      2.187      3.921
REMARK  6 active torsions:
REMARK  status: ('A' for Active; 'I' for Inactive)
REMARK    1  A    between atoms: O1_2  and  C2_3 
REMARK    2  A    between atoms: C5_6  and  C6_7 
REMARK    3  A    between atoms: C9_11  and  O2_12 
REMARK    4  A    between atoms: C10_14  and  C11_15 
REMARK    5  A    between atoms: C11_15  and  C12_16 
REMARK       I    between atoms: C12_16  and  N1_18 
REMARK    6  A    between atoms: C13_19  and  C14_20 
ROOT
HETATM    1  C2  UNL     1       7.486   3.394  19.671  1.00  0.00     0.130 C 
HETATM    2  C3  UNL     1       6.484   2.439  18.994  1.00  0.00     0.017 C 
HETATM    3  C4  UNL     1       7.423   1.961  17.891  1.00  0.00     0.018 C 
HETATM    4  C5  UNL     1       8.122   3.272  17.494  1.00  0.00    -0.024 C 
HETATM    5  C7  UNL     1       7.820   3.519  16.063  1.00  0.00     0.013 C 
HETATM    6  C8  UNL     1       6.331   3.681  15.854  1.00  0.00     0.033 C 
HETATM    7  C9  UNL     1       5.982   4.915  16.678  1.00  0.00     0.127 C 
HETATM    8  C10 UNL     1       6.193   4.705  18.149  1.00  0.00     0.001 C 
HETATM    9  C19 UNL     1       5.451   3.404  18.523  1.00  0.00     0.020 C 
HETATM   10  C20 UNL     1       7.619   4.313  18.469  1.00  0.00     0.036 C 
ENDROOT
BRANCH   8  11
HETATM   11  C11 UNL     1       5.636   5.790  18.967  1.00  0.00     0.115 C 
BRANCH  11  12
HETATM   12  C12 UNL     1       6.247   7.128  18.958  1.00  0.00     0.222 C 
HETATM   13  O3  UNL     1       6.389   7.834  17.936  1.00  0.00    -0.273 OA
HETATM   14  N1  UNL     1       6.727   7.706  20.170  1.00  0.00    -0.327 N 
HETATM   15  C13 UNL     1       6.679   7.096  21.481  1.00  0.00     0.246 C 
HETATM   16  C18 UNL     1       7.347   8.999  20.283  1.00  0.00     0.100 A 
HETATM   17  C15 UNL     1       7.724   7.801  22.273  1.00  0.00     0.164 C 
HETATM   18  O5  UNL     1       8.238   7.385  23.267  1.00  0.00    -0.295 OA
HETATM   19  C16 UNL     1       7.997   9.082  21.610  1.00  0.00     0.083 A 
HETATM   20  C17 UNL     1       8.846   9.041  20.372  1.00  0.00     0.040 A 
BRANCH  15  21
HETATM   21  C14 UNL     1       5.387   7.372  22.154  1.00  0.00     0.261 C 
HETATM   22  N2  UNL     1       4.958   6.558  23.227  1.00  0.00    -0.060 NA
HETATM   23  O4  UNL     1       4.650   8.315  21.800  1.00  0.00    -0.274 OA
ENDBRANCH  15  21
ENDBRANCH  11  12
ENDBRANCH   8  11
BRANCH   7  24
HETATM   24  O2  UNL     1       6.801   5.890  16.125  1.00  0.00    -0.395 OA
ATOM     25  H2  UNL     1       7.476   5.376  15.699  1.00  0.00     0.210 HD
ENDBRANCH   7  24
BRANCH   1  26
HETATM   26  O1  UNL     1       7.066   3.929  20.826  1.00  0.00    -0.390 OA
HETATM   27  C1  UNL     1       6.554   2.901  21.649  1.00  0.00     0.202 C 
ENDBRANCH   1  26
BRANCH   4  28
HETATM   28  C6  UNL     1       9.633   3.129  17.597  1.00  0.00     0.095 C 
HETATM   29 BR1  UNL     1      10.063   1.287  17.919  1.00  0.00    -0.096 Br
ENDBRANCH   4  28
TORSDOF 6
ENDMDL
MODEL 5
REMARK VINA RESULT: -7.041338618      3.015      6.411
REMARK  6 active torsions:
REMARK  status: ('A' for Active; 'I' for Inactive)
REMARK    1  A    between atoms: O1_2  and  C2_3 
REMARK    2  A    between atoms: C5_6  and  C6_7 
REMARK    3  A    between atoms: C9_11  and  O2_12 
REMARK    4  A    between atoms: C10_14  and  C11_15 
REMARK    5  A    between atoms: C11_15  and  C12_16 
REMARK       I    between atoms: C12_16  and  N1_18 
REMARK    6  A    between atoms: C13_19  and  C14_20 
ROOT
HETATM    1  C2  UNL     1       7.720   8.808  21.439  1.00  0.00     0.130 C 
HETATM    2  C3  UNL     1       6.852   9.979  21.941  1.00  0.00     0.017 C 
HETATM    3  C4  UNL     1       7.547  10.141  23.289  1.00  0.00     0.018 C 
HETATM    4  C5  UNL     1       7.751   8.675  23.707  1.00  0.00    -0.024 C 
HETATM    5  C7  UNL     1       7.020   8.471  24.980  1.00  0.00     0.013 C 
HETATM    6  C8  UNL     1       5.540   8.719  24.790  1.00  0.00     0.033 C 
HETATM    7  C9  UNL     1       5.123   7.658  23.777  1.00  0.00     0.127 C 
HETATM    8  C10 UNL     1       5.772   7.853  22.439  1.00  0.00     0.001 C 
HETATM    9  C19 UNL     1       5.518   9.320  22.031  1.00  0.00     0.020 C 
HETATM   10  C20 UNL     1       7.282   7.848  22.531  1.00  0.00     0.036 C 
ENDROOT
BRANCH   8  11
HETATM   11  C11 UNL     1       5.198   6.993  21.396  1.00  0.00     0.115 C 
BRANCH  11  12
HETATM   12  C12 UNL     1       5.194   5.529  21.546  1.00  0.00     0.222 C 
HETATM   13  O3  UNL     1       4.532   4.909  22.406  1.00  0.00    -0.273 OA
HETATM   14  N1  UNL     1       5.981   4.716  20.678  1.00  0.00    -0.327 N 
HETATM   15  C13 UNL     1       6.829   5.190  19.606  1.00  0.00     0.246 C 
HETATM   16  C18 UNL     1       6.062   3.282  20.734  1.00  0.00     0.100 A 
HETATM   17  C15 UNL     1       7.798   4.087  19.365  1.00  0.00     0.164 C 
HETATM   18  O5  UNL     1       8.856   4.200  18.823  1.00  0.00    -0.295 OA
HETATM   19  C16 UNL     1       7.217   2.855  19.913  1.00  0.00     0.083 A 
HETATM   20  C17 UNL     1       7.266   2.683  21.404  1.00  0.00     0.040 A 
BRANCH  15  21
HETATM   21  C14 UNL     1       6.062   5.353  18.347  1.00  0.00     0.261 C 
HETATM   22  N2  UNL     1       6.604   6.103  17.279  1.00  0.00    -0.060 NA
HETATM   23  O4  UNL     1       4.932   4.845  18.195  1.00  0.00    -0.274 OA
ENDBRANCH  15  21
ENDBRANCH  11  12
ENDBRANCH   8  11
BRANCH   7  24
HETATM   24  O2  UNL     1       5.483   6.477  24.411  1.00  0.00    -0.395 OA
ATOM     25  H2  UNL     1       5.763   5.931  23.686  1.00  0.00     0.210 HD
ENDBRANCH   7  24
BRANCH   1  26
HETATM   26  O1  UNL     1       7.505   8.450  20.165  1.00  0.00    -0.390 OA
HETATM   27  C1  UNL     1       7.756   9.561  19.328  1.00  0.00     0.202 C 
ENDBRANCH   1  26
BRANCH   4  28
HETATM   28  C6  UNL     1       9.218   8.399  24.002  1.00  0.00     0.095 C 
HETATM   29 BR1  UNL     1       9.470   8.345  25.904  1.00  0.00    -0.096 Br
ENDBRANCH   4  28
TORSDOF 6
ENDMDL
