MODEL 1
REMARK VINA RESULT: -6.689417762      0.000      0.000
REMARK  7 active torsions:
REMARK  status: ('A' for Active; 'I' for Inactive)
REMARK    1  A    between atoms: C2_2  and  C3_3 
REMARK    2  A    between atoms: C2_2  and  N2_13 
REMARK       I    between atoms: C3_3  and  N1_5 
REMARK    3  A    between atoms: N1_5  and  C4_7 
REMARK    4  A    between atoms: C4_7  and  C6_9 
REMARK    5  A    between atoms: C10_14  and  C11_15 
REMARK       I    between atoms: C11_15  and  N3_17 
REMARK    6  A    between atoms: N3_17  and  C12_19 
REMARK    7  A    between atoms: C16_23  and  C17_25 
REMARK       I    between atoms: C17_25  and  N4_27 
ROOT
HETATM    1  N2  UNL     1       6.227   8.766  22.022  1.00  0.00    -0.347 N 
HETATM    2  C10 UNL     1       5.807   9.130  20.689  1.00  0.00     0.235 C 
HETATM    3  C16 UNL     1       6.738  10.309  20.375  1.00  0.00     0.274 C 
HETATM    4  F1  UNL     1       6.373  11.385  21.123  1.00  0.00    -0.221 F 
HETATM    5  C20 UNL     1       7.992   9.692  20.948  1.00  0.00     0.206 C 
HETATM    6  O4  UNL     1       9.086   9.629  20.465  1.00  0.00    -0.291 OA
HETATM    7  C21 UNL     1       7.512   9.164  22.302  1.00  0.00     0.091 C 
HETATM    8  C22 UNL     1       7.822  10.266  23.248  1.00  0.00     0.047 C 
HETATM    9  C23 UNL     1       8.407   8.000  22.699  1.00  0.00     0.047 C 
ENDROOT
BRANCH   1  10
HETATM   10  C2  UNL     1       5.484   7.811  22.707  1.00  0.00     0.073 C 
HETATM   11  C1  UNL     1       4.503   8.270  23.762  1.00  0.00     0.074 C 
BRANCH  10  12
HETATM   12  C3  UNL     1       5.108   6.555  22.031  1.00  0.00     0.263 C 
HETATM   13  O1  UNL     1       3.929   6.443  21.552  1.00  0.00    -0.266 OA
HETATM   14  N1  UNL     1       5.912   5.415  21.837  1.00  0.00    -0.351 N 
ATOM     15  H1  UNL     1       6.866   5.421  22.197  1.00  0.00     0.163 HD
BRANCH  14  16
HETATM   16  C4  UNL     1       5.430   4.226  21.142  1.00  0.00     0.088 C 
HETATM   17  C5  UNL     1       4.727   3.276  22.105  1.00  0.00     0.033 C 
BRANCH  16  18
HETATM   18  C6  UNL     1       6.639   3.509  20.595  1.00  0.00    -0.031 C 
HETATM   19  C7  UNL     1       6.222   2.864  19.266  1.00  0.00     0.016 C 
HETATM   20  C8  UNL     1       6.928   2.346  21.541  1.00  0.00     0.016 C 
HETATM   21  C9  UNL     1       7.832   4.388  20.417  1.00  0.00     0.016 C 
ENDBRANCH  16  18
ENDBRANCH  14  16
ENDBRANCH  10  12
ENDBRANCH   1  10
BRANCH   2  22
HETATM   22  C11 UNL     1       5.940   8.097  19.678  1.00  0.00     0.245 C 
HETATM   23  O2  UNL     1       6.969   7.416  19.571  1.00  0.00    -0.271 OA
HETATM   24  N3  UNL     1       4.867   7.842  18.777  1.00  0.00    -0.351 N 
ATOM     25  H3  UNL     1       4.024   8.409  18.873  1.00  0.00     0.163 HD
BRANCH  24  26
HETATM   26  C12 UNL     1       4.887   6.849  17.747  1.00  0.00     0.022 C 
HETATM   27  C13 UNL     1       3.924   5.721  18.115  1.00  0.00     0.037 C 
HETATM   28  C14 UNL     1       4.339   7.429  16.464  1.00  0.00     0.037 C 
HETATM   29  C15 UNL     1       6.226   6.221  17.495  1.00  0.00     0.037 C 
ENDBRANCH  24  26
ENDBRANCH   2  22
BRANCH   3  30
HETATM   30  C17 UNL     1       6.931  10.606  18.967  1.00  0.00     0.269 C 
HETATM   31  O3  UNL     1       8.034  10.210  18.438  1.00  0.00    -0.269 OA
HETATM   32  N4  UNL     1       6.071  11.275  18.090  1.00  0.00    -0.358 N 
HETATM   33  C18 UNL     1       6.433  11.488  16.713  1.00  0.00     0.152 C 
HETATM   34  C19 UNL     1       4.805  11.782  18.532  1.00  0.00     0.152 C 
ENDBRANCH   3  30
TORSDOF 7
ENDMDL
MODEL 2
REMARK VINA RESULT: -6.601955467      2.219      4.542
REMARK  7 active torsions:
REMARK  status: ('A' for Active; 'I' for Inactive)
REMARK    1  A    between atoms: C2_2  and  C3_3 
REMARK    2  A    between atoms: C2_2  and  N2_13 
REMARK       I    between atoms: C3_3  and  N1_5 
REMARK    3  A    between atoms: N1_5  and  C4_7 
REMARK    4  A    between atoms: C4_7  and  C6_9 
REMARK    5  A    between atoms: C10_14  and  C11_15 
REMARK       I    between atoms: C11_15  and  N3_17 
REMARK    6  A    between atoms: N3_17  and  C12_19 
REMARK    7  A    between atoms: C16_23  and  C17_25 
REMARK       I    between atoms: C17_25  and  N4_27 
ROOT
HETATM    1  N2  UNL     1       6.269   7.344  19.699  1.00  0.00    -0.347 N 
HETATM    2  C10 UNL     1       6.579   8.739  19.490  1.00  0.00     0.235 C 
HETATM    3  C16 UNL     1       5.182   9.373  19.462  1.00  0.00     0.274 C 
HETATM    4  F1  UNL     1       4.547   9.017  18.312  1.00  0.00    -0.221 F 
HETATM    5  C20 UNL     1       4.616   8.586  20.621  1.00  0.00     0.206 C 
HETATM    6  O4  UNL     1       3.992   8.983  21.563  1.00  0.00    -0.291 OA
HETATM    7  C21 UNL     1       5.042   7.154  20.289  1.00  0.00     0.091 C 
HETATM    8  C22 UNL     1       3.879   6.594  19.556  1.00  0.00     0.047 C 
HETATM    9  C23 UNL     1       5.139   6.377  21.592  1.00  0.00     0.047 C 
ENDROOT
BRANCH   1  10
HETATM   10  C2  UNL     1       7.307   6.421  19.624  1.00  0.00     0.073 C 
HETATM   11  C1  UNL     1       7.970   5.965  20.903  1.00  0.00     0.074 C 
BRANCH  10  12
HETATM   12  C3  UNL     1       7.316   5.420  18.541  1.00  0.00     0.263 C 
HETATM   13  O1  UNL     1       7.021   5.792  17.356  1.00  0.00    -0.266 OA
HETATM   14  N1  UNL     1       7.619   4.049  18.648  1.00  0.00    -0.351 N 
ATOM     15  H1  UNL     1       7.859   3.669  19.564  1.00  0.00     0.163 HD
BRANCH  14  16
HETATM   16  C4  UNL     1       7.603   3.151  17.499  1.00  0.00     0.088 C 
HETATM   17  C5  UNL     1       6.269   2.421  17.392  1.00  0.00     0.033 C 
BRANCH  16  18
HETATM   18  C6  UNL     1       8.674   2.113  17.728  1.00  0.00    -0.031 C 
HETATM   19  C7  UNL     1       8.517   1.610  19.169  1.00  0.00     0.016 C 
HETATM   20  C8  UNL     1      10.013   2.845  17.693  1.00  0.00     0.016 C 
HETATM   21  C9  UNL     1       8.635   0.982  16.754  1.00  0.00     0.016 C 
ENDBRANCH  16  18
ENDBRANCH  14  16
ENDBRANCH  10  12
ENDBRANCH   1  10
BRANCH   2  22
HETATM   22  C11 UNL     1       7.399   9.366  20.509  1.00  0.00     0.245 C 
HETATM   23  O2  UNL     1       8.373  10.075  20.220  1.00  0.00    -0.271 OA
HETATM   24  N3  UNL     1       7.090   9.176  21.886  1.00  0.00    -0.351 N 
ATOM     25  H3  UNL     1       6.287   8.590  22.115  1.00  0.00     0.163 HD
BRANCH  24  26
HETATM   26  C12 UNL     1       7.826   9.748  22.972  1.00  0.00     0.022 C 
HETATM   27  C13 UNL     1       7.082   9.484  24.281  1.00  0.00     0.037 C 
HETATM   28  C14 UNL     1       9.151   9.037  23.125  1.00  0.00     0.037 C 
HETATM   29  C15 UNL     1       8.048  11.228  22.881  1.00  0.00     0.037 C 
ENDBRANCH  24  26
ENDBRANCH   2  22
BRANCH   3  30
HETATM   30  C17 UNL     1       5.125  10.794  19.752  1.00  0.00     0.269 C 
HETATM   31  O3  UNL     1       4.761  11.127  20.940  1.00  0.00    -0.269 OA
HETATM   32  N4  UNL     1       5.414  11.870  18.907  1.00  0.00    -0.358 N 
HETATM   33  C18 UNL     1       5.296  13.229  19.368  1.00  0.00     0.152 C 
HETATM   34  C19 UNL     1       5.827  11.660  17.550  1.00  0.00     0.152 C 
ENDBRANCH   3  30
TORSDOF 7
ENDMDL
MODEL 3
REMARK VINA RESULT: -6.420247388      3.136      5.172
REMARK  7 active torsions:
REMARK  status: ('A' for Active; 'I' for Inactive)
REMARK    1  A    between atoms: C2_2  and  C3_3 
REMARK    2  A    between atoms: C2_2  and  N2_13 
REMARK       I    between atoms: C3_3  and  N1_5 
REMARK    3  A    between atoms: N1_5  and  C4_7 
REMARK    4  A    between atoms: C4_7  and  C6_9 
REMARK    5  A    between atoms: C10_14  and  C11_15 
REMARK       I    between atoms: C11_15  and  N3_17 
REMARK    6  A    between atoms: N3_17  and  C12_19 
REMARK    7  A    between atoms: C16_23  and  C17_25 
REMARK       I    between atoms: C17_25  and  N4_27 
ROOT
HETATM    1  N2  UNL     1       5.650   8.044  22.649  1.00  0.00    -0.347 N 
HETATM    2  C10 UNL     1       4.221   8.000  22.853  1.00  0.00     0.235 C 
HETATM    3  C16 UNL     1       4.114   8.129  24.378  1.00  0.00     0.274 C 
HETATM    4  F1  UNL     1       4.549   6.979  24.961  1.00  0.00    -0.221 F 
HETATM    5  C20 UNL     1       5.163   9.206  24.530  1.00  0.00     0.206 C 
HETATM    6  O4  UNL     1       5.107  10.224  25.159  1.00  0.00    -0.291 OA
HETATM    7  C21 UNL     1       6.315   8.669  23.677  1.00  0.00     0.091 C 
HETATM    8  C22 UNL     1       7.167   7.934  24.645  1.00  0.00     0.047 C 
HETATM    9  C23 UNL     1       7.139   9.854  23.199  1.00  0.00     0.047 C 
ENDROOT
BRANCH   1  10
HETATM   10  C2  UNL     1       6.140   7.794  21.373  1.00  0.00     0.073 C 
HETATM   11  C1  UNL     1       6.408   8.964  20.453  1.00  0.00     0.074 C 
BRANCH  10  12
HETATM   12  C3  UNL     1       7.008   6.625  21.139  1.00  0.00     0.263 C 
HETATM   13  O1  UNL     1       8.105   6.534  21.787  1.00  0.00    -0.266 OA
HETATM   14  N1  UNL     1       6.777   5.551  20.258  1.00  0.00    -0.351 N 
ATOM     15  H1  UNL     1       5.925   5.552  19.697  1.00  0.00     0.163 HD
BRANCH  14  16
HETATM   16  C4  UNL     1       7.711   4.439  20.116  1.00  0.00     0.088 C 
HETATM   17  C5  UNL     1       8.478   4.532  18.802  1.00  0.00     0.033 C 
BRANCH  16  18
HETATM   18  C6  UNL     1       6.893   3.172  20.079  1.00  0.00    -0.031 C 
HETATM   19  C7  UNL     1       7.757   2.093  19.412  1.00  0.00     0.016 C 
HETATM   20  C8  UNL     1       5.736   3.422  19.116  1.00  0.00     0.016 C 
HETATM   21  C9  UNL     1       6.412   2.726  21.420  1.00  0.00     0.016 C 
ENDBRANCH  16  18
ENDBRANCH  14  16
ENDBRANCH  10  12
ENDBRANCH   1  10
BRANCH   2  22
HETATM   22  C11 UNL     1       3.455   9.046  22.201  1.00  0.00     0.245 C 
HETATM   23  O2  UNL     1       3.846  10.221  22.173  1.00  0.00    -0.271 OA
HETATM   24  N3  UNL     1       2.218   8.732  21.569  1.00  0.00    -0.351 N 
ATOM     25  H3  UNL     1       1.904   7.762  21.598  1.00  0.00     0.163 HD
BRANCH  24  26
HETATM   26  C12 UNL     1       1.385   9.681  20.895  1.00  0.00     0.022 C 
HETATM   27  C13 UNL     1       0.209   8.950  20.248  1.00  0.00     0.037 C 
HETATM   28  C14 UNL     1       0.758  10.618  21.901  1.00  0.00     0.037 C 
HETATM   29  C15 UNL     1       2.063  10.470  19.815  1.00  0.00     0.037 C 
ENDBRANCH  24  26
ENDBRANCH   2  22
BRANCH   3  30
HETATM   30  C17 UNL     1       2.839   8.603  24.886  1.00  0.00     0.269 C 
HETATM   31  O3  UNL     1       2.796   9.823  25.291  1.00  0.00    -0.269 OA
HETATM   32  N4  UNL     1       1.632   7.907  25.000  1.00  0.00    -0.358 N 
HETATM   33  C18 UNL     1       0.457   8.542  25.539  1.00  0.00     0.152 C 
HETATM   34  C19 UNL     1       1.522   6.536  24.596  1.00  0.00     0.152 C 
ENDBRANCH   3  30
TORSDOF 7
ENDMDL
MODEL 4
REMARK VINA RESULT: -6.418967989      1.974      3.155
REMARK  7 active torsions:
REMARK  status: ('A' for Active; 'I' for Inactive)
REMARK    1  A    between atoms: C2_2  and  C3_3 
REMARK    2  A    between atoms: C2_2  and  N2_13 
REMARK       I    between atoms: C3_3  and  N1_5 
REMARK    3  A    between atoms: N1_5  and  C4_7 
REMARK    4  A    between atoms: C4_7  and  C6_9 
REMARK    5  A    between atoms: C10_14  and  C11_15 
REMARK       I    between atoms: C11_15  and  N3_17 
REMARK    6  A    between atoms: N3_17  and  C12_19 
REMARK    7  A    between atoms: C16_23  and  C17_25 
REMARK       I    between atoms: C17_25  and  N4_27 
ROOT
HETATM    1  N2  UNL     1       6.449   9.379  22.781  1.00  0.00    -0.347 N 
HETATM    2  C10 UNL     1       5.951   9.739  21.474  1.00  0.00     0.235 C 
HETATM    3  C16 UNL     1       7.120  10.552  20.902  1.00  0.00     0.274 C 
HETATM    4  F1  UNL     1       7.197  11.748  21.547  1.00  0.00    -0.221 F 
HETATM    5  C20 UNL     1       8.218   9.637  21.391  1.00  0.00     0.206 C 
HETATM    6  O4  UNL     1       9.160   9.208  20.789  1.00  0.00    -0.291 OA
HETATM    7  C21 UNL     1       7.822   9.395  22.850  1.00  0.00     0.091 C 
HETATM    8  C22 UNL     1       8.575  10.429  23.603  1.00  0.00     0.047 C 
HETATM    9  C23 UNL     1       8.397   8.054  23.277  1.00  0.00     0.047 C 
ENDROOT
BRANCH   1  10
HETATM   10  C2  UNL     1       5.580   8.753  23.667  1.00  0.00     0.073 C 
HETATM   11  C1  UNL     1       4.937   9.575  24.760  1.00  0.00     0.074 C 
BRANCH  10  12
HETATM   12  C3  UNL     1       4.769   7.609  23.209  1.00  0.00     0.263 C 
HETATM   13  O1  UNL     1       5.342   6.481  23.032  1.00  0.00    -0.266 OA
HETATM   14  N1  UNL     1       3.389   7.597  22.928  1.00  0.00    -0.351 N 
ATOM     15  H1  UNL     1       2.859   8.461  23.038  1.00  0.00     0.163 HD
BRANCH  14  16
HETATM   16  C4  UNL     1       2.691   6.395  22.486  1.00  0.00     0.088 C 
HETATM   17  C5  UNL     1       1.764   6.700  21.314  1.00  0.00     0.033 C 
BRANCH  16  18
HETATM   18  C6  UNL     1       1.834   5.928  23.636  1.00  0.00    -0.031 C 
HETATM   19  C7  UNL     1       2.432   4.608  24.142  1.00  0.00     0.016 C 
HETATM   20  C8  UNL     1       0.472   5.562  23.052  1.00  0.00     0.016 C 
HETATM   21  C9  UNL     1       1.713   6.924  24.741  1.00  0.00     0.016 C 
ENDBRANCH  16  18
ENDBRANCH  14  16
ENDBRANCH  10  12
ENDBRANCH   1  10
BRANCH   2  22
HETATM   22  C11 UNL     1       5.626   8.632  20.593  1.00  0.00     0.245 C 
HETATM   23  O2  UNL     1       4.519   8.536  20.045  1.00  0.00    -0.271 OA
HETATM   24  N3  UNL     1       6.594   7.619  20.337  1.00  0.00    -0.351 N 
ATOM     25  H3  UNL     1       7.502   7.706  20.793  1.00  0.00     0.163 HD
BRANCH  24  26
HETATM   26  C12 UNL     1       6.383   6.488  19.485  1.00  0.00     0.022 C 
HETATM   27  C13 UNL     1       6.089   6.973  18.066  1.00  0.00     0.037 C 
HETATM   28  C14 UNL     1       7.660   5.689  19.370  1.00  0.00     0.037 C 
HETATM   29  C15 UNL     1       5.252   5.590  19.888  1.00  0.00     0.037 C 
ENDBRANCH  24  26
ENDBRANCH   2  22
BRANCH   3  30
HETATM   30  C17 UNL     1       7.170  10.658  19.455  1.00  0.00     0.269 C 
HETATM   31  O3  UNL     1       8.020   9.905  18.850  1.00  0.00    -0.269 OA
HETATM   32  N4  UNL     1       6.413  11.477  18.612  1.00  0.00    -0.358 N 
HETATM   33  C18 UNL     1       6.603  11.454  17.186  1.00  0.00     0.152 C 
HETATM   34  C19 UNL     1       5.427  12.376  19.138  1.00  0.00     0.152 C 
ENDBRANCH   3  30
TORSDOF 7
ENDMDL
MODEL 5
REMARK VINA RESULT: -6.398553269      2.874      5.611
REMARK  7 active torsions:
REMARK  status: ('A' for Active; 'I' for Inactive)
REMARK    1  A    between atoms: C2_2  and  C3_3 
REMARK    2  A    between atoms: C2_2  and  N2_13 
REMARK       I    between atoms: C3_3  and  N1_5 
REMARK    3  A    between atoms: N1_5  and  C4_7 
REMARK    4  A    between atoms: C4_7  and  C6_9 
REMARK    5  A    between atoms: C10_14  and  C11_15 
REMARK       I    between atoms: C11_15  and  N3_17 
REMARK    6  A    between atoms: N3_17  and  C12_19 
REMARK    7  A    between atoms: C16_23  and  C17_25 
REMARK       I    between atoms: C17_25  and  N4_27 
ROOT
HETATM    1  N2  UNL     1       3.634   4.883  20.411  1.00  0.00    -0.347 N 
HETATM    2  C10 UNL     1       3.972   6.168  20.977  1.00  0.00     0.235 C 
HETATM    3  C16 UNL     1       3.305   6.092  22.356  1.00  0.00     0.274 C 
HETATM    4  F1  UNL     1       1.954   6.160  22.210  1.00  0.00    -0.221 F 
HETATM    5  C20 UNL     1       3.714   4.671  22.663  1.00  0.00     0.206 C 
HETATM    6  O4  UNL     1       4.196   4.229  23.667  1.00  0.00    -0.291 OA
HETATM    7  C21 UNL     1       3.358   3.937  21.368  1.00  0.00     0.091 C 
HETATM    8  C22 UNL     1       1.988   3.420  21.613  1.00  0.00     0.047 C 
HETATM    9  C23 UNL     1       4.258   2.717  21.255  1.00  0.00     0.047 C 
ENDROOT
BRANCH   1  10
HETATM   10  C2  UNL     1       3.948   4.649  19.077  1.00  0.00     0.073 C 
HETATM   11  C1  UNL     1       3.853   5.795  18.094  1.00  0.00     0.074 C 
BRANCH  10  12
HETATM   12  C3  UNL     1       4.959   3.633  18.731  1.00  0.00     0.263 C 
HETATM   13  O1  UNL     1       4.575   2.538  18.198  1.00  0.00    -0.266 OA
HETATM   14  N1  UNL     1       6.352   3.714  18.922  1.00  0.00    -0.351 N 
ATOM     15  H1  UNL     1       6.741   4.555  19.349  1.00  0.00     0.163 HD
BRANCH  14  16
HETATM   16  C4  UNL     1       7.260   2.641  18.531  1.00  0.00     0.088 C 
HETATM   17  C5  UNL     1       7.851   1.950  19.755  1.00  0.00     0.033 C 
BRANCH  16  18
HETATM   18  C6  UNL     1       8.399   3.274  17.771  1.00  0.00    -0.031 C 
HETATM   19  C7  UNL     1       9.636   2.393  17.988  1.00  0.00     0.016 C 
HETATM   20  C8  UNL     1       8.712   4.597  18.466  1.00  0.00     0.016 C 
HETATM   21  C9  UNL     1       8.120   3.464  16.316  1.00  0.00     0.016 C 
ENDBRANCH  16  18
ENDBRANCH  14  16
ENDBRANCH  10  12
ENDBRANCH   1  10
BRANCH   2  22
HETATM   22  C11 UNL     1       5.390   6.447  21.114  1.00  0.00     0.245 C 
HETATM   23  O2  UNL     1       6.233   5.541  21.165  1.00  0.00    -0.271 OA
HETATM   24  N3  UNL     1       5.844   7.795  21.192  1.00  0.00    -0.351 N 
ATOM     25  H3  UNL     1       5.143   8.534  21.150  1.00  0.00     0.163 HD
BRANCH  24  26
HETATM   26  C12 UNL     1       7.215   8.185  21.325  1.00  0.00     0.022 C 
HETATM   27  C13 UNL     1       7.295   9.702  21.485  1.00  0.00     0.037 C 
HETATM   28  C14 UNL     1       7.786   7.625  22.607  1.00  0.00     0.037 C 
HETATM   29  C15 UNL     1       8.096   7.816  20.169  1.00  0.00     0.037 C 
ENDBRANCH  24  26
ENDBRANCH   2  22
BRANCH   3  30
HETATM   30  C17 UNL     1       3.836   6.990  23.367  1.00  0.00     0.269 C 
HETATM   31  O3  UNL     1       4.744   6.514  24.144  1.00  0.00    -0.269 OA
HETATM   32  N4  UNL     1       3.491   8.321  23.620  1.00  0.00    -0.358 N 
HETATM   33  C18 UNL     1       4.123   9.063  24.679  1.00  0.00     0.152 C 
HETATM   34  C19 UNL     1       2.489   8.990  22.842  1.00  0.00     0.152 C 
ENDBRANCH   3  30
TORSDOF 7
ENDMDL
