MODEL 1
REMARK VINA RESULT: -6.493725041      0.000      0.000
REMARK  2 active torsions:
REMARK  status: ('A' for Active; 'I' for Inactive)
REMARK    1  A    between atoms: N3_4  and  C2_6 
REMARK    2  A    between atoms: C2_6  and  N4_7 
ROOT
HETATM    1  C2  UNL     1      -0.834   9.865  10.184  1.00  0.00     0.360 C 
HETATM    2  N5  UNL     1      -2.012   9.248   9.596  1.00  0.00    -0.285 N 
ATOM      3  H5  UNL     1      -2.314   8.278   9.692  1.00  0.00     0.169 HD
HETATM    4  C3  UNL     1      -2.660  10.291   8.853  1.00  0.00     0.326 C 
HETATM    5  O1  UNL     1      -3.879  10.265   8.505  1.00  0.00    -0.247 OA
HETATM    6  N6  UNL     1      -1.698  11.307   8.601  1.00  0.00    -0.274 N 
ATOM      7  H6  UNL     1      -1.856  12.178   8.095  1.00  0.00     0.173 HD
HETATM    8  C4  UNL     1      -0.470  10.882   9.190  1.00  0.00     0.304 C 
HETATM    9  O2  UNL     1       0.653  11.344   8.859  1.00  0.00    -0.266 OA
ENDROOT
BRANCH   1  10
HETATM   10  N3  UNL     1       0.177   8.932  10.497  1.00  0.00    -0.309 N 
HETATM   11  C1  UNL     1       0.076   7.824  11.100  1.00  0.00     0.200 C 
HETATM   12  N1  UNL     1      -1.151   7.302  11.595  1.00  0.00    -0.067 NA
HETATM   13  N2  UNL     1       1.253   7.052  11.298  1.00  0.00    -0.067 NA
ATOM     14  H3  UNL     1       1.118   9.185  10.196  1.00  0.00     0.166 HD
ENDBRANCH   1  10
BRANCH   1  15
HETATM   15  N4  UNL     1      -1.292  10.476  11.439  1.00  0.00    -0.024 N 
ATOM     16  H43 UNL     1      -1.192   9.852  12.241  1.00  0.00     0.280 HD
ATOM     17  H42 UNL     1      -0.674  11.219  11.765  1.00  0.00     0.280 HD
ATOM     18  H41 UNL     1      -2.252  10.792  11.303  1.00  0.00     0.280 HD
ENDBRANCH   1  15
TORSDOF 2
ENDMDL
MODEL 2
REMARK VINA RESULT: -6.287719198      1.202      2.855
REMARK  2 active torsions:
REMARK  status: ('A' for Active; 'I' for Inactive)
REMARK    1  A    between atoms: N3_4  and  C2_6 
REMARK    2  A    between atoms: C2_6  and  N4_7 
ROOT
HETATM    1  C2  UNL     1      -1.340   9.481   9.862  1.00  0.00     0.360 C 
HETATM    2  N5  UNL     1      -0.148  10.263  10.150  1.00  0.00    -0.285 N 
ATOM      3  H5  UNL     1       0.421  10.233  10.996  1.00  0.00     0.169 HD
HETATM    4  C3  UNL     1       0.059  11.085   8.992  1.00  0.00     0.326 C 
HETATM    5  O1  UNL     1       1.165  11.628   8.692  1.00  0.00    -0.247 OA
HETATM    6  N6  UNL     1      -1.173  11.160   8.286  1.00  0.00    -0.274 N 
ATOM      7  H6  UNL     1      -1.345  11.672   7.420  1.00  0.00     0.173 HD
HETATM    8  C4  UNL     1      -2.125  10.386   9.013  1.00  0.00     0.304 C 
HETATM    9  O2  UNL     1      -3.369  10.521   8.887  1.00  0.00    -0.266 OA
ENDROOT
BRANCH   1  10
HETATM   10  N3  UNL     1      -1.990   9.022  11.026  1.00  0.00    -0.309 N 
HETATM   11  C1  UNL     1      -1.566   8.222  11.910  1.00  0.00     0.200 C 
HETATM   12  N1  UNL     1      -0.281   7.613  11.874  1.00  0.00    -0.067 NA
HETATM   13  N2  UNL     1      -2.418   7.909  13.005  1.00  0.00    -0.067 NA
ATOM     14  H3  UNL     1      -2.931   9.385  11.176  1.00  0.00     0.166 HD
ENDBRANCH   1  10
BRANCH   1  15
HETATM   15  N4  UNL     1      -0.871   8.308   9.111  1.00  0.00    -0.024 N 
ATOM     16  H43 UNL     1      -1.456   7.485   9.260  1.00  0.00     0.280 HD
ATOM     17  H42 UNL     1      -1.015   8.399   8.106  1.00  0.00     0.280 HD
ATOM     18  H41 UNL     1       0.106   8.147   9.357  1.00  0.00     0.280 HD
ENDBRANCH   1  15
TORSDOF 2
ENDMDL
MODEL 3
REMARK VINA RESULT: -6.175643286      1.744      2.957
REMARK  2 active torsions:
REMARK  status: ('A' for Active; 'I' for Inactive)
REMARK    1  A    between atoms: N3_4  and  C2_6 
REMARK    2  A    between atoms: C2_6  and  N4_7 
ROOT
HETATM    1  C2  UNL     1      -0.907   9.227   9.323  1.00  0.00     0.360 C 
HETATM    2  N5  UNL     1       0.334   9.981   9.402  1.00  0.00    -0.285 N 
ATOM      3  H5  UNL     1       1.241   9.718   9.017  1.00  0.00     0.169 HD
HETATM    4  C3  UNL     1       0.013  11.172  10.135  1.00  0.00     0.326 C 
HETATM    5  O1  UNL     1       0.705  12.234  10.105  1.00  0.00    -0.247 OA
HETATM    6  N6  UNL     1      -1.183  10.925  10.864  1.00  0.00    -0.274 N 
ATOM      7  H6  UNL     1      -1.663  11.581  11.480  1.00  0.00     0.173 HD
HETATM    8  C4  UNL     1      -1.586   9.588  10.575  1.00  0.00     0.304 C 
HETATM    9  O2  UNL     1      -2.370   8.928  11.304  1.00  0.00    -0.266 OA
ENDROOT
BRANCH   1  10
HETATM   10  N3  UNL     1      -0.701   7.847   9.120  1.00  0.00    -0.309 N 
HETATM   11  C1  UNL     1       0.055   7.056   9.755  1.00  0.00     0.200 C 
HETATM   12  N1  UNL     1       0.875   7.451  10.847  1.00  0.00    -0.067 NA
HETATM   13  N2  UNL     1       0.093   5.691   9.357  1.00  0.00    -0.067 NA
ATOM     14  H3  UNL     1      -1.234   7.430   8.357  1.00  0.00     0.166 HD
ENDBRANCH   1  10
BRANCH   1  15
HETATM   15  N4  UNL     1      -1.618   9.758   8.152  1.00  0.00    -0.024 N 
ATOM     16  H43 UNL     1      -2.115  10.626   8.352  1.00  0.00     0.280 HD
ATOM     17  H42 UNL     1      -0.986  10.123   7.439  1.00  0.00     0.280 HD
ATOM     18  H41 UNL     1      -2.231   9.024   7.797  1.00  0.00     0.280 HD
ENDBRANCH   1  15
TORSDOF 2
ENDMDL
MODEL 4
REMARK VINA RESULT: -6.041738559      2.173      4.064
REMARK  2 active torsions:
REMARK  status: ('A' for Active; 'I' for Inactive)
REMARK    1  A    between atoms: N3_4  and  C2_6 
REMARK    2  A    between atoms: C2_6  and  N4_7 
ROOT
HETATM    1  C2  UNL     1      -1.211   9.889  10.433  1.00  0.00     0.360 C 
HETATM    2  N5  UNL     1      -0.149   9.057  10.976  1.00  0.00    -0.285 N 
ATOM      3  H5  UNL     1       0.855   9.164  10.829  1.00  0.00     0.169 HD
HETATM    4  C3  UNL     1      -0.810   8.056  11.762  1.00  0.00     0.326 C 
HETATM    5  O1  UNL     1      -0.247   7.379  12.674  1.00  0.00    -0.247 OA
HETATM    6  N6  UNL     1      -2.162   7.984  11.326  1.00  0.00    -0.274 N 
ATOM      7  H6  UNL     1      -2.885   7.365  11.694  1.00  0.00     0.173 HD
HETATM    8  C4  UNL     1      -2.320   8.939  10.279  1.00  0.00     0.304 C 
HETATM    9  O2  UNL     1      -3.254   8.896   9.437  1.00  0.00    -0.266 OA
ENDROOT
BRANCH   1  10
HETATM   10  N3  UNL     1      -0.829  10.572   9.260  1.00  0.00    -0.309 N 
HETATM   11  C1  UNL     1       0.057  11.465   9.114  1.00  0.00     0.200 C 
HETATM   12  N1  UNL     1       0.865  11.958  10.175  1.00  0.00    -0.067 NA
HETATM   13  N2  UNL     1       0.260  12.010   7.816  1.00  0.00    -0.067 NA
ATOM     14  H3  UNL     1      -1.335  10.313   8.414  1.00  0.00     0.166 HD
ENDBRANCH   1  10
BRANCH   1  15
HETATM   15  N4  UNL     1      -1.497  10.890  11.469  1.00  0.00    -0.024 N 
ATOM     16  H43 UNL     1      -0.674  11.133  12.021  1.00  0.00     0.280 HD
ATOM     17  H42 UNL     1      -1.682  11.816  11.083  1.00  0.00     0.280 HD
ATOM     18  H41 UNL     1      -2.267  10.541  12.041  1.00  0.00     0.280 HD
ENDBRANCH   1  15
TORSDOF 2
ENDMDL
MODEL 5
REMARK VINA RESULT: -5.874875657      2.184      3.611
REMARK  2 active torsions:
REMARK  status: ('A' for Active; 'I' for Inactive)
REMARK    1  A    between atoms: N3_4  and  C2_6 
REMARK    2  A    between atoms: C2_6  and  N4_7 
ROOT
HETATM    1  C2  UNL     1      -1.151   9.460  10.830  1.00  0.00     0.360 C 
HETATM    2  N5  UNL     1      -0.256   8.383  10.437  1.00  0.00    -0.285 N 
ATOM      3  H5  UNL     1       0.763   8.384  10.472  1.00  0.00     0.169 HD
HETATM    4  C3  UNL     1      -1.110   7.319   9.992  1.00  0.00     0.326 C 
HETATM    5  O1  UNL     1      -0.754   6.105   9.915  1.00  0.00    -0.247 OA
HETATM    6  N6  UNL     1      -2.376   7.883   9.670  1.00  0.00    -0.274 N 
ATOM      7  H6  UNL     1      -3.193   7.379   9.325  1.00  0.00     0.173 HD
HETATM    8  C4  UNL     1      -2.290   9.285   9.919  1.00  0.00     0.304 C 
HETATM    9  O2  UNL     1      -3.076  10.127   9.415  1.00  0.00    -0.266 OA
ENDROOT
BRANCH   1  10
HETATM   10  N3  UNL     1      -0.535  10.728  10.795  1.00  0.00    -0.309 N 
HETATM   11  C1  UNL     1       0.126  11.264   9.858  1.00  0.00     0.200 C 
HETATM   12  N1  UNL     1       0.373  10.637   8.605  1.00  0.00    -0.067 NA
HETATM   13  N2  UNL     1       0.656  12.568  10.063  1.00  0.00    -0.067 NA
ATOM     14  H3  UNL     1      -0.635  11.290  11.640  1.00  0.00     0.166 HD
ENDBRANCH   1  10
BRANCH   1  15
HETATM   15  N4  UNL     1      -1.525   9.175  12.222  1.00  0.00    -0.024 N 
ATOM     16  H43 UNL     1      -2.440   8.731  12.302  1.00  0.00     0.280 HD
ATOM     17  H42 UNL     1      -0.971   8.424  12.634  1.00  0.00     0.280 HD
ATOM     18  H41 UNL     1      -1.461  10.046  12.750  1.00  0.00     0.280 HD
ENDBRANCH   1  15
TORSDOF 2
ENDMDL
