MODEL 1
REMARK VINA RESULT: -6.548004951      0.000      0.000
REMARK  2 active torsions:
REMARK  status: ('A' for Active; 'I' for Inactive)
REMARK    1  A    between atoms: C5_10  and  N5_11 
REMARK       I    between atoms: N5_11  and  C6_13 
REMARK       I    between atoms: C6_13  and  N7_17 
REMARK    2  A    between atoms: N7_17  and  N8_19 
ROOT
HETATM    1  N1  UNL     1      -0.167   7.060   9.272  1.00  0.00    -0.170 NA
HETATM    2  C1  UNL     1      -0.150   7.355  10.390  1.00  0.00     0.217 C 
HETATM    3  N2  UNL     1      -0.118   7.741  11.758  1.00  0.00    -0.020 N 
HETATM    4  N3  UNL     1      -0.399   6.689  12.616  1.00  0.00    -0.109 NA
HETATM    5  C2  UNL     1      -1.390   7.076  13.568  1.00  0.00     0.138 C 
HETATM    6  C3  UNL     1      -0.682   7.888  14.649  1.00  0.00     0.038 C 
HETATM    7  C4  UNL     1      -0.816   9.324  14.287  1.00  0.00     0.139 C 
HETATM    8  N4  UNL     1      -0.117   9.730  13.113  1.00  0.00    -0.223 N 
ATOM      9  H4  UNL     1       0.199  10.700  13.119  1.00  0.00     0.177 HD
HETATM   10  C5  UNL     1       0.182   9.077  12.050  1.00  0.00     0.720 C 
ENDROOT
BRANCH  10  11
HETATM   11  N5  UNL     1       0.895   9.761  11.034  1.00  0.00    -0.019 N 
HETATM   12  C6  UNL     1       0.377  10.851  10.301  1.00  0.00     0.704 C 
HETATM   13  N6  UNL     1      -0.870  10.940  10.003  1.00  0.00    -0.233 N 
HETATM   14  N7  UNL     1       1.258  11.875   9.880  1.00  0.00    -0.139 N 
ATOM     15  H62 UNL     1      -1.506  10.203  10.307  1.00  0.00     0.174 HD
ATOM     16  H61 UNL     1      -1.245  11.727   9.473  1.00  0.00     0.174 HD
ATOM     17  H7  UNL     1       1.691  11.845   8.957  1.00  0.00     0.205 HD
ATOM     18  H5  UNL     1       1.842   9.447  10.819  1.00  0.00     0.203 HD
BRANCH  14  19
HETATM   19  N8  UNL     1       1.521  12.924  10.758  1.00  0.00    -0.331 N 
ATOM     20  H82 UNL     1       0.828  13.661  10.891  1.00  0.00     0.177 HD
ATOM     21  H81 UNL     1       2.413  12.929  11.252  1.00  0.00     0.177 HD
ENDBRANCH  14  19
ENDBRANCH  10  11
TORSDOF 2
ENDMDL
MODEL 2
REMARK VINA RESULT: -6.380526079      3.709      6.290
REMARK  2 active torsions:
REMARK  status: ('A' for Active; 'I' for Inactive)
REMARK    1  A    between atoms: C5_10  and  N5_11 
REMARK       I    between atoms: N5_11  and  C6_13 
REMARK       I    between atoms: C6_13  and  N7_17 
REMARK    2  A    between atoms: N7_17  and  N8_19 
ROOT
HETATM    1  N1  UNL     1      -0.428   6.548  18.516  1.00  0.00    -0.170 NA
HETATM    2  C1  UNL     1      -0.179   6.691  17.395  1.00  0.00     0.217 C 
HETATM    3  N2  UNL     1       0.108   6.882  16.017  1.00  0.00    -0.020 N 
HETATM    4  N3  UNL     1       1.084   6.017  15.549  1.00  0.00    -0.109 NA
HETATM    5  C2  UNL     1       2.083   6.738  14.826  1.00  0.00     0.138 C 
HETATM    6  C3  UNL     1       1.524   7.007  13.432  1.00  0.00     0.038 C 
HETATM    7  C4  UNL     1       0.905   8.359  13.452  1.00  0.00     0.139 C 
HETATM    8  N4  UNL     1      -0.260   8.490  14.263  1.00  0.00    -0.223 N 
ATOM      9  H4  UNL     1      -0.930   9.186  13.936  1.00  0.00     0.177 HD
HETATM   10  C5  UNL     1      -0.604   7.879  15.337  1.00  0.00     0.720 C 
ENDROOT
BRANCH  10  11
HETATM   11  N5  UNL     1      -1.843   8.231  15.928  1.00  0.00    -0.019 N 
HETATM   12  C6  UNL     1      -3.030   7.479  15.786  1.00  0.00     0.704 C 
HETATM   13  N6  UNL     1      -3.303   6.835  14.708  1.00  0.00    -0.233 N 
HETATM   14  N7  UNL     1      -3.946   7.436  16.864  1.00  0.00    -0.139 N 
ATOM     15  H62 UNL     1      -2.642   6.866  13.932  1.00  0.00     0.174 HD
ATOM     16  H61 UNL     1      -4.160   6.292  14.605  1.00  0.00     0.174 HD
ATOM     17  H7  UNL     1      -4.724   8.094  16.915  1.00  0.00     0.205 HD
ATOM     18  H5  UNL     1      -1.880   9.081  16.492  1.00  0.00     0.203 HD
BRANCH  14  19
HETATM   19  N8  UNL     1      -3.760   6.472  17.852  1.00  0.00    -0.331 N 
ATOM     20  H82 UNL     1      -3.568   5.505  17.589  1.00  0.00     0.177 HD
ATOM     21  H81 UNL     1      -3.822   6.762  18.828  1.00  0.00     0.177 HD
ENDBRANCH  14  19
ENDBRANCH  10  11
TORSDOF 2
ENDMDL
MODEL 3
REMARK VINA RESULT: -6.349435151      2.199      3.006
REMARK  2 active torsions:
REMARK  status: ('A' for Active; 'I' for Inactive)
REMARK    1  A    between atoms: C5_10  and  N5_11 
REMARK       I    between atoms: N5_11  and  C6_13 
REMARK       I    between atoms: C6_13  and  N7_17 
REMARK    2  A    between atoms: N7_17  and  N8_19 
ROOT
HETATM    1  N1  UNL     1       2.735   5.728  12.953  1.00  0.00    -0.170 NA
HETATM    2  C1  UNL     1       2.078   6.291  13.721  1.00  0.00     0.217 C 
HETATM    3  N2  UNL     1       1.267   7.000  14.648  1.00  0.00    -0.020 N 
HETATM    4  N3  UNL     1       1.312   6.456  15.922  1.00  0.00    -0.109 NA
HETATM    5  C2  UNL     1      -0.009   6.279  16.434  1.00  0.00     0.138 C 
HETATM    6  C3  UNL     1      -0.485   7.641  16.933  1.00  0.00     0.038 C 
HETATM    7  C4  UNL     1      -1.256   8.275  15.831  1.00  0.00     0.139 C 
HETATM    8  N4  UNL     1      -0.499   8.635  14.678  1.00  0.00    -0.223 N 
ATOM      9  H4  UNL     1      -0.857   9.444  14.170  1.00  0.00     0.177 HD
HETATM   10  C5  UNL     1       0.557   8.110  14.174  1.00  0.00     0.720 C 
ENDROOT
BRANCH  10  11
HETATM   11  N5  UNL     1       1.091   8.699  13.000  1.00  0.00    -0.019 N 
HETATM   12  C6  UNL     1       0.351   8.911  11.816  1.00  0.00     0.704 C 
HETATM   13  N6  UNL     1      -0.577   8.106  11.439  1.00  0.00    -0.233 N 
HETATM   14  N7  UNL     1       0.643  10.044  11.020  1.00  0.00    -0.139 N 
ATOM     15  H62 UNL     1      -0.788   7.290  12.013  1.00  0.00     0.174 HD
ATOM     16  H61 UNL     1      -1.111   8.260  10.584  1.00  0.00     0.174 HD
ATOM     17  H7  UNL     1       1.301   9.982  10.243  1.00  0.00     0.205 HD
ATOM     18  H5  UNL     1       2.069   8.987  13.012  1.00  0.00     0.203 HD
BRANCH  14  19
HETATM   19  N8  UNL     1       0.010  11.247  11.324  1.00  0.00    -0.331 N 
ATOM     20  H82 UNL     1      -0.238  11.461  12.291  1.00  0.00     0.177 HD
ATOM     21  H81 UNL     1      -0.193  11.893  10.562  1.00  0.00     0.177 HD
ENDBRANCH  14  19
ENDBRANCH  10  11
TORSDOF 2
ENDMDL
MODEL 4
REMARK VINA RESULT: -6.283899527      1.419      1.508
REMARK  2 active torsions:
REMARK  status: ('A' for Active; 'I' for Inactive)
REMARK    1  A    between atoms: C5_10  and  N5_11 
REMARK       I    between atoms: N5_11  and  C6_13 
REMARK       I    between atoms: C6_13  and  N7_17 
REMARK    2  A    between atoms: N7_17  and  N8_19 
ROOT
HETATM    1  N1  UNL     1       0.184   5.990  11.310  1.00  0.00    -0.170 NA
HETATM    2  C1  UNL     1       0.028   6.638  12.255  1.00  0.00     0.217 C 
HETATM    3  N2  UNL     1      -0.155   7.454  13.405  1.00  0.00    -0.020 N 
HETATM    4  N3  UNL     1      -0.421   6.715  14.547  1.00  0.00    -0.109 NA
HETATM    5  C2  UNL     1      -1.561   7.243  15.226  1.00  0.00     0.138 C 
HETATM    6  C3  UNL     1      -1.091   8.463  16.014  1.00  0.00     0.038 C 
HETATM    7  C4  UNL     1      -1.339   9.662  15.170  1.00  0.00     0.139 C 
HETATM    8  N4  UNL     1      -0.549   9.756  13.987  1.00  0.00    -0.223 N 
ATOM      9  H4  UNL     1      -0.348  10.709  13.684  1.00  0.00     0.177 HD
HETATM   10  C5  UNL     1      -0.048   8.840  13.241  1.00  0.00     0.720 C 
ENDROOT
BRANCH  10  11
HETATM   11  N5  UNL     1       0.705   9.249  12.112  1.00  0.00    -0.019 N 
HETATM   12  C6  UNL     1       0.155   9.910  10.992  1.00  0.00     0.704 C 
HETATM   13  N6  UNL     1      -1.037   9.670  10.577  1.00  0.00    -0.233 N 
HETATM   14  N7  UNL     1       0.943  10.866  10.307  1.00  0.00    -0.139 N 
ATOM     15  H62 UNL     1      -1.604   8.982  11.071  1.00  0.00     0.174 HD
ATOM     16  H61 UNL     1      -1.434  10.148   9.768  1.00  0.00     0.174 HD
ATOM     17  H7  UNL     1       1.503  10.598   9.498  1.00  0.00     0.205 HD
ATOM     18  H5  UNL     1       1.706   9.053  12.108  1.00  0.00     0.203 HD
BRANCH  14  19
HETATM   19  N8  UNL     1       0.934  12.181  10.764  1.00  0.00    -0.331 N 
ATOM     20  H82 UNL     1       1.055  12.950  10.104  1.00  0.00     0.177 HD
ATOM     21  H81 UNL     1       0.804  12.346  11.762  1.00  0.00     0.177 HD
ENDBRANCH  14  19
ENDBRANCH  10  11
TORSDOF 2
ENDMDL
MODEL 5
REMARK VINA RESULT: -6.227196143      1.912      2.102
REMARK  2 active torsions:
REMARK  status: ('A' for Active; 'I' for Inactive)
REMARK    1  A    between atoms: C5_10  and  N5_11 
REMARK       I    between atoms: N5_11  and  C6_13 
REMARK       I    between atoms: C6_13  and  N7_17 
REMARK    2  A    between atoms: N7_17  and  N8_19 
ROOT
HETATM    1  N1  UNL     1       1.709   6.818   8.156  1.00  0.00    -0.170 NA
HETATM    2  C1  UNL     1       1.512   7.329   9.175  1.00  0.00     0.217 C 
HETATM    3  N2  UNL     1       1.269   7.979  10.415  1.00  0.00    -0.020 N 
HETATM    4  N3  UNL     1       1.506   7.156  11.505  1.00  0.00    -0.109 NA
HETATM    5  C2  UNL     1       0.402   7.201  12.411  1.00  0.00     0.138 C 
HETATM    6  C3  UNL     1       0.544   8.481  13.230  1.00  0.00     0.038 C 
HETATM    7  C4  UNL     1      -0.271   9.530  12.563  1.00  0.00     0.139 C 
HETATM    8  N4  UNL     1       0.196   9.950  11.283  1.00  0.00    -0.223 N 
ATOM      9  H4  UNL     1      -0.020  10.920  11.049  1.00  0.00     0.177 HD
HETATM   10  C5  UNL     1       0.840   9.312  10.377  1.00  0.00     0.720 C 
ENDROOT
BRANCH  10  11
HETATM   11  N5  UNL     1       1.170  10.008   9.188  1.00  0.00    -0.019 N 
HETATM   12  C6  UNL     1       0.217  10.571   8.311  1.00  0.00     0.704 C 
HETATM   13  N6  UNL     1      -0.934  10.033   8.119  1.00  0.00    -0.233 N 
HETATM   14  N7  UNL     1       0.541  11.764   7.622  1.00  0.00    -0.139 N 
ATOM     15  H62 UNL     1      -1.167   9.173   8.616  1.00  0.00     0.174 HD
ATOM     16  H61 UNL     1      -1.622  10.439   7.486  1.00  0.00     0.174 HD
ATOM     17  H7  UNL     1       0.944  11.734   6.685  1.00  0.00     0.205 HD
ATOM     18  H5  UNL     1       2.157  10.109   8.950  1.00  0.00     0.203 HD
BRANCH  14  19
HETATM   19  N8  UNL     1       0.297  12.980   8.254  1.00  0.00    -0.331 N 
ATOM     20  H82 UNL     1      -0.406  13.037   8.992  1.00  0.00     0.177 HD
ATOM     21  H81 UNL     1       0.834  13.796   7.960  1.00  0.00     0.177 HD
ENDBRANCH  14  19
ENDBRANCH  10  11
TORSDOF 2
ENDMDL
