MODEL 1
REMARK VINA RESULT: -5.659369870      0.000      0.000
REMARK  3 active torsions:
REMARK  status: ('A' for Active; 'I' for Inactive)
REMARK    1  A    between atoms: N1_2  and  N2_4 
REMARK    2  A    between atoms: N2_4  and  C2_6 
REMARK    3  A    between atoms: N5_11  and  N6_12 
ROOT
HETATM    1  C2  UNL     1      29.377  25.883  45.312  1.00  0.00     0.153 A 
HETATM    2  C3  UNL     1      29.437  24.691  45.997  1.00  0.00     0.135 A 
HETATM    3  N3  UNL     1      30.586  24.348  46.748  1.00  0.00    -0.095 NA
HETATM    4  C4  UNL     1      28.385  23.769  45.990  1.00  0.00     0.170 A 
HETATM    5  N4  UNL     1      28.462  22.546  46.700  1.00  0.00    -0.078 NA
HETATM    6  N5  UNL     1      27.294  24.096  45.278  1.00  0.00    -0.196 N 
HETATM    7  C5  UNL     1      27.229  25.267  44.603  1.00  0.00     0.350 A 
HETATM    8  O1  UNL     1      26.171  25.507  43.956  1.00  0.00    -0.244 OA
HETATM    9  N7  UNL     1      28.231  26.147  44.609  1.00  0.00    -0.285 N 
HETATM   10  C6  UNL     1      28.178  27.393  43.897  1.00  0.00     0.163 C 
ENDROOT
BRANCH   1  11
HETATM   11  N2  UNL     1      30.318  26.760  45.287  1.00  0.00    -0.288 N 
ATOM     12  H2  UNL     1      30.123  27.691  45.656  1.00  0.00     0.188 HD
BRANCH  11  13
HETATM   13  N1  UNL     1      31.571  26.503  44.787  1.00  0.00    -0.339 N 
HETATM   14  C1  UNL     1      31.683  26.047  43.389  1.00  0.00     0.167 C 
ATOM     15  H1  UNL     1      32.402  26.624  45.366  1.00  0.00     0.179 HD
ENDBRANCH  11  13
ENDBRANCH   1  11
BRANCH   6  16
HETATM   16  N6  UNL     1      26.241  23.178  45.269  1.00  0.00    -0.333 N 
ATOM     17  H62 UNL     1      25.560  23.131  46.027  1.00  0.00     0.177 HD
ATOM     18  H61 UNL     1      26.180  22.550  44.468  1.00  0.00     0.177 HD
ENDBRANCH   6  16
TORSDOF 3
ENDMDL
MODEL 2
REMARK VINA RESULT: -5.513625209      1.550      2.002
REMARK  3 active torsions:
REMARK  status: ('A' for Active; 'I' for Inactive)
REMARK    1  A    between atoms: N1_2  and  N2_4 
REMARK    2  A    between atoms: N2_4  and  C2_6 
REMARK    3  A    between atoms: N5_11  and  N6_12 
ROOT
HETATM    1  C2  UNL     1      29.625  26.459  43.940  1.00  0.00     0.153 A 
HETATM    2  C3  UNL     1      30.354  25.752  44.869  1.00  0.00     0.135 A 
HETATM    3  N3  UNL     1      31.767  25.740  44.818  1.00  0.00    -0.095 NA
HETATM    4  C4  UNL     1      29.749  25.022  45.897  1.00  0.00     0.170 A 
HETATM    5  N4  UNL     1      30.514  24.298  46.845  1.00  0.00    -0.078 NA
HETATM    6  N5  UNL     1      28.406  25.035  45.945  1.00  0.00    -0.196 N 
HETATM    7  C5  UNL     1      27.684  25.729  45.036  1.00  0.00     0.350 A 
HETATM    8  O1  UNL     1      26.426  25.696  45.145  1.00  0.00    -0.244 OA
HETATM    9  N7  UNL     1      28.260  26.427  44.055  1.00  0.00    -0.285 N 
HETATM   10  C6  UNL     1      27.507  27.167  43.081  1.00  0.00     0.163 C 
ENDROOT
BRANCH   1  11
HETATM   11  N2  UNL     1      30.134  27.144  42.978  1.00  0.00    -0.288 N 
ATOM     12  H2  UNL     1      29.927  28.142  42.930  1.00  0.00     0.188 HD
BRANCH  11  13
HETATM   13  N1  UNL     1      30.942  26.596  42.011  1.00  0.00    -0.339 N 
HETATM   14  C1  UNL     1      30.455  25.405  41.291  1.00  0.00     0.167 C 
ATOM     15  H1  UNL     1      31.854  27.001  41.798  1.00  0.00     0.179 HD
ENDBRANCH  11  13
ENDBRANCH   1  11
BRANCH   6  16
HETATM   16  N6  UNL     1      27.800  24.306  46.971  1.00  0.00    -0.333 N 
ATOM     17  H62 UNL     1      26.800  24.372  47.161  1.00  0.00     0.177 HD
ATOM     18  H61 UNL     1      28.402  23.701  47.529  1.00  0.00     0.177 HD
ENDBRANCH   6  16
TORSDOF 3
ENDMDL
MODEL 3
REMARK VINA RESULT: -5.510091964      1.177      1.204
REMARK  3 active torsions:
REMARK  status: ('A' for Active; 'I' for Inactive)
REMARK    1  A    between atoms: N1_2  and  N2_4 
REMARK    2  A    between atoms: N2_4  and  C2_6 
REMARK    3  A    between atoms: N5_11  and  N6_12 
ROOT
HETATM    1  C2  UNL     1      29.889  26.146  44.976  1.00  0.00     0.153 A 
HETATM    2  C3  UNL     1      29.525  25.160  45.864  1.00  0.00     0.135 A 
HETATM    3  N3  UNL     1      30.496  24.516  46.665  1.00  0.00    -0.095 NA
HETATM    4  C4  UNL     1      28.197  24.748  46.021  1.00  0.00     0.170 A 
HETATM    5  N4  UNL     1      27.838  23.730  46.940  1.00  0.00    -0.078 NA
HETATM    6  N5  UNL     1      27.275  25.360  45.260  1.00  0.00    -0.196 N 
HETATM    7  C5  UNL     1      27.627  26.330  44.387  1.00  0.00     0.350 A 
HETATM    8  O1  UNL     1      26.705  26.862  43.705  1.00  0.00    -0.244 OA
HETATM    9  N7  UNL     1      28.892  26.725  44.236  1.00  0.00    -0.285 N 
HETATM   10  C6  UNL     1      29.282  27.754  43.311  1.00  0.00     0.163 C 
ENDROOT
BRANCH   1  11
HETATM   11  N2  UNL     1      31.094  26.559  44.795  1.00  0.00    -0.288 N 
ATOM     12  H2  UNL     1      31.336  27.500  45.105  1.00  0.00     0.188 HD
BRANCH  11  13
HETATM   13  N1  UNL     1      32.069  25.792  44.204  1.00  0.00    -0.339 N 
HETATM   14  C1  UNL     1      33.441  26.329  44.154  1.00  0.00     0.167 C 
ATOM     15  H1  UNL     1      31.850  24.877  43.811  1.00  0.00     0.179 HD
ENDBRANCH  11  13
ENDBRANCH   1  11
BRANCH   6  16
HETATM   16  N6  UNL     1      25.949  24.950  45.416  1.00  0.00    -0.333 N 
ATOM     17  H62 UNL     1      25.707  24.009  45.727  1.00  0.00     0.177 HD
ATOM     18  H61 UNL     1      25.223  25.635  45.203  1.00  0.00     0.177 HD
ENDBRANCH   6  16
TORSDOF 3
ENDMDL
MODEL 4
REMARK VINA RESULT: -5.446120268      1.936      2.554
REMARK  3 active torsions:
REMARK  status: ('A' for Active; 'I' for Inactive)
REMARK    1  A    between atoms: N1_2  and  N2_4 
REMARK    2  A    between atoms: N2_4  and  C2_6 
REMARK    3  A    between atoms: N5_11  and  N6_12 
ROOT
HETATM    1  C2  UNL     1      29.986  25.866  44.316  1.00  0.00     0.153 A 
HETATM    2  C3  UNL     1      29.090  26.183  45.310  1.00  0.00     0.135 A 
HETATM    3  N3  UNL     1      28.978  27.510  45.785  1.00  0.00    -0.095 NA
HETATM    4  C4  UNL     1      28.253  25.227  45.896  1.00  0.00     0.170 A 
HETATM    5  N4  UNL     1      27.335  25.568  46.920  1.00  0.00    -0.078 NA
HETATM    6  N5  UNL     1      28.359  23.966  45.444  1.00  0.00    -0.196 N 
HETATM    7  C5  UNL     1      29.237  23.649  44.466  1.00  0.00     0.350 A 
HETATM    8  O1  UNL     1      29.281  22.443  44.091  1.00  0.00    -0.244 OA
HETATM    9  N7  UNL     1      30.036  24.560  43.906  1.00  0.00    -0.285 N 
HETATM   10  C6  UNL     1      30.975  24.239  42.867  1.00  0.00     0.163 C 
ENDROOT
BRANCH   1  11
HETATM   11  N2  UNL     1      30.776  26.708  43.748  1.00  0.00    -0.288 N 
ATOM     12  H2  UNL     1      30.598  26.961  42.775  1.00  0.00     0.188 HD
BRANCH  11  13
HETATM   13  N1  UNL     1      31.848  27.282  44.389  1.00  0.00    -0.339 N 
HETATM   14  C1  UNL     1      33.144  26.582  44.340  1.00  0.00     0.167 C 
ATOM     15  H1  UNL     1      31.749  28.169  44.884  1.00  0.00     0.179 HD
ENDBRANCH  11  13
ENDBRANCH   1  11
BRANCH   6  16
HETATM   16  N6  UNL     1      27.524  23.009  46.026  1.00  0.00    -0.333 N 
ATOM     17  H62 UNL     1      27.471  22.882  47.037  1.00  0.00     0.177 HD
ATOM     18  H61 UNL     1      26.964  22.436  45.395  1.00  0.00     0.177 HD
ENDBRANCH   6  16
TORSDOF 3
ENDMDL
MODEL 5
REMARK VINA RESULT: -5.365069364      2.051      4.674
REMARK  3 active torsions:
REMARK  status: ('A' for Active; 'I' for Inactive)
REMARK    1  A    between atoms: N1_2  and  N2_4 
REMARK    2  A    between atoms: N2_4  and  C2_6 
REMARK    3  A    between atoms: N5_11  and  N6_12 
ROOT
HETATM    1  C2  UNL     1      27.605  25.464  45.275  1.00  0.00     0.153 A 
HETATM    2  C3  UNL     1      28.063  26.431  44.410  1.00  0.00     0.135 A 
HETATM    3  N3  UNL     1      27.157  27.209  43.652  1.00  0.00    -0.095 NA
HETATM    4  C4  UNL     1      29.426  26.695  44.237  1.00  0.00     0.170 A 
HETATM    5  N4  UNL     1      29.883  27.693  43.341  1.00  0.00    -0.078 NA
HETATM    6  N5  UNL     1      30.286  25.956  44.958  1.00  0.00    -0.196 N 
HETATM    7  C5  UNL     1      29.841  25.006  45.810  1.00  0.00     0.350 A 
HETATM    8  O1  UNL     1      30.708  24.351  46.456  1.00  0.00    -0.244 OA
HETATM    9  N7  UNL     1      28.542  24.753  45.978  1.00  0.00    -0.285 N 
HETATM   10  C6  UNL     1      28.053  23.746  46.878  1.00  0.00     0.163 C 
ENDROOT
BRANCH   1  11
HETATM   11  N2  UNL     1      26.364  25.185  45.469  1.00  0.00    -0.288 N 
ATOM     12  H2  UNL     1      25.990  25.265  46.414  1.00  0.00     0.188 HD
BRANCH  11  13
HETATM   13  N1  UNL     1      25.519  24.784  44.462  1.00  0.00    -0.339 N 
HETATM   14  C1  UNL     1      25.793  23.498  43.795  1.00  0.00     0.167 C 
ATOM     15  H1  UNL     1      24.724  25.360  44.184  1.00  0.00     0.179 HD
ENDBRANCH  11  13
ENDBRANCH   1  11
BRANCH   6  16
HETATM   16  N6  UNL     1      31.647  26.218  44.786  1.00  0.00    -0.333 N 
ATOM     17  H62 UNL     1      32.147  26.886  45.374  1.00  0.00     0.177 HD
ATOM     18  H61 UNL     1      32.127  25.710  44.043  1.00  0.00     0.177 HD
ENDBRANCH   6  16
TORSDOF 3
ENDMDL
