MODEL 1
REMARK VINA RESULT: -8.612313339      0.000      0.000
REMARK  5 active torsions:
REMARK  status: ('A' for Active; 'I' for Inactive)
REMARK    1  A    between atoms: N1_1  and  C1_4 
REMARK    2  A    between atoms: C4_12  and  N4_13 
REMARK    3  A    between atoms: N4_13  and  O2_14 
REMARK    4  A    between atoms: N4_13  and  C5_16 
REMARK    5  A    between atoms: C5_16  and  C6_17 
ROOT
HETATM    1  C1  UNL     1      -2.422   6.335  16.637  1.00  0.00     0.680 A 
HETATM    2  N2  UNL     1      -2.733   7.612  16.928  1.00  0.00    -0.154 N 
ATOM      3  H2  UNL     1      -3.123   7.823  17.847  1.00  0.00     0.187 HD
HETATM    4  C2  UNL     1      -2.551   8.618  16.062  1.00  0.00     0.290 A 
HETATM    5  O1  UNL     1      -2.837   9.816  16.321  1.00  0.00    -0.265 OA
HETATM    6  C3  UNL     1      -2.015   8.313  14.810  1.00  0.00     0.162 A 
HETATM    7  N3  UNL     1      -1.713   9.054  13.741  1.00  0.00    -0.180 N 
ATOM      8  H3  UNL     1      -1.839  10.063  13.663  1.00  0.00     0.184 HD
HETATM    9  C4  UNL     1      -1.215   8.251  12.785  1.00  0.00     0.706 A 
HETATM   10  N9  UNL     1      -1.202   6.994  13.249  1.00  0.00    -0.172 N 
ATOM     11  H9  UNL     1      -0.877   6.171  12.741  1.00  0.00     0.186 HD
HETATM   12  C7  UNL     1      -1.692   7.008  14.500  1.00  0.00     0.169 A 
HETATM   13  N10 UNL     1      -1.905   6.036  15.430  1.00  0.00    -0.174 N 
ATOM     14  H10 UNL     1      -1.669   5.069  15.209  1.00  0.00     0.186 HD
ENDROOT
BRANCH   9  15
HETATM   15  N4  UNL     1      -0.795   8.726  11.520  1.00  0.00    -0.083 N 
BRANCH  15  16
HETATM   16  O2  UNL     1       0.475   8.537  11.100  1.00  0.00    -0.274 OA
ATOM     17  H2  UNL     1       0.969   9.250  10.714  1.00  0.00     0.245 HD
ENDBRANCH  15  16
BRANCH  15  18
HETATM   18  C5  UNL     1      -1.721   9.423  10.654  1.00  0.00     0.254 C 
BRANCH  18  19
HETATM   19  C6  UNL     1      -1.115  10.645  10.082  1.00  0.00     0.134 A 
HETATM   20  N5  UNL     1      -1.498  11.285   8.975  1.00  0.00    -0.271 N 
HETATM   21  N6  UNL     1      -0.699  12.347   8.792  1.00  0.00    -0.227 N 
ATOM     22  H5  UNL     1      -2.271  11.012   8.369  1.00  0.00     0.190 HD
HETATM   23  N7  UNL     1       0.157  12.330   9.797  1.00  0.00    -0.227 N 
ATOM     24  H6  UNL     1      -0.744  13.028   8.034  1.00  0.00     0.210 HD
HETATM   25  N8  UNL     1      -0.074  11.294  10.608  1.00  0.00    -0.271 N 
ATOM     26  H7  UNL     1       0.898  13.017   9.935  1.00  0.00     0.210 HD
ATOM     27  H8  UNL     1       0.439  11.048  11.455  1.00  0.00     0.190 HD
ENDBRANCH  18  19
ENDBRANCH  15  18
ENDBRANCH   9  15
BRANCH   1  28
HETATM   28  N1  UNL     1      -2.613   5.377  17.507  1.00  0.00    -0.234 N 
ATOM     29  H12 UNL     1      -2.850   5.616  18.470  1.00  0.00     0.174 HD
ATOM     30  H11 UNL     1      -2.529   4.396  17.238  1.00  0.00     0.174 HD
ENDBRANCH   1  28
TORSDOF 5
ENDMDL
MODEL 2
REMARK VINA RESULT: -8.485803609      1.894      7.162
REMARK  5 active torsions:
REMARK  status: ('A' for Active; 'I' for Inactive)
REMARK    1  A    between atoms: N1_1  and  C1_4 
REMARK    2  A    between atoms: C4_12  and  N4_13 
REMARK    3  A    between atoms: N4_13  and  O2_14 
REMARK    4  A    between atoms: N4_13  and  C5_16 
REMARK    5  A    between atoms: C5_16  and  C6_17 
ROOT
HETATM    1  C1  UNL     1      -0.845  11.336   8.826  1.00  0.00     0.680 A 
HETATM    2  N2  UNL     1      -1.963  10.778   8.326  1.00  0.00    -0.154 N 
ATOM      3  H2  UNL     1      -2.260  11.036   7.385  1.00  0.00     0.187 HD
HETATM    4  C2  UNL     1      -2.704   9.898   9.014  1.00  0.00     0.290 A 
HETATM    5  O1  UNL     1      -3.751   9.368   8.559  1.00  0.00    -0.265 OA
HETATM    6  C3  UNL     1      -2.284   9.554  10.300  1.00  0.00     0.162 A 
HETATM    7  N3  UNL     1      -2.774   8.732  11.231  1.00  0.00    -0.180 N 
ATOM      8  H3  UNL     1      -3.619   8.168  11.140  1.00  0.00     0.184 HD
HETATM    9  C4  UNL     1      -1.971   8.772  12.308  1.00  0.00     0.706 A 
HETATM   10  N9  UNL     1      -0.966   9.623  12.060  1.00  0.00    -0.172 N 
ATOM     11  H9  UNL     1      -0.204   9.854  12.697  1.00  0.00     0.186 HD
HETATM   12  C7  UNL     1      -1.139  10.119  10.823  1.00  0.00     0.169 A 
HETATM   13  N10 UNL     1      -0.436  11.007  10.067  1.00  0.00    -0.174 N 
ATOM     14  H10 UNL     1       0.411  11.430  10.445  1.00  0.00     0.186 HD
ENDROOT
BRANCH   9  15
HETATM   15  N4  UNL     1      -2.210   8.011  13.477  1.00  0.00    -0.083 N 
BRANCH  15  16
HETATM   16  O2  UNL     1      -2.514   6.698  13.396  1.00  0.00    -0.274 OA
ATOM     17  H2  UNL     1      -3.285   6.351  13.830  1.00  0.00     0.245 HD
ENDBRANCH  15  16
BRANCH  15  18
HETATM   18  C5  UNL     1      -2.131   8.630  14.782  1.00  0.00     0.254 C 
BRANCH  18  19
HETATM   19  C6  UNL     1      -2.784   7.800  15.818  1.00  0.00     0.134 A 
HETATM   20  N5  UNL     1      -4.084   7.772  16.119  1.00  0.00    -0.271 N 
HETATM   21  N6  UNL     1      -4.278   6.892  17.113  1.00  0.00    -0.227 N 
ATOM     22  H5  UNL     1      -4.810   8.327  15.667  1.00  0.00     0.190 HD
HETATM   23  N7  UNL     1      -3.086   6.403  17.397  1.00  0.00    -0.227 N 
ATOM     24  H6  UNL     1      -5.165   6.651  17.558  1.00  0.00     0.210 HD
HETATM   25  N8  UNL     1      -2.146   6.942  16.616  1.00  0.00    -0.271 N 
ATOM     26  H7  UNL     1      -2.906   5.704  18.118  1.00  0.00     0.210 HD
ATOM     27  H8  UNL     1      -1.146   6.740  16.628  1.00  0.00     0.190 HD
ENDBRANCH  18  19
ENDBRANCH  15  18
ENDBRANCH   9  15
BRANCH   1  28
HETATM   28  N1  UNL     1      -0.146  12.192   8.128  1.00  0.00    -0.234 N 
ATOM     29  H12 UNL     1      -0.390  12.358   7.151  1.00  0.00     0.174 HD
ATOM     30  H11 UNL     1       0.638  12.697   8.543  1.00  0.00     0.174 HD
ENDBRANCH   1  28
TORSDOF 5
ENDMDL
MODEL 3
REMARK VINA RESULT: -8.378241696      0.959      1.258
REMARK  5 active torsions:
REMARK  status: ('A' for Active; 'I' for Inactive)
REMARK    1  A    between atoms: N1_1  and  C1_4 
REMARK    2  A    between atoms: C4_12  and  N4_13 
REMARK    3  A    between atoms: N4_13  and  O2_14 
REMARK    4  A    between atoms: N4_13  and  C5_16 
REMARK    5  A    between atoms: C5_16  and  C6_17 
ROOT
HETATM    1  C1  UNL     1      -1.430   6.301  17.226  1.00  0.00     0.680 A 
HETATM    2  N2  UNL     1      -2.620   6.929  17.172  1.00  0.00    -0.154 N 
ATOM      3  H2  UNL     1      -3.253   6.846  17.967  1.00  0.00     0.187 HD
HETATM    4  C2  UNL     1      -3.008   7.659  16.117  1.00  0.00     0.290 A 
HETATM    5  O1  UNL     1      -4.116   8.251  16.053  1.00  0.00    -0.265 OA
HETATM    6  C3  UNL     1      -2.129   7.764  15.037  1.00  0.00     0.162 A 
HETATM    7  N3  UNL     1      -2.198   8.394  13.862  1.00  0.00    -0.180 N 
ATOM      8  H3  UNL     1      -2.984   8.956  13.535  1.00  0.00     0.184 HD
HETATM    9  C4  UNL     1      -1.062   8.166  13.182  1.00  0.00     0.706 A 
HETATM   10  N9  UNL     1      -0.267   7.386  13.928  1.00  0.00    -0.172 N 
ATOM     11  H9  UNL     1       0.660   7.050  13.667  1.00  0.00     0.186 HD
HETATM   12  C7  UNL     1      -0.907   7.125  15.080  1.00  0.00     0.169 A 
HETATM   13  N10 UNL     1      -0.580   6.399  16.186  1.00  0.00    -0.174 N 
ATOM     14  H10 UNL     1       0.321   5.924  16.226  1.00  0.00     0.186 HD
ENDROOT
BRANCH   9  15
HETATM   15  N4  UNL     1      -0.814   8.695  11.893  1.00  0.00    -0.083 N 
BRANCH  15  16
HETATM   16  O2  UNL     1       0.384   8.520  11.294  1.00  0.00    -0.274 OA
ATOM     17  H2  UNL     1       0.703   9.148  10.656  1.00  0.00     0.245 HD
ENDBRANCH  15  16
BRANCH  15  18
HETATM   18  C5  UNL     1      -1.843   9.434  11.194  1.00  0.00     0.254 C 
BRANCH  18  19
HETATM   19  C6  UNL     1      -1.275  10.563  10.426  1.00  0.00     0.134 A 
HETATM   20  N5  UNL     1      -0.129  11.201  10.670  1.00  0.00    -0.271 N 
HETATM   21  N6  UNL     1       0.034  12.164   9.750  1.00  0.00    -0.227 N 
ATOM     22  H5  UNL     1       0.518  10.990  11.430  1.00  0.00     0.190 HD
HETATM   23  N7  UNL     1      -1.023  12.091   8.963  1.00  0.00    -0.227 N 
ATOM     24  H6  UNL     1       0.814  12.818   9.675  1.00  0.00     0.210 HD
HETATM   25  N8  UNL     1      -1.847  11.115   9.354  1.00  0.00    -0.271 N 
ATOM     26  H7  UNL     1      -1.189  12.701   8.162  1.00  0.00     0.210 HD
ATOM     27  H8  UNL     1      -2.732  10.847   8.922  1.00  0.00     0.190 HD
ENDBRANCH  18  19
ENDBRANCH  15  18
ENDBRANCH   9  15
BRANCH   1  28
HETATM   28  N1  UNL     1      -1.084   5.596  18.271  1.00  0.00    -0.234 N 
ATOM     29  H12 UNL     1      -1.718   4.876  18.620  1.00  0.00     0.174 HD
ATOM     30  H11 UNL     1      -0.194   5.753  18.742  1.00  0.00     0.174 HD
ENDBRANCH   1  28
TORSDOF 5
ENDMDL
MODEL 4
REMARK VINA RESULT: -8.371265739      1.416      1.597
REMARK  5 active torsions:
REMARK  status: ('A' for Active; 'I' for Inactive)
REMARK    1  A    between atoms: N1_1  and  C1_4 
REMARK    2  A    between atoms: C4_12  and  N4_13 
REMARK    3  A    between atoms: N4_13  and  O2_14 
REMARK    4  A    between atoms: N4_13  and  C5_16 
REMARK    5  A    between atoms: C5_16  and  C6_17 
ROOT
HETATM    1  C1  UNL     1      -3.412   6.673  16.489  1.00  0.00     0.680 A 
HETATM    2  N2  UNL     1      -2.140   6.361  16.800  1.00  0.00    -0.154 N 
ATOM      3  H2  UNL     1      -1.952   5.909  17.695  1.00  0.00     0.187 HD
HETATM    4  C2  UNL     1      -1.109   6.619  15.983  1.00  0.00     0.290 A 
HETATM    5  O1  UNL     1       0.084   6.332  16.260  1.00  0.00    -0.265 OA
HETATM    6  C3  UNL     1      -1.384   7.236  14.761  1.00  0.00     0.162 A 
HETATM    7  N3  UNL     1      -0.613   7.624  13.741  1.00  0.00    -0.180 N 
ATOM      8  H3  UNL     1       0.400   7.519  13.689  1.00  0.00     0.184 HD
HETATM    9  C4  UNL     1      -1.393   8.175  12.796  1.00  0.00     0.706 A 
HETATM   10  N9  UNL     1      -2.665   8.138  13.218  1.00  0.00    -0.172 N 
ATOM     11  H9  UNL     1      -3.477   8.486  12.707  1.00  0.00     0.186 HD
HETATM   12  C7  UNL     1      -2.683   7.561  14.431  1.00  0.00     0.169 A 
HETATM   13  N10 UNL     1      -3.680   7.269  15.311  1.00  0.00    -0.174 N 
ATOM     14  H10 UNL     1      -4.644   7.506  15.076  1.00  0.00     0.186 HD
ENDROOT
BRANCH   9  15
HETATM   15  N4  UNL     1      -0.886   8.690  11.580  1.00  0.00    -0.083 N 
BRANCH  15  16
HETATM   16  O2  UNL     1       0.418   8.543  11.260  1.00  0.00    -0.274 OA
ATOM     17  H2  UNL     1       1.057   9.200  11.512  1.00  0.00     0.245 HD
ENDBRANCH  15  16
BRANCH  15  18
HETATM   18  C5  UNL     1      -1.757   9.385  10.658  1.00  0.00     0.254 C 
BRANCH  18  19
HETATM   19  C6  UNL     1      -1.116  10.602  10.115  1.00  0.00     0.134 A 
HETATM   20  N5  UNL     1      -1.444  11.248   8.994  1.00  0.00    -0.271 N 
HETATM   21  N6  UNL     1      -0.628  12.303   8.848  1.00  0.00    -0.227 N 
ATOM     22  H5  UNL     1      -2.191  10.982   8.353  1.00  0.00     0.190 HD
HETATM   23  N7  UNL     1       0.183  12.276   9.890  1.00  0.00    -0.227 N 
ATOM     24  H6  UNL     1      -0.633  12.985   8.090  1.00  0.00     0.210 HD
HETATM   25  N8  UNL     1      -0.093  11.241  10.688  1.00  0.00    -0.271 N 
ATOM     26  H7  UNL     1       0.923  12.956  10.062  1.00  0.00     0.210 HD
ATOM     27  H8  UNL     1       0.380  10.989  11.556  1.00  0.00     0.190 HD
ENDBRANCH  18  19
ENDBRANCH  15  18
ENDBRANCH   9  15
BRANCH   1  28
HETATM   28  N1  UNL     1      -4.394   6.408  17.310  1.00  0.00    -0.234 N 
ATOM     29  H12 UNL     1      -4.639   5.435  17.499  1.00  0.00     0.174 HD
ATOM     30  H11 UNL     1      -4.918   7.155  17.765  1.00  0.00     0.174 HD
ENDBRANCH   1  28
TORSDOF 5
ENDMDL
MODEL 5
REMARK VINA RESULT: -8.188448775      0.922      1.094
REMARK  5 active torsions:
REMARK  status: ('A' for Active; 'I' for Inactive)
REMARK    1  A    between atoms: N1_1  and  C1_4 
REMARK    2  A    between atoms: C4_12  and  N4_13 
REMARK    3  A    between atoms: N4_13  and  O2_14 
REMARK    4  A    between atoms: N4_13  and  C5_16 
REMARK    5  A    between atoms: C5_16  and  C6_17 
ROOT
HETATM    1  C1  UNL     1      -2.281   6.441  16.689  1.00  0.00     0.680 A 
HETATM    2  N2  UNL     1      -2.616   7.724  16.922  1.00  0.00    -0.154 N 
ATOM      3  H2  UNL     1      -2.983   7.974  17.840  1.00  0.00     0.187 HD
HETATM    4  C2  UNL     1      -2.488   8.686  15.999  1.00  0.00     0.290 A 
HETATM    5  O1  UNL     1      -2.797   9.889  16.203  1.00  0.00    -0.265 OA
HETATM    6  C3  UNL     1      -1.984   8.327  14.747  1.00  0.00     0.162 A 
HETATM    7  N3  UNL     1      -1.735   9.017  13.631  1.00  0.00    -0.180 N 
ATOM      8  H3  UNL     1      -1.890  10.017  13.504  1.00  0.00     0.184 HD
HETATM    9  C4  UNL     1      -1.248   8.176  12.703  1.00  0.00     0.706 A 
HETATM   10  N9  UNL     1      -1.186   6.946  13.232  1.00  0.00    -0.172 N 
ATOM     11  H9  UNL     1      -0.856   6.105  12.759  1.00  0.00     0.186 HD
HETATM   12  C7  UNL     1      -1.637   7.016  14.496  1.00  0.00     0.169 A 
HETATM   13  N10 UNL     1      -1.795   6.091  15.483  1.00  0.00    -0.174 N 
ATOM     14  H10 UNL     1      -1.541   5.118  15.306  1.00  0.00     0.186 HD
ENDROOT
BRANCH   9  15
HETATM   15  N4  UNL     1      -0.880   8.592  11.402  1.00  0.00    -0.083 N 
BRANCH  15  16
HETATM   16  O2  UNL     1       0.332   9.142  11.170  1.00  0.00    -0.274 OA
ATOM     17  H2  UNL     1       0.427  10.081  11.069  1.00  0.00     0.245 HD
ENDBRANCH  15  16
BRANCH  15  18
HETATM   18  C5  UNL     1      -1.799   8.435  10.295  1.00  0.00     0.254 C 
BRANCH  18  19
HETATM   19  C6  UNL     1      -1.710   9.569   9.350  1.00  0.00     0.134 A 
HETATM   20  N5  UNL     1      -1.416   9.506   8.050  1.00  0.00    -0.271 N 
HETATM   21  N6  UNL     1      -1.435  10.748   7.541  1.00  0.00    -0.227 N 
ATOM     22  H5  UNL     1      -1.211   8.655   7.528  1.00  0.00     0.190 HD
HETATM   23  N7  UNL     1      -1.742  11.543   8.549  1.00  0.00    -0.227 N 
ATOM     24  H6  UNL     1      -1.252  11.021   6.576  1.00  0.00     0.210 HD
HETATM   25  N8  UNL     1      -1.917  10.847   9.676  1.00  0.00    -0.271 N 
ATOM     26  H7  UNL     1      -1.833  12.557   8.477  1.00  0.00     0.210 HD
ATOM     27  H8  UNL     1      -2.160  11.216  10.596  1.00  0.00     0.190 HD
ENDBRANCH  18  19
ENDBRANCH  15  18
ENDBRANCH   9  15
BRANCH   1  28
HETATM   28  N1  UNL     1      -2.420   5.527  17.614  1.00  0.00    -0.234 N 
ATOM     29  H12 UNL     1      -3.035   5.707  18.407  1.00  0.00     0.174 HD
ATOM     30  H11 UNL     1      -1.924   4.637  17.555  1.00  0.00     0.174 HD
ENDBRANCH   1  28
TORSDOF 5
ENDMDL
