MODEL 1
REMARK VINA RESULT: -7.387635660      0.000      0.000
REMARK  5 active torsions:
REMARK  status: ('A' for Active; 'I' for Inactive)
REMARK    1  A    between atoms: O1_2  and  C2_3 
REMARK    2  A    between atoms: C2_3  and  C3_7 
REMARK    3  A    between atoms: C5_11  and  N3_12 
REMARK    4  A    between atoms: C6_17  and  N5_18 
REMARK    5  A    between atoms: N5_18  and  C7_20 
ROOT
HETATM    1  C3  UNL     1      30.988  24.194  39.786  1.00  0.00     0.075 A 
HETATM    2  C4  UNL     1      29.803  23.466  39.703  1.00  0.00     0.125 A 
HETATM    3  N2  UNL     1      29.335  23.031  38.525  1.00  0.00    -0.201 N 
ATOM      4  H2  UNL     1      28.463  22.501  38.500  1.00  0.00     0.183 HD
HETATM    5  C5  UNL     1      29.988  23.277  37.375  1.00  0.00     0.677 A 
HETATM    6  N4  UNL     1      31.116  23.969  37.450  1.00  0.00    -0.175 N 
ATOM      7  H4  UNL     1      31.617  24.159  36.582  1.00  0.00     0.186 HD
HETATM    8  C6  UNL     1      31.643  24.435  38.596  1.00  0.00     0.152 A 
ENDROOT
BRANCH   8   9
HETATM    9  N5  UNL     1      32.858  25.171  38.604  1.00  0.00    -0.172 N 
ATOM     10  H5  UNL     1      32.846  26.137  38.931  1.00  0.00     0.186 HD
BRANCH   9  11
HETATM   11  C7  UNL     1      33.982  24.658  38.212  1.00  0.00     0.715 A 
HETATM   12  N6  UNL     1      34.798  25.005  37.221  1.00  0.00    -0.115 N 
HETATM   13  N7  UNL     1      35.840  24.162  37.218  1.00  0.00    -0.213 N 
ATOM     14  H6  UNL     1      34.655  25.779  36.573  1.00  0.00     0.207 HD
HETATM   15  N8  UNL     1      35.689  23.299  38.188  1.00  0.00    -0.213 N 
ATOM     16  H7  UNL     1      36.624  24.190  36.566  1.00  0.00     0.210 HD
HETATM   17  N9  UNL     1      34.544  23.593  38.812  1.00  0.00    -0.115 N 
ATOM     18  H8  UNL     1      36.327  22.539  38.426  1.00  0.00     0.210 HD
ATOM     19  H9  UNL     1      34.159  23.091  39.612  1.00  0.00     0.207 HD
ENDBRANCH   9  11
ENDBRANCH   8   9
BRANCH   1  20
HETATM   20  C2  UNL     1      31.497  24.667  41.068  1.00  0.00     0.151 C 
HETATM   21  N1  UNL     1      31.930  23.781  41.894  1.00  0.00    -0.379 N 
ATOM     22  H12 UNL     1      32.286  24.112  42.791  1.00  0.00     0.158 HD
ATOM     23  H11 UNL     1      31.905  22.795  41.633  1.00  0.00     0.158 HD
BRANCH  20  24
HETATM   24  O1  UNL     1      31.531  25.988  41.419  1.00  0.00    -0.340 OA
HETATM   25  C1  UNL     1      30.593  26.613  42.273  1.00  0.00     0.211 C 
ENDBRANCH  20  24
ENDBRANCH   1  20
BRANCH   5  26
HETATM   26  N3  UNL     1      29.490  22.833  36.262  1.00  0.00    -0.234 N 
ATOM     27  H32 UNL     1      28.578  22.382  36.191  1.00  0.00     0.174 HD
ATOM     28  H31 UNL     1      30.031  22.933  35.404  1.00  0.00     0.174 HD
ENDBRANCH   5  26
TORSDOF 5
ENDMDL
MODEL 2
REMARK VINA RESULT: -7.187758454      0.773      1.127
REMARK  5 active torsions:
REMARK  status: ('A' for Active; 'I' for Inactive)
REMARK    1  A    between atoms: O1_2  and  C2_3 
REMARK    2  A    between atoms: C2_3  and  C3_7 
REMARK    3  A    between atoms: C5_11  and  N3_12 
REMARK    4  A    between atoms: C6_17  and  N5_18 
REMARK    5  A    between atoms: N5_18  and  C7_20 
ROOT
HETATM    1  C3  UNL     1      30.843  23.874  40.080  1.00  0.00     0.075 A 
HETATM    2  C4  UNL     1      29.493  23.778  39.748  1.00  0.00     0.125 A 
HETATM    3  N2  UNL     1      29.103  23.450  38.509  1.00  0.00    -0.201 N 
ATOM      4  H2  UNL     1      28.106  23.390  38.299  1.00  0.00     0.183 HD
HETATM    5  C5  UNL     1      29.995  23.197  37.535  1.00  0.00     0.677 A 
HETATM    6  N4  UNL     1      31.281  23.286  37.847  1.00  0.00    -0.175 N 
ATOM      7  H4  UNL     1      31.964  23.096  37.113  1.00  0.00     0.186 HD
HETATM    8  C6  UNL     1      31.742  23.610  39.068  1.00  0.00     0.152 A 
ENDROOT
BRANCH   8   9
HETATM    9  N5  UNL     1      33.136  23.687  39.334  1.00  0.00    -0.172 N 
ATOM     10  H5  UNL     1      33.494  23.284  40.199  1.00  0.00     0.186 HD
BRANCH   9  11
HETATM   11  C7  UNL     1      33.968  24.252  38.516  1.00  0.00     0.715 A 
HETATM   12  N6  UNL     1      34.927  23.733  37.754  1.00  0.00    -0.115 N 
HETATM   13  N7  UNL     1      35.517  24.730  37.081  1.00  0.00    -0.213 N 
ATOM     14  H6  UNL     1      35.172  22.745  37.693  1.00  0.00     0.207 HD
HETATM   15  N8  UNL     1      34.944  25.859  37.410  1.00  0.00    -0.213 N 
ATOM     16  H7  UNL     1      36.287  24.626  36.421  1.00  0.00     0.210 HD
HETATM   17  N9  UNL     1      33.984  25.579  38.296  1.00  0.00    -0.115 N 
ATOM     18  H8  UNL     1      35.186  26.785  37.054  1.00  0.00     0.210 HD
ATOM     19  H9  UNL     1      33.365  26.261  38.734  1.00  0.00     0.207 HD
ENDBRANCH   9  11
ENDBRANCH   8   9
BRANCH   1  20
HETATM   20  C2  UNL     1      31.267  24.232  41.428  1.00  0.00     0.151 C 
HETATM   21  N1  UNL     1      31.272  23.296  42.313  1.00  0.00    -0.379 N 
ATOM     22  H12 UNL     1      31.568  23.547  43.256  1.00  0.00     0.158 HD
ATOM     23  H11 UNL     1      30.984  22.354  42.049  1.00  0.00     0.158 HD
BRANCH  20  24
HETATM   24  O1  UNL     1      31.651  25.495  41.782  1.00  0.00    -0.340 OA
HETATM   25  C1  UNL     1      30.783  26.475  42.316  1.00  0.00     0.211 C 
ENDBRANCH  20  24
ENDBRANCH   1  20
BRANCH   5  26
HETATM   26  N3  UNL     1      29.564  22.883  36.352  1.00  0.00    -0.234 N 
ATOM     27  H32 UNL     1      30.119  22.986  35.503  1.00  0.00     0.174 HD
ATOM     28  H31 UNL     1      28.619  22.512  36.253  1.00  0.00     0.174 HD
ENDBRANCH   5  26
TORSDOF 5
ENDMDL
MODEL 3
REMARK VINA RESULT: -7.045797754      2.243      4.595
REMARK  5 active torsions:
REMARK  status: ('A' for Active; 'I' for Inactive)
REMARK    1  A    between atoms: O1_2  and  C2_3 
REMARK    2  A    between atoms: C2_3  and  C3_7 
REMARK    3  A    between atoms: C5_11  and  N3_12 
REMARK    4  A    between atoms: C6_17  and  N5_18 
REMARK    5  A    between atoms: N5_18  and  C7_20 
ROOT
HETATM    1  C3  UNL     1      30.568  24.879  42.238  1.00  0.00     0.075 A 
HETATM    2  C4  UNL     1      30.245  25.540  43.421  1.00  0.00     0.125 A 
HETATM    3  N2  UNL     1      31.195  26.081  44.196  1.00  0.00    -0.201 N 
ATOM      4  H2  UNL     1      30.924  26.557  45.057  1.00  0.00     0.183 HD
HETATM    5  C5  UNL     1      32.497  26.011  43.865  1.00  0.00     0.677 A 
HETATM    6  N4  UNL     1      32.807  25.384  42.739  1.00  0.00    -0.175 N 
ATOM      7  H4  UNL     1      33.792  25.326  42.481  1.00  0.00     0.186 HD
HETATM    8  C6  UNL     1      31.907  24.818  41.915  1.00  0.00     0.152 A 
ENDROOT
BRANCH   8   9
HETATM    9  N5  UNL     1      32.310  24.160  40.722  1.00  0.00    -0.172 N 
ATOM     10  H5  UNL     1      32.142  23.158  40.632  1.00  0.00     0.186 HD
BRANCH   9  11
HETATM   11  C7  UNL     1      32.882  24.788  39.743  1.00  0.00     0.715 A 
HETATM   12  N6  UNL     1      34.146  24.785  39.328  1.00  0.00    -0.115 N 
HETATM   13  N7  UNL     1      34.244  25.601  38.269  1.00  0.00    -0.213 N 
ATOM     14  H6  UNL     1      34.910  24.253  39.744  1.00  0.00     0.207 HD
HETATM   15  N8  UNL     1      33.066  26.111  38.018  1.00  0.00    -0.213 N 
ATOM     16  H7  UNL     1      35.097  25.793  37.746  1.00  0.00     0.210 HD
HETATM   17  N9  UNL     1      32.214  25.618  38.921  1.00  0.00    -0.115 N 
ATOM     18  H8  UNL     1      32.839  26.767  37.269  1.00  0.00     0.210 HD
ATOM     19  H9  UNL     1      31.219  25.835  38.978  1.00  0.00     0.207 HD
ENDBRANCH   9  11
ENDBRANCH   8   9
BRANCH   1  20
HETATM   20  C2  UNL     1      29.534  24.289  41.395  1.00  0.00     0.151 C 
HETATM   21  N1  UNL     1      28.651  23.552  41.973  1.00  0.00    -0.379 N 
ATOM     22  H12 UNL     1      27.928  23.139  41.383  1.00  0.00     0.158 HD
ATOM     23  H11 UNL     1      28.701  23.405  42.981  1.00  0.00     0.158 HD
BRANCH  20  24
HETATM   24  O1  UNL     1      29.466  24.485  40.043  1.00  0.00    -0.340 OA
HETATM   25  C1  UNL     1      29.125  23.483  39.106  1.00  0.00     0.211 C 
ENDBRANCH  20  24
ENDBRANCH   1  20
BRANCH   5  26
HETATM   26  N3  UNL     1      33.375  26.552  44.651  1.00  0.00    -0.234 N 
ATOM     27  H32 UNL     1      33.500  26.286  45.627  1.00  0.00     0.174 HD
ATOM     28  H31 UNL     1      33.982  27.286  44.285  1.00  0.00     0.174 HD
ENDBRANCH   5  26
TORSDOF 5
ENDMDL
MODEL 4
REMARK VINA RESULT: -6.978647771      1.793      3.806
REMARK  5 active torsions:
REMARK  status: ('A' for Active; 'I' for Inactive)
REMARK    1  A    between atoms: O1_2  and  C2_3 
REMARK    2  A    between atoms: C2_3  and  C3_7 
REMARK    3  A    between atoms: C5_11  and  N3_12 
REMARK    4  A    between atoms: C6_17  and  N5_18 
REMARK    5  A    between atoms: N5_18  and  C7_20 
ROOT
HETATM    1  C3  UNL     1      30.809  24.389  40.003  1.00  0.00     0.075 A 
HETATM    2  C4  UNL     1      30.007  25.013  40.957  1.00  0.00     0.125 A 
HETATM    3  N2  UNL     1      30.524  25.480  42.102  1.00  0.00    -0.201 N 
ATOM      4  H2  UNL     1      29.908  25.930  42.779  1.00  0.00     0.183 HD
HETATM    5  C5  UNL     1      31.835  25.369  42.378  1.00  0.00     0.677 A 
HETATM    6  N4  UNL     1      32.601  24.777  41.473  1.00  0.00    -0.175 N 
ATOM      7  H4  UNL     1      33.597  24.689  41.675  1.00  0.00     0.186 HD
HETATM    8  C6  UNL     1      32.151  24.285  40.305  1.00  0.00     0.152 A 
ENDROOT
BRANCH   8   9
HETATM    9  N5  UNL     1      33.029  23.662  39.378  1.00  0.00    -0.172 N 
ATOM     10  H5  UNL     1      33.043  22.644  39.322  1.00  0.00     0.186 HD
BRANCH   9  11
HETATM   11  C7  UNL     1      33.813  24.342  38.600  1.00  0.00     0.715 A 
HETATM   12  N6  UNL     1      33.866  25.646  38.343  1.00  0.00    -0.115 N 
HETATM   13  N7  UNL     1      34.856  25.862  37.466  1.00  0.00    -0.213 N 
ATOM     14  H6  UNL     1      33.258  26.359  38.745  1.00  0.00     0.207 HD
HETATM   15  N8  UNL     1      35.418  24.719  37.172  1.00  0.00    -0.213 N 
ATOM     16  H7  UNL     1      35.125  26.770  37.088  1.00  0.00     0.210 HD
HETATM   17  N9  UNL     1      34.785  23.770  37.866  1.00  0.00    -0.115 N 
ATOM     18  H8  UNL     1      36.199  24.578  36.530  1.00  0.00     0.210 HD
ATOM     19  H9  UNL     1      35.002  22.773  37.843  1.00  0.00     0.207 HD
ENDBRANCH   9  11
ENDBRANCH   8   9
BRANCH   1  20
HETATM   20  C2  UNL     1      30.246  23.880  38.758  1.00  0.00     0.151 C 
HETATM   21  N1  UNL     1      30.060  24.727  37.805  1.00  0.00    -0.379 N 
ATOM     22  H12 UNL     1      29.667  24.370  36.935  1.00  0.00     0.158 HD
ATOM     23  H11 UNL     1      30.306  25.706  37.949  1.00  0.00     0.158 HD
BRANCH  20  24
HETATM   24  O1  UNL     1      29.916  22.568  38.566  1.00  0.00    -0.340 OA
HETATM   25  C1  UNL     1      29.332  21.738  39.551  1.00  0.00     0.211 C 
ENDBRANCH  20  24
ENDBRANCH   1  20
BRANCH   5  26
HETATM   26  N3  UNL     1      32.283  25.838  43.501  1.00  0.00    -0.234 N 
ATOM     27  H32 UNL     1      33.104  26.439  43.575  1.00  0.00     0.174 HD
ATOM     28  H31 UNL     1      31.797  25.601  44.366  1.00  0.00     0.174 HD
ENDBRANCH   5  26
TORSDOF 5
ENDMDL
MODEL 5
REMARK VINA RESULT: -6.942822214      1.939      3.971
REMARK  5 active torsions:
REMARK  status: ('A' for Active; 'I' for Inactive)
REMARK    1  A    between atoms: O1_2  and  C2_3 
REMARK    2  A    between atoms: C2_3  and  C3_7 
REMARK    3  A    between atoms: C5_11  and  N3_12 
REMARK    4  A    between atoms: C6_17  and  N5_18 
REMARK    5  A    between atoms: N5_18  and  C7_20 
ROOT
HETATM    1  C3  UNL     1      30.518  24.372  40.521  1.00  0.00     0.075 A 
HETATM    2  C4  UNL     1      29.905  24.872  41.668  1.00  0.00     0.125 A 
HETATM    3  N2  UNL     1      30.627  25.368  42.682  1.00  0.00    -0.201 N 
ATOM      4  H2  UNL     1      30.146  25.725  43.508  1.00  0.00     0.183 HD
HETATM    5  C5  UNL     1      31.971  25.406  42.637  1.00  0.00     0.677 A 
HETATM    6  N4  UNL     1      32.557  24.932  41.546  1.00  0.00    -0.175 N 
ATOM      7  H4  UNL     1      33.576  24.957  41.504  1.00  0.00     0.186 HD
HETATM    8  C6  UNL     1      31.896  24.420  40.493  1.00  0.00     0.152 A 
ENDROOT
BRANCH   8   9
HETATM    9  N5  UNL     1      32.590  23.928  39.354  1.00  0.00    -0.172 N 
ATOM     10  H5  UNL     1      32.660  22.920  39.219  1.00  0.00     0.186 HD
BRANCH   9  11
HETATM   11  C7  UNL     1      33.135  24.715  38.481  1.00  0.00     0.715 A 
HETATM   12  N6  UNL     1      34.302  25.353  38.493  1.00  0.00    -0.115 N 
HETATM   13  N7  UNL     1      34.414  26.049  37.353  1.00  0.00    -0.213 N 
ATOM     14  H6  UNL     1      34.994  25.318  39.241  1.00  0.00     0.207 HD
HETATM   15  N8  UNL     1      33.340  25.857  36.633  1.00  0.00    -0.213 N 
ATOM     16  H7  UNL     1      35.208  26.633  37.091  1.00  0.00     0.210 HD
HETATM   17  N9  UNL     1      32.540  25.034  37.317  1.00  0.00    -0.115 N 
ATOM     18  H8  UNL     1      33.148  26.261  35.716  1.00  0.00     0.210 HD
ATOM     19  H9  UNL     1      31.626  24.703  37.007  1.00  0.00     0.207 HD
ENDBRANCH   9  11
ENDBRANCH   8   9
BRANCH   1  20
HETATM   20  C2  UNL     1      29.733  23.831  39.418  1.00  0.00     0.151 C 
HETATM   21  N1  UNL     1      29.094  22.733  39.631  1.00  0.00    -0.379 N 
ATOM     22  H12 UNL     1      28.545  22.356  38.859  1.00  0.00     0.158 HD
ATOM     23  H11 UNL     1      29.157  22.285  40.545  1.00  0.00     0.158 HD
BRANCH  20  24
HETATM   24  O1  UNL     1      29.648  24.432  38.193  1.00  0.00    -0.340 OA
HETATM   25  C1  UNL     1      28.495  24.420  37.374  1.00  0.00     0.211 C 
ENDBRANCH  20  24
ENDBRANCH   1  20
BRANCH   5  26
HETATM   26  N3  UNL     1      32.621  25.897  43.646  1.00  0.00    -0.234 N 
ATOM     27  H32 UNL     1      32.778  26.895  43.784  1.00  0.00     0.174 HD
ATOM     28  H31 UNL     1      33.001  25.261  44.346  1.00  0.00     0.174 HD
ENDBRANCH   5  26
TORSDOF 5
ENDMDL
