MODEL 1
REMARK VINA RESULT: -5.629361374      0.000      0.000
REMARK  3 active torsions:
REMARK  status: ('A' for Active; 'I' for Inactive)
REMARK       I    between atoms: C1_4  and  N2_5 
REMARK       I    between atoms: C1_4  and  N4_10 
REMARK    1  A    between atoms: N2_5  and  N3_7 
REMARK       I    between atoms: N4_10  and  C2_12 
REMARK    2  A    between atoms: C2_12  and  C3_14 
REMARK    3  A    between atoms: N5_15  and  O2_17 
ROOT
HETATM    1  N1  UNL     1       0.167  11.872  10.198  1.00  0.00    -0.233 N 
ATOM      2  H11 UNL     1       1.187  11.897  10.182  1.00  0.00     0.174 HD
ATOM      3  H12 UNL     1      -0.383  12.721  10.329  1.00  0.00     0.174 HD
HETATM    4  C1  UNL     1      -0.416  10.745  10.049  1.00  0.00     0.692 C 
HETATM    5  N2  UNL     1      -1.828  10.711  10.070  1.00  0.00    -0.139 N 
ATOM      6  H2  UNL     1      -2.313  10.171  10.787  1.00  0.00     0.205 HD
HETATM    7  N4  UNL     1       0.341   9.575   9.869  1.00  0.00    -0.154 N 
ATOM      8  H4  UNL     1       1.358   9.646   9.861  1.00  0.00     0.187 HD
HETATM    9  C2  UNL     1      -0.256   8.296   9.699  1.00  0.00     0.276 C 
HETATM   10  O1  UNL     1      -1.505   8.149   9.701  1.00  0.00    -0.266 OA
ENDROOT
BRANCH   5  11
HETATM   11  N3  UNL     1      -2.569  11.422   9.105  1.00  0.00    -0.331 N 
ATOM     12  H32 UNL     1      -3.104  12.239   9.397  1.00  0.00     0.177 HD
ATOM     13  H31 UNL     1      -2.566  11.118   8.131  1.00  0.00     0.177 HD
ENDBRANCH   5  11
BRANCH   9  14
HETATM   14  C3  UNL     1       0.560   7.103   9.516  1.00  0.00     0.188 C 
HETATM   15  N5  UNL     1       0.200   6.129   8.776  1.00  0.00    -0.275 N 
ATOM     16  H5  UNL     1      -0.693   6.168   8.284  1.00  0.00     0.193 HD
BRANCH  15  17
HETATM   17  O2  UNL     1       1.002   5.039   8.640  1.00  0.00    -0.290 OA
ATOM     18  H2  UNL     1       1.095   4.615   7.795  1.00  0.00     0.244 HD
ENDBRANCH  15  17
ENDBRANCH   9  14
TORSDOF 3
ENDMDL
MODEL 2
REMARK VINA RESULT: -5.407958333      2.869      4.102
REMARK  3 active torsions:
REMARK  status: ('A' for Active; 'I' for Inactive)
REMARK       I    between atoms: C1_4  and  N2_5 
REMARK       I    between atoms: C1_4  and  N4_10 
REMARK    1  A    between atoms: N2_5  and  N3_7 
REMARK       I    between atoms: N4_10  and  C2_12 
REMARK    2  A    between atoms: C2_12  and  C3_14 
REMARK    3  A    between atoms: N5_15  and  O2_17 
ROOT
HETATM    1  N1  UNL     1      -1.447   8.800  13.569  1.00  0.00    -0.233 N 
ATOM      2  H11 UNL     1      -1.850   9.736  13.621  1.00  0.00     0.174 HD
ATOM      3  H12 UNL     1      -1.468   8.168  14.369  1.00  0.00     0.174 HD
HETATM    4  C1  UNL     1      -0.910   8.429  12.471  1.00  0.00     0.692 C 
HETATM    5  N2  UNL     1      -0.353   7.133  12.399  1.00  0.00    -0.139 N 
ATOM      6  H2  UNL     1       0.642   7.017  12.210  1.00  0.00     0.205 HD
HETATM    7  N4  UNL     1      -0.881   9.300  11.368  1.00  0.00    -0.154 N 
ATOM      8  H4  UNL     1      -1.294  10.227  11.465  1.00  0.00     0.187 HD
HETATM    9  C2  UNL     1      -0.296   8.939  10.123  1.00  0.00     0.276 C 
HETATM   10  O1  UNL     1       0.229   7.810   9.948  1.00  0.00    -0.266 OA
ENDROOT
BRANCH   5  11
HETATM   11  N3  UNL     1      -1.169   5.999  12.587  1.00  0.00    -0.331 N 
ATOM     12  H32 UNL     1      -1.135   5.510  13.481  1.00  0.00     0.177 HD
ATOM     13  H31 UNL     1      -1.783   5.679  11.837  1.00  0.00     0.177 HD
ENDBRANCH   5  11
BRANCH   9  14
HETATM   14  C3  UNL     1      -0.282   9.867   9.001  1.00  0.00     0.188 C 
HETATM   15  N5  UNL     1      -1.050   9.739   7.992  1.00  0.00    -0.275 N 
ATOM     16  H5  UNL     1      -1.708   8.961   7.949  1.00  0.00     0.193 HD
BRANCH  15  17
HETATM   17  O2  UNL     1      -0.996  10.637   6.971  1.00  0.00    -0.290 OA
ATOM     18  H2  UNL     1      -0.163  11.009   6.704  1.00  0.00     0.244 HD
ENDBRANCH  15  17
ENDBRANCH   9  14
TORSDOF 3
ENDMDL
MODEL 3
REMARK VINA RESULT: -5.389801592      2.789      3.124
REMARK  3 active torsions:
REMARK  status: ('A' for Active; 'I' for Inactive)
REMARK       I    between atoms: C1_4  and  N2_5 
REMARK       I    between atoms: C1_4  and  N4_10 
REMARK    1  A    between atoms: N2_5  and  N3_7 
REMARK       I    between atoms: N4_10  and  C2_12 
REMARK    2  A    between atoms: C2_12  and  C3_14 
REMARK    3  A    between atoms: N5_15  and  O2_17 
ROOT
HETATM    1  N1  UNL     1       0.133  12.098   9.658  1.00  0.00    -0.233 N 
ATOM      2  H11 UNL     1       0.827  12.202  10.399  1.00  0.00     0.174 HD
ATOM      3  H12 UNL     1       0.118  12.723   8.853  1.00  0.00     0.174 HD
HETATM    4  C1  UNL     1      -0.726  11.157   9.759  1.00  0.00     0.692 C 
HETATM    5  N2  UNL     1      -1.686  11.012   8.732  1.00  0.00    -0.139 N 
ATOM      6  H2  UNL     1      -2.678  11.107   8.947  1.00  0.00     0.205 HD
HETATM    7  N4  UNL     1      -0.706  10.295  10.868  1.00  0.00    -0.154 N 
ATOM      8  H4  UNL     1       0.005  10.437  11.586  1.00  0.00     0.187 HD
HETATM    9  C2  UNL     1      -1.638   9.233  11.030  1.00  0.00     0.276 C 
HETATM   10  O1  UNL     1      -2.535   9.013  10.177  1.00  0.00    -0.266 OA
ENDROOT
BRANCH   5  11
HETATM   11  N3  UNL     1      -1.277  10.736   7.412  1.00  0.00    -0.331 N 
ATOM     12  H32 UNL     1      -1.011   9.783   7.168  1.00  0.00     0.177 HD
ATOM     13  H31 UNL     1      -1.248  11.483   6.717  1.00  0.00     0.177 HD
ENDBRANCH   5  11
BRANCH   9  14
HETATM   14  C3  UNL     1      -1.588   8.360  12.194  1.00  0.00     0.188 C 
HETATM   15  N5  UNL     1      -0.777   8.544  13.160  1.00  0.00    -0.275 N 
ATOM     16  H5  UNL     1      -0.128   9.331  13.135  1.00  0.00     0.193 HD
BRANCH  15  17
HETATM   17  O2  UNL     1      -0.774   7.697  14.224  1.00  0.00    -0.290 OA
ATOM     18  H2  UNL     1      -0.009   7.164  14.410  1.00  0.00     0.244 HD
ENDBRANCH  15  17
ENDBRANCH   9  14
TORSDOF 3
ENDMDL
MODEL 4
REMARK VINA RESULT: -5.328055572      1.247      1.247
REMARK  3 active torsions:
REMARK  status: ('A' for Active; 'I' for Inactive)
REMARK       I    between atoms: C1_4  and  N2_5 
REMARK       I    between atoms: C1_4  and  N4_10 
REMARK    1  A    between atoms: N2_5  and  N3_7 
REMARK       I    between atoms: N4_10  and  C2_12 
REMARK    2  A    between atoms: C2_12  and  C3_14 
REMARK    3  A    between atoms: N5_15  and  O2_17 
ROOT
HETATM    1  N1  UNL     1       0.086  11.900  10.157  1.00  0.00    -0.233 N 
ATOM      2  H11 UNL     1       1.104  11.952  10.190  1.00  0.00     0.174 HD
ATOM      3  H12 UNL     1      -0.489  12.742  10.144  1.00  0.00     0.174 HD
HETATM    4  C1  UNL     1      -0.462  10.746  10.134  1.00  0.00     0.692 C 
HETATM    5  N2  UNL     1      -1.873  10.673  10.089  1.00  0.00    -0.139 N 
ATOM      6  H2  UNL     1      -2.383  10.220  10.846  1.00  0.00     0.205 HD
HETATM    7  N4  UNL     1       0.330   9.585  10.153  1.00  0.00    -0.154 N 
ATOM      8  H4  UNL     1       1.344   9.685  10.186  1.00  0.00     0.187 HD
HETATM    9  C2  UNL     1      -0.228   8.277  10.128  1.00  0.00     0.276 C 
HETATM   10  O1  UNL     1      -1.471   8.095  10.087  1.00  0.00    -0.266 OA
ENDROOT
BRANCH   5  11
HETATM   11  N3  UNL     1      -2.576  11.225   8.999  1.00  0.00    -0.331 N 
ATOM     12  H32 UNL     1      -3.590  11.319   9.064  1.00  0.00     0.177 HD
ATOM     13  H31 UNL     1      -2.075  11.522   8.162  1.00  0.00     0.177 HD
ENDBRANCH   5  11
BRANCH   9  14
HETATM   14  C3  UNL     1       0.624   7.097  10.149  1.00  0.00     0.188 C 
HETATM   15  N5  UNL     1       1.131   6.633  11.223  1.00  0.00    -0.275 N 
ATOM     16  H5  UNL     1       0.946   7.095  12.113  1.00  0.00     0.193 HD
BRANCH  15  17
HETATM   17  O2  UNL     1       1.920   5.525  11.186  1.00  0.00    -0.290 OA
ATOM     18  H2  UNL     1       2.646   5.433  11.791  1.00  0.00     0.244 HD
ENDBRANCH  15  17
ENDBRANCH   9  14
TORSDOF 3
ENDMDL
MODEL 5
REMARK VINA RESULT: -5.273520416      1.450      1.788
REMARK  3 active torsions:
REMARK  status: ('A' for Active; 'I' for Inactive)
REMARK       I    between atoms: C1_4  and  N2_5 
REMARK       I    between atoms: C1_4  and  N4_10 
REMARK    1  A    between atoms: N2_5  and  N3_7 
REMARK       I    between atoms: N4_10  and  C2_12 
REMARK    2  A    between atoms: C2_12  and  C3_14 
REMARK    3  A    between atoms: N5_15  and  O2_17 
ROOT
HETATM    1  N1  UNL     1      -1.203  10.431   7.933  1.00  0.00    -0.233 N 
ATOM      2  H11 UNL     1      -1.420   9.990   7.039  1.00  0.00     0.174 HD
ATOM      3  H12 UNL     1      -1.442  11.406   8.115  1.00  0.00     0.174 HD
HETATM    4  C1  UNL     1      -0.620   9.733   8.829  1.00  0.00     0.692 C 
HETATM    5  N2  UNL     1      -0.320  10.345  10.067  1.00  0.00    -0.139 N 
ATOM      6  H2  UNL     1       0.650  10.424  10.373  1.00  0.00     0.205 HD
HETATM    7  N4  UNL     1      -0.290   8.390   8.578  1.00  0.00    -0.154 N 
ATOM      8  H4  UNL     1      -0.525   7.990   7.670  1.00  0.00     0.187 HD
HETATM    9  C2  UNL     1       0.359   7.568   9.540  1.00  0.00     0.276 C 
HETATM   10  O1  UNL     1       0.673   8.009  10.675  1.00  0.00    -0.266 OA
ENDROOT
BRANCH   5  11
HETATM   11  N3  UNL     1      -1.356  10.845  10.880  1.00  0.00    -0.331 N 
ATOM     12  H32 UNL     1      -1.945  11.596  10.521  1.00  0.00     0.177 HD
ATOM     13  H31 UNL     1      -1.509  10.459  11.812  1.00  0.00     0.177 HD
ENDBRANCH   5  11
BRANCH   9  14
HETATM   14  C3  UNL     1       0.687   6.181   9.245  1.00  0.00     0.188 C 
HETATM   15  N5  UNL     1       0.614   5.690   8.070  1.00  0.00    -0.275 N 
ATOM     16  H5  UNL     1       0.316   6.278   7.292  1.00  0.00     0.193 HD
BRANCH  15  17
HETATM   17  O2  UNL     1       0.934   4.386   7.851  1.00  0.00    -0.290 OA
ATOM     18  H2  UNL     1       1.175   3.823   8.578  1.00  0.00     0.244 HD
ENDBRANCH  15  17
ENDBRANCH   9  14
TORSDOF 3
ENDMDL
