MODEL 1
REMARK VINA RESULT: -5.073586324      0.000      0.000
REMARK  2 active torsions:
REMARK  status: ('A' for Active; 'I' for Inactive)
REMARK    1  A    between atoms: O1_1  and  S1_3 
REMARK    2  A    between atoms: S1_3  and  C1_4 
ROOT
HETATM    1  C1  UNL     1      10.893   4.114  -3.738  1.00  0.00     0.150 A 
HETATM    2  N1  UNL     1      10.423   5.205  -3.102  1.00  0.00    -0.286 N 
ATOM      3  H1  UNL     1      10.518   5.284  -2.089  1.00  0.00     0.188 HD
HETATM    4  N2  UNL     1       9.840   6.171  -3.789  1.00  0.00    -0.250 N 
ATOM      5  H2  UNL     1       9.490   6.992  -3.296  1.00  0.00     0.191 HD
HETATM    6  C2  UNL     1       9.698   6.094  -5.133  1.00  0.00     0.340 A 
HETATM    7  O2  UNL     1       9.137   7.025  -5.777  1.00  0.00    -0.245 OA
HETATM    8  N3  UNL     1      10.147   5.029  -5.823  1.00  0.00    -0.296 N 
ATOM      9  H3  UNL     1      10.042   4.968  -6.835  1.00  0.00     0.171 HD
HETATM   10  C3  UNL     1      10.737   4.055  -5.119  1.00  0.00     0.141 A 
HETATM   11  S2  UNL     1      11.318   2.718  -5.855  1.00  0.00    -0.057 SA
ENDROOT
BRANCH   1  12
HETATM   12  S1  UNL     1      11.602   2.929  -2.942  1.00  0.00     0.049 SA
BRANCH  12  13
HETATM   13  O1  UNL     1      10.776   2.103  -2.270  1.00  0.00    -0.324 OA
ATOM     14  H1  UNL     1      11.195   1.368  -1.836  1.00  0.00     0.228 HD
ENDBRANCH  12  13
ENDBRANCH   1  12
TORSDOF 2
ENDMDL
MODEL 2
REMARK VINA RESULT: -4.813108960      1.785      3.647
REMARK  2 active torsions:
REMARK  status: ('A' for Active; 'I' for Inactive)
REMARK    1  A    between atoms: O1_1  and  S1_3 
REMARK    2  A    between atoms: S1_3  and  C1_4 
ROOT
HETATM    1  C1  UNL     1      10.392   5.465  -4.832  1.00  0.00     0.150 A 
HETATM    2  N1  UNL     1      10.573   5.672  -3.514  1.00  0.00    -0.286 N 
ATOM      3  H1  UNL     1      10.590   6.624  -3.146  1.00  0.00     0.188 HD
HETATM    4  N2  UNL     1      10.728   4.645  -2.699  1.00  0.00    -0.250 N 
ATOM      5  H2  UNL     1      10.863   4.814  -1.702  1.00  0.00     0.191 HD
HETATM    6  C2  UNL     1      10.712   3.371  -3.158  1.00  0.00     0.340 A 
HETATM    7  O2  UNL     1      10.863   2.398  -2.366  1.00  0.00    -0.245 OA
HETATM    8  N3  UNL     1      10.535   3.102  -4.464  1.00  0.00    -0.296 N 
ATOM      9  H3  UNL     1      10.521   2.144  -4.814  1.00  0.00     0.171 HD
HETATM   10  C3  UNL     1      10.378   4.149  -5.284  1.00  0.00     0.141 A 
HETATM   11  S2  UNL     1      10.157   3.937  -6.888  1.00  0.00    -0.057 SA
ENDROOT
BRANCH   1  12
HETATM   12  S1  UNL     1      10.201   6.681  -5.847  1.00  0.00     0.049 SA
BRANCH  12  13
HETATM   13  O1  UNL     1       8.925   7.037  -6.094  1.00  0.00    -0.324 OA
ATOM     14  H1  UNL     1       8.557   7.681  -5.500  1.00  0.00     0.228 HD
ENDBRANCH  12  13
ENDBRANCH   1  12
TORSDOF 2
ENDMDL
MODEL 3
REMARK VINA RESULT: -4.792036936      3.200      4.192
REMARK  2 active torsions:
REMARK  status: ('A' for Active; 'I' for Inactive)
REMARK    1  A    between atoms: O1_1  and  S1_3 
REMARK    2  A    between atoms: S1_3  and  C1_4 
ROOT
HETATM    1  C1  UNL     1      11.316   5.949  -4.313  1.00  0.00     0.150 A 
HETATM    2  N1  UNL     1      11.257   5.288  -3.142  1.00  0.00    -0.286 N 
ATOM      3  H1  UNL     1      10.364   4.926  -2.805  1.00  0.00     0.188 HD
HETATM    4  N2  UNL     1      12.354   5.108  -2.428  1.00  0.00    -0.250 N 
ATOM      5  H2  UNL     1      12.296   4.605  -1.542  1.00  0.00     0.191 HD
HETATM    6  C2  UNL     1      13.553   5.577  -2.846  1.00  0.00     0.340 A 
HETATM    7  O2  UNL     1      14.594   5.398  -2.152  1.00  0.00    -0.245 OA
HETATM    8  N3  UNL     1      13.674   6.245  -4.008  1.00  0.00    -0.296 N 
ATOM      9  H3  UNL     1      14.576   6.599  -4.327  1.00  0.00     0.171 HD
HETATM   10  C3  UNL     1      12.558   6.422  -4.726  1.00  0.00     0.141 A 
HETATM   11  S2  UNL     1      12.591   7.218  -6.151  1.00  0.00    -0.057 SA
ENDROOT
BRANCH   1  12
HETATM   12  S1  UNL     1      10.014   6.184  -5.202  1.00  0.00     0.049 SA
BRANCH  12  13
HETATM   13  O1  UNL     1       8.942   6.672  -4.546  1.00  0.00    -0.324 OA
ATOM     14  H1  UNL     1       8.098   6.477  -4.937  1.00  0.00     0.228 HD
ENDBRANCH  12  13
ENDBRANCH   1  12
TORSDOF 2
ENDMDL
MODEL 4
REMARK VINA RESULT: -4.778209962      2.609      2.763
REMARK  2 active torsions:
REMARK  status: ('A' for Active; 'I' for Inactive)
REMARK    1  A    between atoms: O1_1  and  S1_3 
REMARK    2  A    between atoms: S1_3  and  C1_4 
ROOT
HETATM    1  C1  UNL     1      11.475   4.004  -3.600  1.00  0.00     0.150 A 
HETATM    2  N1  UNL     1      11.277   5.299  -3.291  1.00  0.00    -0.286 N 
ATOM      3  H1  UNL     1      10.418   5.585  -2.821  1.00  0.00     0.188 HD
HETATM    4  N2  UNL     1      12.194   6.200  -3.597  1.00  0.00    -0.250 N 
ATOM      5  H2  UNL     1      12.033   7.178  -3.356  1.00  0.00     0.191 HD
HETATM    6  C2  UNL     1      13.343   5.852  -4.222  1.00  0.00     0.340 A 
HETATM    7  O2  UNL     1      14.211   6.725  -4.509  1.00  0.00    -0.245 OA
HETATM    8  N3  UNL     1      13.597   4.574  -4.556  1.00  0.00    -0.296 N 
ATOM      9  H3  UNL     1      14.462   4.308  -5.027  1.00  0.00     0.171 HD
HETATM   10  C3  UNL     1      12.663   3.667  -4.243  1.00  0.00     0.141 A 
HETATM   11  S2  UNL     1      12.868   2.088  -4.602  1.00  0.00    -0.057 SA
ENDROOT
BRANCH   1  12
HETATM   12  S1  UNL     1      10.391   2.889  -3.247  1.00  0.00     0.049 SA
BRANCH  12  13
HETATM   13  O1  UNL     1       9.309   3.324  -2.570  1.00  0.00    -0.324 OA
ATOM     14  H1  UNL     1       9.240   3.024  -1.671  1.00  0.00     0.228 HD
ENDBRANCH  12  13
ENDBRANCH   1  12
TORSDOF 2
ENDMDL
MODEL 5
REMARK VINA RESULT: -4.748175131      2.584      2.739
REMARK  2 active torsions:
REMARK  status: ('A' for Active; 'I' for Inactive)
REMARK    1  A    between atoms: O1_1  and  S1_3 
REMARK    2  A    between atoms: S1_3  and  C1_4 
ROOT
HETATM    1  C1  UNL     1      11.492   4.281  -3.507  1.00  0.00     0.150 A 
HETATM    2  N1  UNL     1      12.306   4.700  -2.520  1.00  0.00    -0.286 N 
ATOM      3  H1  UNL     1      12.262   4.259  -1.601  1.00  0.00     0.188 HD
HETATM    4  N2  UNL     1      13.160   5.683  -2.740  1.00  0.00    -0.250 N 
ATOM      5  H2  UNL     1      13.773   5.992  -1.985  1.00  0.00     0.191 HD
HETATM    6  C2  UNL     1      13.241   6.290  -3.948  1.00  0.00     0.340 A 
HETATM    7  O2  UNL     1      14.064   7.230  -4.144  1.00  0.00    -0.245 OA
HETATM    8  N3  UNL     1      12.455   5.914  -4.972  1.00  0.00    -0.296 N 
ATOM      9  H3  UNL     1      12.513   6.368  -5.884  1.00  0.00     0.171 HD
HETATM   10  C3  UNL     1      11.591   4.917  -4.741  1.00  0.00     0.141 A 
HETATM   11  S2  UNL     1      10.589   4.381  -5.913  1.00  0.00    -0.057 SA
ENDROOT
BRANCH   1  12
HETATM   12  S1  UNL     1      10.449   3.097  -3.278  1.00  0.00     0.049 SA
BRANCH  12  13
HETATM   13  O1  UNL     1       9.348   3.421  -2.571  1.00  0.00    -0.324 OA
ATOM     14  H1  UNL     1       8.617   3.752  -3.080  1.00  0.00     0.228 HD
ENDBRANCH  12  13
ENDBRANCH   1  12
TORSDOF 2
ENDMDL
