MODEL 1
REMARK VINA RESULT: -5.349038065      0.000      0.000
REMARK  1 active torsions:
REMARK  status: ('A' for Active; 'I' for Inactive)
REMARK    1  A    between atoms: N1_1  and  C1_4 
ROOT
HETATM    1  C1  UNL     1      10.383   3.859  -3.414  1.00  0.00     0.150 C 
HETATM    2  N2  UNL     1       9.854   4.794  -4.247  1.00  0.00    -0.299 N 
ATOM      3  H2  UNL     1       8.981   4.514  -4.697  1.00  0.00     0.171 HD
HETATM    4  C2  UNL     1      10.276   6.013  -4.578  1.00  0.00     0.315 C 
HETATM    5  O1  UNL     1       9.321   6.816  -4.869  1.00  0.00    -0.262 OA
HETATM    6  C3  UNL     1      11.510   6.522  -4.654  1.00  0.00     0.317 C 
HETATM    7  O2  UNL     1      11.643   7.460  -5.527  1.00  0.00    -0.262 OA
HETATM    8  N3  UNL     1      12.680   6.304  -4.040  1.00  0.00    -0.280 N 
ATOM      9  H3  UNL     1      13.421   6.960  -4.287  1.00  0.00     0.173 HD
HETATM   10  C4  UNL     1      13.045   5.344  -3.135  1.00  0.00     0.294 C 
HETATM   11  O3  UNL     1      14.112   5.461  -2.511  1.00  0.00    -0.259 OA
HETATM   12  S1  UNL     1      12.022   3.979  -2.865  1.00  0.00     0.007 SA
ENDROOT
BRANCH   1  13
HETATM   13  N1  UNL     1       9.659   2.867  -3.025  1.00  0.00    -0.379 N 
ATOM     14  H12 UNL     1       8.657   2.877  -3.214  1.00  0.00     0.158 HD
ATOM     15  H11 UNL     1      10.094   2.086  -2.535  1.00  0.00     0.158 HD
ENDBRANCH   1  13
TORSDOF 1
ENDMDL
MODEL 2
REMARK VINA RESULT: -5.025936792      2.803      3.566
REMARK  1 active torsions:
REMARK  status: ('A' for Active; 'I' for Inactive)
REMARK    1  A    between atoms: N1_1  and  C1_4 
ROOT
HETATM    1  C1  UNL     1      10.552   5.421  -3.588  1.00  0.00     0.150 C 
HETATM    2  N2  UNL     1      10.411   4.171  -3.071  1.00  0.00    -0.299 N 
ATOM      3  H2  UNL     1       9.695   4.090  -2.350  1.00  0.00     0.171 HD
HETATM    4  C2  UNL     1      11.048   3.033  -3.345  1.00  0.00     0.315 C 
HETATM    5  O1  UNL     1      10.324   1.993  -3.157  1.00  0.00    -0.262 OA
HETATM    6  C3  UNL     1      12.293   2.807  -3.775  1.00  0.00     0.317 C 
HETATM    7  O2  UNL     1      12.792   1.685  -3.387  1.00  0.00    -0.262 OA
HETATM    8  N3  UNL     1      13.185   3.465  -4.527  1.00  0.00    -0.280 N 
ATOM      9  H3  UNL     1      14.034   2.941  -4.740  1.00  0.00     0.173 HD
HETATM   10  C4  UNL     1      13.145   4.726  -5.057  1.00  0.00     0.294 C 
HETATM   11  O3  UNL     1      13.973   5.058  -5.921  1.00  0.00    -0.259 OA
HETATM   12  S1  UNL     1      11.944   5.848  -4.526  1.00  0.00     0.007 SA
ENDROOT
BRANCH   1  13
HETATM   13  N1  UNL     1       9.637   6.304  -3.378  1.00  0.00    -0.379 N 
ATOM     14  H12 UNL     1       9.336   6.902  -4.147  1.00  0.00     0.158 HD
ATOM     15  H11 UNL     1       9.225   6.394  -2.449  1.00  0.00     0.158 HD
ENDBRANCH   1  13
TORSDOF 1
ENDMDL
MODEL 3
REMARK VINA RESULT: -4.870037564      1.576      3.159
REMARK  1 active torsions:
REMARK  status: ('A' for Active; 'I' for Inactive)
REMARK    1  A    between atoms: N1_1  and  C1_4 
ROOT
HETATM    1  C1  UNL     1      12.946   5.755  -3.071  1.00  0.00     0.150 C 
HETATM    2  N2  UNL     1      12.460   6.706  -3.913  1.00  0.00    -0.299 N 
ATOM      3  H2  UNL     1      12.999   7.572  -3.927  1.00  0.00     0.171 HD
HETATM    4  C2  UNL     1      11.402   6.702  -4.721  1.00  0.00     0.315 C 
HETATM    5  O1  UNL     1      11.556   7.441  -5.757  1.00  0.00    -0.262 OA
HETATM    6  C3  UNL     1      10.230   6.065  -4.629  1.00  0.00     0.317 C 
HETATM    7  O2  UNL     1       9.246   6.684  -5.184  1.00  0.00    -0.262 OA
HETATM    8  N3  UNL     1       9.800   4.916  -4.092  1.00  0.00    -0.280 N 
ATOM      9  H3  UNL     1       8.826   4.688  -4.295  1.00  0.00     0.173 HD
HETATM   10  C4  UNL     1      10.452   3.997  -3.315  1.00  0.00     0.294 C 
HETATM   11  O3  UNL     1       9.939   2.883  -3.117  1.00  0.00    -0.259 OA
HETATM   12  S1  UNL     1      11.982   4.388  -2.617  1.00  0.00     0.007 SA
ENDROOT
BRANCH   1  13
HETATM   13  N1  UNL     1      14.140   5.868  -2.602  1.00  0.00    -0.379 N 
ATOM     14  H12 UNL     1      14.330   5.577  -1.644  1.00  0.00     0.158 HD
ATOM     15  H11 UNL     1      14.881   6.246  -3.193  1.00  0.00     0.158 HD
ENDBRANCH   1  13
TORSDOF 1
ENDMDL
MODEL 4
REMARK VINA RESULT: -4.611750778      2.236      2.309
REMARK  1 active torsions:
REMARK  status: ('A' for Active; 'I' for Inactive)
REMARK    1  A    between atoms: N1_1  and  C1_4 
ROOT
HETATM    1  C1  UNL     1      10.289   2.209  -3.941  1.00  0.00     0.150 C 
HETATM    2  N2  UNL     1       9.855   3.458  -3.625  1.00  0.00    -0.299 N 
ATOM      3  H2  UNL     1       8.878   3.505  -3.333  1.00  0.00     0.171 HD
HETATM    4  C2  UNL     1      10.485   4.632  -3.629  1.00  0.00     0.315 C 
HETATM    5  O1  UNL     1      10.028   5.453  -2.758  1.00  0.00    -0.262 OA
HETATM    6  C3  UNL     1      11.496   5.081  -4.380  1.00  0.00     0.317 C 
HETATM    7  O2  UNL     1      11.485   6.354  -4.575  1.00  0.00    -0.262 OA
HETATM    8  N3  UNL     1      12.549   4.535  -5.002  1.00  0.00    -0.280 N 
ATOM      9  H3  UNL     1      13.192   5.206  -5.421  1.00  0.00     0.173 HD
HETATM   10  C4  UNL     1      12.903   3.223  -5.167  1.00  0.00     0.294 C 
HETATM   11  O3  UNL     1      14.042   2.940  -5.573  1.00  0.00    -0.259 OA
HETATM   12  S1  UNL     1      11.769   1.971  -4.810  1.00  0.00     0.007 SA
ENDROOT
BRANCH   1  13
HETATM   13  N1  UNL     1       9.592   1.184  -3.590  1.00  0.00    -0.379 N 
ATOM     14  H12 UNL     1       8.582   1.198  -3.726  1.00  0.00     0.158 HD
ATOM     15  H11 UNL     1      10.056   0.372  -3.183  1.00  0.00     0.158 HD
ENDBRANCH   1  13
TORSDOF 1
ENDMDL
MODEL 5
REMARK VINA RESULT: -4.576410883      2.107      2.112
REMARK  1 active torsions:
REMARK  status: ('A' for Active; 'I' for Inactive)
REMARK    1  A    between atoms: N1_1  and  C1_4 
ROOT
HETATM    1  C1  UNL     1      10.381   2.225  -4.104  1.00  0.00     0.150 C 
HETATM    2  N2  UNL     1      10.085   2.729  -5.332  1.00  0.00    -0.299 N 
ATOM      3  H2  UNL     1       9.426   2.166  -5.871  1.00  0.00     0.171 HD
HETATM    4  C2  UNL     1      10.505   3.830  -5.952  1.00  0.00     0.315 C 
HETATM    5  O1  UNL     1       9.641   4.311  -6.767  1.00  0.00    -0.262 OA
HETATM    6  C3  UNL     1      11.659   4.500  -5.862  1.00  0.00     0.317 C 
HETATM    7  O2  UNL     1      12.000   5.113  -6.943  1.00  0.00    -0.262 OA
HETATM    8  N3  UNL     1      12.580   4.706  -4.912  1.00  0.00    -0.280 N 
ATOM      9  H3  UNL     1      13.313   5.369  -5.165  1.00  0.00     0.173 HD
HETATM   10  C4  UNL     1      12.699   4.173  -3.658  1.00  0.00     0.294 C 
HETATM   11  O3  UNL     1      13.497   4.675  -2.849  1.00  0.00    -0.259 OA
HETATM   12  S1  UNL     1      11.743   2.808  -3.205  1.00  0.00     0.007 SA
ENDROOT
BRANCH   1  13
HETATM   13  N1  UNL     1       9.641   1.299  -3.599  1.00  0.00    -0.379 N 
ATOM     14  H12 UNL     1       8.679   1.200  -3.919  1.00  0.00     0.158 HD
ATOM     15  H11 UNL     1      10.025   0.678  -2.887  1.00  0.00     0.158 HD
ENDBRANCH   1  13
TORSDOF 1
ENDMDL
