MODEL 1
REMARK VINA RESULT: -6.207313038      0.000      0.000
REMARK  1 active torsions:
REMARK  status: ('A' for Active; 'I' for Inactive)
REMARK    1  A    between atoms: C1_2  and  C2_4 
ROOT
HETATM    1  C2  UNL     1     -37.985  22.403  10.793  1.00  0.00     0.132 A 
HETATM    2  N2  UNL     1     -37.415  21.442   9.989  1.00  0.00    -0.293 N 
ATOM      3  H2  UNL     1     -36.855  21.637   9.158  1.00  0.00     0.187 HD
HETATM    4  N3  UNL     1     -37.690  20.240  10.438  1.00  0.00    -0.284 N 
ATOM      5  H3  UNL     1     -37.380  19.366  10.012  1.00  0.00     0.188 HD
HETATM    6  C3  UNL     1     -38.446  20.338  11.548  1.00  0.00     0.139 A 
HETATM    7  N4  UNL     1     -38.997  19.440  12.390  1.00  0.00    -0.337 N 
ATOM      8  H4  UNL     1     -38.843  18.450  12.199  1.00  0.00     0.168 HD
HETATM    9  C4  UNL     1     -39.725  19.759  13.451  1.00  0.00     0.185 A 
HETATM   10  N5  UNL     1     -39.929  21.058  13.704  1.00  0.00    -0.319 N 
ATOM     11  H5  UNL     1     -40.485  21.335  14.512  1.00  0.00     0.169 HD
HETATM   12  C5  UNL     1     -39.395  22.016  12.883  1.00  0.00     0.262 A 
HETATM   13  O2  UNL     1     -39.595  23.223  13.133  1.00  0.00    -0.267 OA
HETATM   14  C6  UNL     1     -38.637  21.698  11.778  1.00  0.00     0.110 A 
ENDROOT
BRANCH   1  15
HETATM   15  C1  UNL     1     -37.886  23.827  10.595  1.00  0.00     0.283 C 
HETATM   16  N1  UNL     1     -38.732  24.361   9.558  1.00  0.00    -0.056 NA
HETATM   17  O1  UNL     1     -37.145  24.577  11.242  1.00  0.00    -0.269 OA
ENDBRANCH   1  15
TORSDOF 1
ENDMDL
MODEL 2
REMARK VINA RESULT: -6.192088328      2.630      3.067
REMARK  1 active torsions:
REMARK  status: ('A' for Active; 'I' for Inactive)
REMARK    1  A    between atoms: C1_2  and  C2_4 
ROOT
HETATM    1  C2  UNL     1     -39.599  20.486  11.691  1.00  0.00     0.132 A 
HETATM    2  N2  UNL     1     -38.349  19.946  11.491  1.00  0.00    -0.293 N 
ATOM      3  H2  UNL     1     -38.002  19.602  10.596  1.00  0.00     0.187 HD
HETATM    4  N3  UNL     1     -37.666  19.934  12.612  1.00  0.00    -0.284 N 
ATOM      5  H3  UNL     1     -36.714  19.581  12.719  1.00  0.00     0.188 HD
HETATM    6  C3  UNL     1     -38.415  20.458  13.600  1.00  0.00     0.139 A 
HETATM    7  N4  UNL     1     -38.212  20.680  14.915  1.00  0.00    -0.337 N 
ATOM      8  H4  UNL     1     -37.310  20.413  15.310  1.00  0.00     0.168 HD
HETATM    9  C4  UNL     1     -39.107  21.222  15.728  1.00  0.00     0.185 A 
HETATM   10  N5  UNL     1     -40.292  21.572  15.213  1.00  0.00    -0.319 N 
ATOM     11  H5  UNL     1     -41.002  21.991  15.813  1.00  0.00     0.169 HD
HETATM   12  C5  UNL     1     -40.557  21.371  13.883  1.00  0.00     0.262 A 
HETATM   13  O2  UNL     1     -41.668  21.703  13.419  1.00  0.00    -0.267 OA
HETATM   14  C6  UNL     1     -39.636  20.809  13.028  1.00  0.00     0.110 A 
ENDROOT
BRANCH   1  15
HETATM   15  C1  UNL     1     -40.611  20.654  10.679  1.00  0.00     0.283 C 
HETATM   16  N1  UNL     1     -40.383  21.740   9.759  1.00  0.00    -0.056 NA
HETATM   17  O1  UNL     1     -41.618  19.945  10.567  1.00  0.00    -0.269 OA
ENDBRANCH   1  15
TORSDOF 1
ENDMDL
MODEL 3
REMARK VINA RESULT: -5.886156241      2.297      2.457
REMARK  1 active torsions:
REMARK  status: ('A' for Active; 'I' for Inactive)
REMARK    1  A    between atoms: C1_2  and  C2_4 
ROOT
HETATM    1  C2  UNL     1     -39.914  21.746  10.597  1.00  0.00     0.132 A 
HETATM    2  N2  UNL     1     -38.804  21.680   9.786  1.00  0.00    -0.293 N 
ATOM      3  H2  UNL     1     -38.750  22.067   8.844  1.00  0.00     0.187 HD
HETATM    4  N3  UNL     1     -37.825  21.049  10.392  1.00  0.00    -0.284 N 
ATOM      5  H3  UNL     1     -36.902  20.873   9.995  1.00  0.00     0.188 HD
HETATM    6  C3  UNL     1     -38.229  20.669  11.620  1.00  0.00     0.139 A 
HETATM    7  N4  UNL     1     -37.641  20.007  12.638  1.00  0.00    -0.337 N 
ATOM      8  H4  UNL     1     -36.677  19.698  12.512  1.00  0.00     0.168 HD
HETATM    9  C4  UNL     1     -38.233  19.731  13.790  1.00  0.00     0.185 A 
HETATM   10  N5  UNL     1     -39.498  20.135  13.958  1.00  0.00    -0.319 N 
ATOM     11  H5  UNL     1     -39.982  19.938  14.834  1.00  0.00     0.169 HD
HETATM   12  C5  UNL     1     -40.148  20.812  12.959  1.00  0.00     0.262 A 
HETATM   13  O2  UNL     1     -41.329  21.182  13.132  1.00  0.00    -0.267 OA
HETATM   14  C6  UNL     1     -39.544  21.105  11.757  1.00  0.00     0.110 A 
ENDROOT
BRANCH   1  15
HETATM   15  C1  UNL     1     -41.168  22.368  10.252  1.00  0.00     0.283 C 
HETATM   16  N1  UNL     1     -41.218  23.795  10.451  1.00  0.00    -0.056 NA
HETATM   17  O1  UNL     1     -42.155  21.765   9.815  1.00  0.00    -0.269 OA
ENDBRANCH   1  15
TORSDOF 1
ENDMDL
MODEL 4
REMARK VINA RESULT: -5.851987410      2.490      2.839
REMARK  1 active torsions:
REMARK  status: ('A' for Active; 'I' for Inactive)
REMARK    1  A    between atoms: C1_2  and  C2_4 
ROOT
HETATM    1  C2  UNL     1     -39.715  22.483   9.870  1.00  0.00     0.132 A 
HETATM    2  N2  UNL     1     -38.583  23.258   9.985  1.00  0.00    -0.293 N 
ATOM      3  H2  UNL     1     -38.392  24.091   9.429  1.00  0.00     0.187 HD
HETATM    4  N3  UNL     1     -37.785  22.776  10.909  1.00  0.00    -0.284 N 
ATOM      5  H3  UNL     1     -36.885  23.176  11.178  1.00  0.00     0.188 HD
HETATM    6  C3  UNL     1     -38.336  21.673  11.448  1.00  0.00     0.139 A 
HETATM    7  N4  UNL     1     -37.955  20.807  12.410  1.00  0.00    -0.337 N 
ATOM      8  H4  UNL     1     -37.059  20.970  12.870  1.00  0.00     0.168 HD
HETATM    9  C4  UNL     1     -38.668  19.759  12.797  1.00  0.00     0.185 A 
HETATM   10  N5  UNL     1     -39.843  19.543  12.194  1.00  0.00    -0.319 N 
ATOM     11  H5  UNL     1     -40.415  18.744  12.469  1.00  0.00     0.169 HD
HETATM   12  C5  UNL     1     -40.284  20.388  11.209  1.00  0.00     0.262 A 
HETATM   13  O2  UNL     1     -41.383  20.172  10.658  1.00  0.00    -0.267 OA
HETATM   14  C6  UNL     1     -39.553  21.480  10.798  1.00  0.00     0.110 A 
ENDROOT
BRANCH   1  15
HETATM   15  C1  UNL     1     -40.803  22.719   8.954  1.00  0.00     0.283 C 
HETATM   16  N1  UNL     1     -40.565  22.290   7.599  1.00  0.00    -0.056 NA
HETATM   17  O1  UNL     1     -41.878  23.246   9.261  1.00  0.00    -0.269 OA
ENDBRANCH   1  15
TORSDOF 1
ENDMDL
MODEL 5
REMARK VINA RESULT: -5.733467994      1.899      3.704
REMARK  1 active torsions:
REMARK  status: ('A' for Active; 'I' for Inactive)
REMARK    1  A    between atoms: C1_2  and  C2_4 
ROOT
HETATM    1  C2  UNL     1     -38.668  20.970  11.708  1.00  0.00     0.132 A 
HETATM    2  N2  UNL     1     -37.882  20.830  10.588  1.00  0.00    -0.293 N 
ATOM      3  H2  UNL     1     -37.718  19.949  10.100  1.00  0.00     0.187 HD
HETATM    4  N3  UNL     1     -37.372  21.987  10.233  1.00  0.00    -0.284 N 
ATOM      5  H3  UNL     1     -36.757  22.139   9.433  1.00  0.00     0.188 HD
HETATM    6  C3  UNL     1     -37.788  22.941  11.087  1.00  0.00     0.139 A 
HETATM    7  N4  UNL     1     -37.572  24.269  11.187  1.00  0.00    -0.337 N 
ATOM      8  H4  UNL     1     -36.969  24.708  10.491  1.00  0.00     0.168 HD
HETATM    9  C4  UNL     1     -38.092  25.041  12.131  1.00  0.00     0.185 A 
HETATM   10  N5  UNL     1     -38.883  24.467  13.045  1.00  0.00    -0.319 N 
ATOM     11  H5  UNL     1     -39.298  25.035  13.784  1.00  0.00     0.169 HD
HETATM   12  C5  UNL     1     -39.139  23.122  12.995  1.00  0.00     0.262 A 
HETATM   13  O2  UNL     1     -39.879  22.603  13.856  1.00  0.00    -0.267 OA
HETATM   14  C6  UNL     1     -38.605  22.309  12.021  1.00  0.00     0.110 A 
ENDROOT
BRANCH   1  15
HETATM   15  C1  UNL     1     -39.381  19.907  12.370  1.00  0.00     0.283 C 
HETATM   16  N1  UNL     1     -40.792  19.844  12.081  1.00  0.00    -0.056 NA
HETATM   17  O1  UNL     1     -38.866  19.086  13.138  1.00  0.00    -0.269 OA
ENDBRANCH   1  15
TORSDOF 1
ENDMDL
