MODEL 1
REMARK VINA RESULT: -5.916408913      0.000      0.000
REMARK  8 active torsions:
REMARK  status: ('A' for Active; 'I' for Inactive)
REMARK    1  A    between atoms: C2_2  and  C3_3 
REMARK    2  A    between atoms: C3_3  and  C4_4 
REMARK    3  A    between atoms: C4_4  and  N1_5 
REMARK    4  A    between atoms: N1_5  and  C5_8 
REMARK    5  A    between atoms: C5_8  and  C6_9 
REMARK    6  A    between atoms: C6_9  and  N2_10 
REMARK    7  A    between atoms: N2_10  and  S1_12 
REMARK    8  A    between atoms: S1_12  and  C7_15 
ROOT
HETATM    1  C6  UNL     1      79.483  22.561   1.756  1.00  0.00     0.159 C 
ENDROOT
BRANCH   1   2
HETATM    2  C5  UNL     1      79.690  24.032   2.043  1.00  0.00     0.252 C 
BRANCH   2   3
HETATM    3  N1  UNL     1      80.018  24.290   3.414  1.00  0.00    -0.073 N 
ATOM      4  H12 UNL     1      80.066  23.418   3.940  1.00  0.00     0.277 HD
ATOM      5  H11 UNL     1      79.236  24.738   3.890  1.00  0.00     0.277 HD
BRANCH   3   6
HETATM    6  C4  UNL     1      81.230  25.059   3.597  1.00  0.00     0.236 C 
BRANCH   6   7
HETATM    7  C3  UNL     1      81.583  25.804   2.310  1.00  0.00     0.054 C 
BRANCH   7   8
HETATM    8  C2  UNL     1      82.078  27.163   2.569  1.00  0.00    -0.035 C 
HETATM    9  C1  UNL     1      83.064  27.668   1.845  1.00  0.00     0.007 C 
ENDBRANCH   7   8
ENDBRANCH   6   7
ENDBRANCH   3   6
ENDBRANCH   2   3
ENDBRANCH   1   2
BRANCH   1  10
HETATM   10  N2  UNL     1      80.730  21.922   1.442  1.00  0.00    -0.318 N 
ATOM     11  H2  UNL     1      81.463  22.362   0.887  1.00  0.00     0.172 HD
BRANCH  10  12
HETATM   12  S1  UNL     1      80.857  20.349   2.094  1.00  0.00     0.231 S 
HETATM   13  O1  UNL     1      79.541  19.810   2.574  1.00  0.00    -0.206 OA
HETATM   14  O2  UNL     1      81.731  20.457   3.337  1.00  0.00    -0.206 OA
BRANCH  12  15
HETATM   15  C7  UNL     1      81.668  19.265   0.968  1.00  0.00     0.133 A 
HETATM   16  C8  UNL     1      81.078  17.932   0.790  1.00  0.00     0.028 A 
HETATM   17  C9  UNL     1      81.182  18.936  -0.362  1.00  0.00     0.003 A 
HETATM   18  C10 UNL     1      79.857  19.326  -0.929  1.00  0.00     0.011 C 
ENDBRANCH  12  15
ENDBRANCH  10  12
ENDBRANCH   1  10
TORSDOF 8
ENDMDL
MODEL 2
REMARK VINA RESULT: -5.831405669      1.397      1.825
REMARK  8 active torsions:
REMARK  status: ('A' for Active; 'I' for Inactive)
REMARK    1  A    between atoms: C2_2  and  C3_3 
REMARK    2  A    between atoms: C3_3  and  C4_4 
REMARK    3  A    between atoms: C4_4  and  N1_5 
REMARK    4  A    between atoms: N1_5  and  C5_8 
REMARK    5  A    between atoms: C5_8  and  C6_9 
REMARK    6  A    between atoms: C6_9  and  N2_10 
REMARK    7  A    between atoms: N2_10  and  S1_12 
REMARK    8  A    between atoms: S1_12  and  C7_15 
ROOT
HETATM    1  C6  UNL     1      79.748  21.979   2.029  1.00  0.00     0.159 C 
ENDROOT
BRANCH   1   2
HETATM    2  C5  UNL     1      79.557  23.470   1.855  1.00  0.00     0.252 C 
BRANCH   2   3
HETATM    3  N1  UNL     1      79.724  24.198   3.077  1.00  0.00    -0.073 N 
ATOM      4  H12 UNL     1      79.396  23.647   3.870  1.00  0.00     0.277 HD
ATOM      5  H11 UNL     1      79.066  24.976   3.123  1.00  0.00     0.277 HD
BRANCH   3   6
HETATM    6  C4  UNL     1      81.074  24.664   3.309  1.00  0.00     0.236 C 
BRANCH   6   7
HETATM    7  C3  UNL     1      81.514  25.591   2.176  1.00  0.00     0.054 C 
BRANCH   7   8
HETATM    8  C2  UNL     1      81.945  26.907   2.665  1.00  0.00    -0.035 C 
HETATM    9  C1  UNL     1      82.804  27.635   1.970  1.00  0.00     0.007 C 
ENDBRANCH   7   8
ENDBRANCH   6   7
ENDBRANCH   3   6
ENDBRANCH   2   3
ENDBRANCH   1   2
BRANCH   1  10
HETATM   10  N2  UNL     1      79.332  21.270   0.852  1.00  0.00    -0.318 N 
ATOM     11  H2  UNL     1      78.598  21.603   0.226  1.00  0.00     0.172 HD
BRANCH  10  12
HETATM   12  S1  UNL     1      80.192  19.816   0.608  1.00  0.00     0.231 S 
HETATM   13  O1  UNL     1      80.540  19.123   1.893  1.00  0.00    -0.206 OA
HETATM   14  O2  UNL     1      81.526  20.193  -0.026  1.00  0.00    -0.206 OA
BRANCH  12  15
HETATM   15  C7  UNL     1      79.346  18.766  -0.525  1.00  0.00     0.133 A 
HETATM   16  C8  UNL     1      80.003  18.514  -1.812  1.00  0.00     0.028 A 
HETATM   17  C9  UNL     1      79.712  17.389  -0.814  1.00  0.00     0.003 A 
HETATM   18  C10 UNL     1      80.942  16.695  -0.330  1.00  0.00     0.011 C 
ENDBRANCH  12  15
ENDBRANCH  10  12
ENDBRANCH   1  10
TORSDOF 8
ENDMDL
MODEL 3
REMARK VINA RESULT: -5.742783795      1.238      1.461
REMARK  8 active torsions:
REMARK  status: ('A' for Active; 'I' for Inactive)
REMARK    1  A    between atoms: C2_2  and  C3_3 
REMARK    2  A    between atoms: C3_3  and  C4_4 
REMARK    3  A    between atoms: C4_4  and  N1_5 
REMARK    4  A    between atoms: N1_5  and  C5_8 
REMARK    5  A    between atoms: C5_8  and  C6_9 
REMARK    6  A    between atoms: C6_9  and  N2_10 
REMARK    7  A    between atoms: N2_10  and  S1_12 
REMARK    8  A    between atoms: S1_12  and  C7_15 
ROOT
HETATM    1  C6  UNL     1      80.823  22.944   2.318  1.00  0.00     0.159 C 
ENDROOT
BRANCH   1   2
HETATM    2  C5  UNL     1      79.827  24.007   1.907  1.00  0.00     0.252 C 
BRANCH   2   3
HETATM    3  N1  UNL     1      80.452  25.244   1.545  1.00  0.00    -0.073 N 
ATOM      4  H12 UNL     1      79.837  26.030   1.755  1.00  0.00     0.277 HD
ATOM      5  H11 UNL     1      80.507  25.333   0.530  1.00  0.00     0.277 HD
BRANCH   3   6
HETATM    6  C4  UNL     1      81.754  25.446   2.141  1.00  0.00     0.236 C 
BRANCH   6   7
HETATM    7  C3  UNL     1      81.905  26.896   2.602  1.00  0.00     0.054 C 
BRANCH   7   8
HETATM    8  C2  UNL     1      82.905  27.631   1.816  1.00  0.00    -0.035 C 
HETATM    9  C1  UNL     1      84.171  27.666   2.202  1.00  0.00     0.007 C 
ENDBRANCH   7   8
ENDBRANCH   6   7
ENDBRANCH   3   6
ENDBRANCH   2   3
ENDBRANCH   1   2
BRANCH   1  10
HETATM   10  N2  UNL     1      80.155  21.827   2.924  1.00  0.00    -0.318 N 
ATOM     11  H2  UNL     1      79.808  21.833   3.884  1.00  0.00     0.172 HD
BRANCH  10  12
HETATM   12  S1  UNL     1      80.002  20.489   1.875  1.00  0.00     0.231 S 
HETATM   13  O1  UNL     1      78.603  20.308   1.363  1.00  0.00    -0.206 OA
HETATM   14  O2  UNL     1      80.297  19.244   2.702  1.00  0.00    -0.206 OA
BRANCH  12  15
HETATM   15  C7  UNL     1      81.196  20.563   0.583  1.00  0.00     0.133 A 
HETATM   16  C8  UNL     1      82.314  19.615   0.659  1.00  0.00     0.028 A 
HETATM   17  C9  UNL     1      81.311  19.598  -0.498  1.00  0.00     0.003 A 
HETATM   18  C10 UNL     1      80.553  18.316  -0.607  1.00  0.00     0.011 C 
ENDBRANCH  12  15
ENDBRANCH  10  12
ENDBRANCH   1  10
TORSDOF 8
ENDMDL
MODEL 4
REMARK VINA RESULT: -5.741458280      1.070      1.297
REMARK  8 active torsions:
REMARK  status: ('A' for Active; 'I' for Inactive)
REMARK    1  A    between atoms: C2_2  and  C3_3 
REMARK    2  A    between atoms: C3_3  and  C4_4 
REMARK    3  A    between atoms: C4_4  and  N1_5 
REMARK    4  A    between atoms: N1_5  and  C5_8 
REMARK    5  A    between atoms: C5_8  and  C6_9 
REMARK    6  A    between atoms: C6_9  and  N2_10 
REMARK    7  A    between atoms: N2_10  and  S1_12 
REMARK    8  A    between atoms: S1_12  and  C7_15 
ROOT
HETATM    1  C6  UNL     1      80.111  22.338   2.466  1.00  0.00     0.159 C 
ENDROOT
BRANCH   1   2
HETATM    2  C5  UNL     1      79.851  23.796   2.155  1.00  0.00     0.252 C 
BRANCH   2   3
HETATM    3  N1  UNL     1      79.913  24.632   3.316  1.00  0.00    -0.073 N 
ATOM      4  H12 UNL     1      79.269  24.297   4.032  1.00  0.00     0.277 HD
ATOM      5  H11 UNL     1      79.498  25.544   3.123  1.00  0.00     0.277 HD
BRANCH   3   6
HETATM    6  C4  UNL     1      81.243  24.787   3.863  1.00  0.00     0.236 C 
BRANCH   6   7
HETATM    7  C3  UNL     1      82.168  25.429   2.829  1.00  0.00     0.054 C 
BRANCH   7   8
HETATM    8  C2  UNL     1      81.948  26.876   2.704  1.00  0.00    -0.035 C 
HETATM    9  C1  UNL     1      82.761  27.619   1.971  1.00  0.00     0.007 C 
ENDBRANCH   7   8
ENDBRANCH   6   7
ENDBRANCH   3   6
ENDBRANCH   2   3
ENDBRANCH   1   2
BRANCH   1  10
HETATM   10  N2  UNL     1      80.739  21.683   1.353  1.00  0.00    -0.318 N 
ATOM     11  H2  UNL     1      81.534  22.072   0.847  1.00  0.00     0.172 HD
BRANCH  10  12
HETATM   12  S1  UNL     1      80.016  20.185   0.965  1.00  0.00     0.231 S 
HETATM   13  O1  UNL     1      78.517  20.226   1.039  1.00  0.00    -0.206 OA
HETATM   14  O2  UNL     1      80.451  19.194   2.038  1.00  0.00    -0.206 OA
BRANCH  12  15
HETATM   15  C7  UNL     1      80.605  19.585  -0.582  1.00  0.00     0.133 A 
HETATM   16  C8  UNL     1      81.502  18.423  -0.543  1.00  0.00     0.028 A 
HETATM   17  C9  UNL     1      80.136  18.373  -1.236  1.00  0.00     0.003 A 
HETATM   18  C10 UNL     1      79.208  17.366  -0.642  1.00  0.00     0.011 C 
ENDBRANCH  12  15
ENDBRANCH  10  12
ENDBRANCH   1  10
TORSDOF 8
ENDMDL
MODEL 5
REMARK VINA RESULT: -5.713127427      1.260      1.602
REMARK  8 active torsions:
REMARK  status: ('A' for Active; 'I' for Inactive)
REMARK    1  A    between atoms: C2_2  and  C3_3 
REMARK    2  A    between atoms: C3_3  and  C4_4 
REMARK    3  A    between atoms: C4_4  and  N1_5 
REMARK    4  A    between atoms: N1_5  and  C5_8 
REMARK    5  A    between atoms: C5_8  and  C6_9 
REMARK    6  A    between atoms: C6_9  and  N2_10 
REMARK    7  A    between atoms: N2_10  and  S1_12 
REMARK    8  A    between atoms: S1_12  and  C7_15 
ROOT
HETATM    1  C6  UNL     1      79.465  22.679   1.481  1.00  0.00     0.159 C 
ENDROOT
BRANCH   1   2
HETATM    2  C5  UNL     1      79.466  24.041   2.141  1.00  0.00     0.252 C 
BRANCH   2   3
HETATM    3  N1  UNL     1      80.280  24.994   1.448  1.00  0.00    -0.073 N 
ATOM      4  H12 UNL     1      79.892  25.933   1.543  1.00  0.00     0.277 HD
ATOM      5  H11 UNL     1      80.194  24.872   0.439  1.00  0.00     0.277 HD
BRANCH   3   6
HETATM    6  C4  UNL     1      81.672  24.980   1.842  1.00  0.00     0.236 C 
BRANCH   6   7
HETATM    7  C3  UNL     1      81.884  25.873   3.064  1.00  0.00     0.054 C 
BRANCH   7   8
HETATM    8  C2  UNL     1      82.095  27.281   2.699  1.00  0.00    -0.035 C 
HETATM    9  C1  UNL     1      83.001  27.611   1.794  1.00  0.00     0.007 C 
ENDBRANCH   7   8
ENDBRANCH   6   7
ENDBRANCH   3   6
ENDBRANCH   2   3
ENDBRANCH   1   2
BRANCH   1  10
HETATM   10  N2  UNL     1      79.532  21.636   2.464  1.00  0.00    -0.318 N 
ATOM     11  H2  UNL     1      78.710  21.241   2.922  1.00  0.00     0.172 HD
BRANCH  10  12
HETATM   12  S1  UNL     1      81.129  21.124   2.788  1.00  0.00     0.231 S 
HETATM   13  O1  UNL     1      81.189  19.747   3.383  1.00  0.00    -0.206 OA
HETATM   14  O2  UNL     1      81.682  22.055   3.859  1.00  0.00    -0.206 OA
BRANCH  12  15
HETATM   15  C7  UNL     1      82.145  21.294   1.360  1.00  0.00     0.133 A 
HETATM   16  C8  UNL     1      83.147  20.245   1.131  1.00  0.00     0.028 A 
HETATM   17  C9  UNL     1      82.006  20.510   0.144  1.00  0.00     0.003 A 
HETATM   18  C10 UNL     1      81.099  19.338  -0.040  1.00  0.00     0.011 C 
ENDBRANCH  12  15
ENDBRANCH  10  12
ENDBRANCH   1  10
TORSDOF 8
ENDMDL
