MODEL 1
REMARK VINA RESULT: -7.376191116      0.000      0.000
REMARK  6 active torsions:
REMARK  status: ('A' for Active; 'I' for Inactive)
REMARK    1  A    between atoms: N1_1  and  N2_4 
REMARK       I    between atoms: N2_4  and  C1_6 
REMARK       I    between atoms: C1_6  and  N11_31 
REMARK    2  A    between atoms: N3_7  and  C2_9 
REMARK    3  A    between atoms: C2_9  and  C3_10 
REMARK    4  A    between atoms: C4_13  and  N5_14 
REMARK       I    between atoms: N5_14  and  C5_16 
REMARK       I    between atoms: C5_16  and  N6_17 
REMARK       I    between atoms: C5_16  and  N7_21 
REMARK    5  A    between atoms: N9_27  and  N10_28 
REMARK    6  A    between atoms: N11_31  and  S1_33 
ROOT
HETATM    1  C3  UNL     1      31.273  53.156  10.859  1.00  0.00     0.155 A 
HETATM    2  N4  UNL     1      30.269  52.753  11.661  1.00  0.00    -0.174 N 
ATOM      3  H4  UNL     1      29.813  51.843  11.609  1.00  0.00     0.185 HD
HETATM    4  C4  UNL     1      29.954  53.720  12.537  1.00  0.00     0.698 A 
HETATM    5  N8  UNL     1      30.785  54.738  12.264  1.00  0.00    -0.110 N 
ATOM      6  H8  UNL     1      30.800  55.631  12.756  1.00  0.00     0.208 HD
HETATM    7  N9  UNL     1      31.590  54.404  11.247  1.00  0.00    -0.174 N 
ENDROOT
BRANCH   1   8
HETATM    8  C2  UNL     1      31.917  52.378   9.755  1.00  0.00     0.218 C 
BRANCH   8   9
HETATM    9  N3  UNL     1      30.938  51.760   8.919  1.00  0.00    -0.217 N 
HETATM   10  C1  UNL     1      31.118  51.697   7.653  1.00  0.00     0.702 C 
HETATM   11  N2  UNL     1      32.295  52.244   7.080  1.00  0.00    -0.138 N 
HETATM   12  N11 UNL     1      30.182  51.094   6.767  1.00  0.00    -0.106 N 
ATOM     13  H2  UNL     1      32.942  51.623   6.596  1.00  0.00     0.205 HD
ATOM     14  H11 UNL     1      29.219  51.426   6.717  1.00  0.00     0.198 HD
ATOM     15  H3  UNL     1      30.092  51.367   9.333  1.00  0.00     0.178 HD
BRANCH  11  16
HETATM   16  N1  UNL     1      32.598  53.612   7.159  1.00  0.00    -0.331 N 
ATOM     17  H12 UNL     1      32.554  54.058   8.075  1.00  0.00     0.177 HD
ATOM     18  H11 UNL     1      32.855  54.159   6.338  1.00  0.00     0.177 HD
ENDBRANCH  11  16
BRANCH  12  19
HETATM   19  S1  UNL     1      30.715  49.801   5.790  1.00  0.00     0.312 S 
HETATM   20  O1  UNL     1      31.613  50.358   4.761  1.00  0.00    -0.192 OA
HETATM   21  O2  UNL     1      29.615  49.111   5.054  1.00  0.00    -0.192 OA
HETATM   22  S2  UNL     1      31.347  48.338   7.060  1.00  0.00     0.076 SA
ENDBRANCH  12  19
ENDBRANCH   8   9
ENDBRANCH   1   8
BRANCH   7  23
HETATM   23  N10 UNL     1      32.585  55.195  10.677  1.00  0.00    -0.322 N 
ATOM     24 2H10 UNL     1      32.767  55.324   9.681  1.00  0.00     0.179 HD
ATOM     25 1H10 UNL     1      33.265  55.751  11.195  1.00  0.00     0.179 HD
ENDBRANCH   7  23
BRANCH   4  26
HETATM   26  N5  UNL     1      29.032  53.613  13.422  1.00  0.00    -0.172 N 
HETATM   27  C5  UNL     1      28.403  52.371  13.786  1.00  0.00     0.494 C 
HETATM   28  N6  UNL     1      27.248  52.724  14.627  1.00  0.00    -0.032 N 
HETATM   29  N7  UNL     1      29.262  51.544  14.611  1.00  0.00    -0.032 N 
ATOM     30  H63 UNL     1      27.494  53.305  15.430  1.00  0.00     0.278 HD
ATOM     31  H62 UNL     1      26.612  53.387  14.183  1.00  0.00     0.278 HD
ATOM     32  H61 UNL     1      26.802  51.845  14.885  1.00  0.00     0.278 HD
ATOM     33  H73 UNL     1      30.163  51.383  14.161  1.00  0.00     0.278 HD
ATOM     34  H72 UNL     1      29.581  52.051  15.436  1.00  0.00     0.278 HD
ATOM     35  H71 UNL     1      28.816  50.664  14.869  1.00  0.00     0.278 HD
ATOM     36  H5  UNL     1      28.727  54.462  13.899  1.00  0.00     0.181 HD
ENDBRANCH   4  26
TORSDOF 6
ENDMDL
MODEL 2
REMARK VINA RESULT: -7.089427070      4.508      7.584
REMARK  6 active torsions:
REMARK  status: ('A' for Active; 'I' for Inactive)
REMARK    1  A    between atoms: N1_1  and  N2_4 
REMARK       I    between atoms: N2_4  and  C1_6 
REMARK       I    between atoms: C1_6  and  N11_31 
REMARK    2  A    between atoms: N3_7  and  C2_9 
REMARK    3  A    between atoms: C2_9  and  C3_10 
REMARK    4  A    between atoms: C4_13  and  N5_14 
REMARK       I    between atoms: N5_14  and  C5_16 
REMARK       I    between atoms: C5_16  and  N6_17 
REMARK       I    between atoms: C5_16  and  N7_21 
REMARK    5  A    between atoms: N9_27  and  N10_28 
REMARK    6  A    between atoms: N11_31  and  S1_33 
ROOT
HETATM    1  C3  UNL     1      30.962  50.356   6.897  1.00  0.00     0.155 A 
HETATM    2  N4  UNL     1      30.384  50.448   5.685  1.00  0.00    -0.174 N 
ATOM      3  H4  UNL     1      30.079  51.318   5.249  1.00  0.00     0.185 HD
HETATM    4  C4  UNL     1      30.265  49.231   5.131  1.00  0.00     0.698 A 
HETATM    5  N8  UNL     1      30.783  48.376   6.026  1.00  0.00    -0.110 N 
ATOM      6  H8  UNL     1      30.841  47.364   5.906  1.00  0.00     0.208 HD
HETATM    7  N9  UNL     1      31.209  49.050   7.101  1.00  0.00    -0.174 N 
ENDROOT
BRANCH   1   8
HETATM    8  C2  UNL     1      31.274  51.478   7.838  1.00  0.00     0.218 C 
BRANCH   8   9
HETATM    9  N3  UNL     1      30.447  51.422   9.000  1.00  0.00    -0.217 N 
HETATM   10  C1  UNL     1      30.639  52.239   9.968  1.00  0.00     0.702 C 
HETATM   11  N2  UNL     1      31.677  53.201   9.882  1.00  0.00    -0.138 N 
HETATM   12  N11 UNL     1      29.850  52.236  11.152  1.00  0.00    -0.106 N 
ATOM     13  H2  UNL     1      31.433  54.191   9.890  1.00  0.00     0.205 HD
ATOM     14  H11 UNL     1      29.782  51.401  11.734  1.00  0.00     0.198 HD
ATOM     15  H3  UNL     1      29.700  50.729   9.060  1.00  0.00     0.178 HD
BRANCH  11  16
HETATM   16  N1  UNL     1      33.028  52.836   9.787  1.00  0.00    -0.331 N 
ATOM     17  H12 UNL     1      33.249  51.844   9.699  1.00  0.00     0.177 HD
ATOM     18  H11 UNL     1      33.780  53.525   9.804  1.00  0.00     0.177 HD
ENDBRANCH  11  16
BRANCH  12  19
HETATM   19  S1  UNL     1      29.020  53.666  11.571  1.00  0.00     0.312 S 
HETATM   20  O1  UNL     1      28.213  54.073  10.405  1.00  0.00    -0.192 OA
HETATM   21  O2  UNL     1      29.921  54.817  11.875  1.00  0.00    -0.192 OA
HETATM   22  S2  UNL     1      28.155  53.325  13.384  1.00  0.00     0.076 SA
ENDBRANCH  12  19
ENDBRANCH   8   9
ENDBRANCH   1   8
BRANCH   7  23
HETATM   23  N10 UNL     1      31.805  48.513   8.241  1.00  0.00    -0.322 N 
ATOM     24 2H10 UNL     1      32.196  47.576   8.342  1.00  0.00     0.179 HD
ATOM     25 1H10 UNL     1      31.923  49.001   9.129  1.00  0.00     0.179 HD
ENDBRANCH   7  23
BRANCH   4  26
HETATM   26  N5  UNL     1      29.750  49.016   3.976  1.00  0.00    -0.172 N 
HETATM   27  C5  UNL     1      28.519  48.300   3.764  1.00  0.00     0.494 C 
HETATM   28  N6  UNL     1      28.429  48.057   2.315  1.00  0.00    -0.032 N 
HETATM   29  N7  UNL     1      27.358  49.095   4.110  1.00  0.00    -0.032 N 
ATOM     30  H63 UNL     1      28.506  48.907   1.755  1.00  0.00     0.278 HD
ATOM     31  H62 UNL     1      29.246  47.581   1.933  1.00  0.00     0.278 HD
ATOM     32  H61 UNL     1      27.557  47.550   2.164  1.00  0.00     0.278 HD
ATOM     33  H73 UNL     1      27.421  49.445   5.066  1.00  0.00     0.278 HD
ATOM     34  H72 UNL     1      27.358  49.985   3.612  1.00  0.00     0.278 HD
ATOM     35  H71 UNL     1      26.486  48.589   3.958  1.00  0.00     0.278 HD
ATOM     36  H5  UNL     1      30.243  49.373   3.158  1.00  0.00     0.181 HD
ENDBRANCH   4  26
TORSDOF 6
ENDMDL
MODEL 3
REMARK VINA RESULT: -6.764060485      4.217      7.566
REMARK  6 active torsions:
REMARK  status: ('A' for Active; 'I' for Inactive)
REMARK    1  A    between atoms: N1_1  and  N2_4 
REMARK       I    between atoms: N2_4  and  C1_6 
REMARK       I    between atoms: C1_6  and  N11_31 
REMARK    2  A    between atoms: N3_7  and  C2_9 
REMARK    3  A    between atoms: C2_9  and  C3_10 
REMARK    4  A    between atoms: C4_13  and  N5_14 
REMARK       I    between atoms: N5_14  and  C5_16 
REMARK       I    between atoms: C5_16  and  N6_17 
REMARK       I    between atoms: C5_16  and  N7_21 
REMARK    5  A    between atoms: N9_27  and  N10_28 
REMARK    6  A    between atoms: N11_31  and  S1_33 
ROOT
HETATM    1  C3  UNL     1      30.912  50.155   6.160  1.00  0.00     0.155 A 
HETATM    2  N4  UNL     1      30.869  49.156   5.259  1.00  0.00    -0.174 N 
ATOM      3  H4  UNL     1      31.649  48.538   5.038  1.00  0.00     0.185 HD
HETATM    4  C4  UNL     1      29.655  49.090   4.691  1.00  0.00     0.698 A 
HETATM    5  N8  UNL     1      28.938  50.073   5.258  1.00  0.00    -0.110 N 
ATOM      6  H8  UNL     1      27.965  50.290   5.041  1.00  0.00     0.208 HD
HETATM    7  N9  UNL     1      29.692  50.724   6.152  1.00  0.00    -0.174 N 
ENDROOT
BRANCH   1   8
HETATM    8  C2  UNL     1      32.076  50.561   7.008  1.00  0.00     0.218 C 
BRANCH   8   9
HETATM    9  N3  UNL     1      31.777  50.423   8.397  1.00  0.00    -0.217 N 
HETATM   10  C1  UNL     1      31.767  51.452   9.159  1.00  0.00     0.702 C 
HETATM   11  N2  UNL     1      32.054  52.732   8.620  1.00  0.00    -0.138 N 
HETATM   12  N11 UNL     1      31.476  51.381  10.550  1.00  0.00    -0.106 N 
ATOM     13  H2  UNL     1      31.333  53.452   8.648  1.00  0.00     0.205 HD
ATOM     14  H11 UNL     1      32.034  50.797  11.174  1.00  0.00     0.198 HD
ATOM     15  H3  UNL     1      31.571  49.501   8.783  1.00  0.00     0.178 HD
BRANCH  11  16
HETATM   16  N1  UNL     1      33.298  53.039   8.049  1.00  0.00    -0.331 N 
ATOM     17  H12 UNL     1      33.507  52.658   7.126  1.00  0.00     0.177 HD
ATOM     18  H11 UNL     1      33.984  53.624   8.525  1.00  0.00     0.177 HD
ENDBRANCH  11  16
BRANCH  12  19
HETATM   19  S1  UNL     1      30.169  52.301  11.147  1.00  0.00     0.312 S 
HETATM   20  O1  UNL     1      29.113  52.299  10.118  1.00  0.00    -0.192 OA
HETATM   21  O2  UNL     1      30.506  53.734  11.395  1.00  0.00    -0.192 OA
HETATM   22  S2  UNL     1      29.801  51.628  13.035  1.00  0.00     0.076 SA
ENDBRANCH  12  19
ENDBRANCH   8   9
ENDBRANCH   1   8
BRANCH   7  23
HETATM   23  N10 UNL     1      29.304  51.803   6.944  1.00  0.00    -0.322 N 
ATOM     24 2H10 UNL     1      28.832  52.652   6.631  1.00  0.00     0.179 HD
ATOM     25 1H10 UNL     1      29.447  51.876   7.951  1.00  0.00     0.179 HD
ENDBRANCH   7  23
BRANCH   4  26
HETATM   26  N5  UNL     1      29.327  48.233   3.795  1.00  0.00    -0.172 N 
HETATM   27  C5  UNL     1      28.068  48.236   3.097  1.00  0.00     0.494 C 
HETATM   28  N6  UNL     1      27.999  46.961   2.366  1.00  0.00    -0.032 N 
HETATM   29  N7  UNL     1      28.004  49.279   2.092  1.00  0.00    -0.032 N 
ATOM     30  H63 UNL     1      28.800  46.800   1.755  1.00  0.00     0.278 HD
ATOM     31  H62 UNL     1      28.129  46.144   2.963  1.00  0.00     0.278 HD
ATOM     32  H61 UNL     1      27.107  46.964   1.871  1.00  0.00     0.278 HD
ATOM     33  H73 UNL     1      28.205  50.194   2.495  1.00  0.00     0.278 HD
ATOM     34  H72 UNL     1      28.786  49.214   1.441  1.00  0.00     0.278 HD
ATOM     35  H71 UNL     1      27.112  49.281   1.598  1.00  0.00     0.278 HD
ATOM     36  H5  UNL     1      30.001  47.503   3.563  1.00  0.00     0.181 HD
ENDBRANCH   4  26
TORSDOF 6
ENDMDL
MODEL 4
REMARK VINA RESULT: -6.632169704      3.944      6.606
REMARK  6 active torsions:
REMARK  status: ('A' for Active; 'I' for Inactive)
REMARK    1  A    between atoms: N1_1  and  N2_4 
REMARK       I    between atoms: N2_4  and  C1_6 
REMARK       I    between atoms: C1_6  and  N11_31 
REMARK    2  A    between atoms: N3_7  and  C2_9 
REMARK    3  A    between atoms: C2_9  and  C3_10 
REMARK    4  A    between atoms: C4_13  and  N5_14 
REMARK       I    between atoms: N5_14  and  C5_16 
REMARK       I    between atoms: C5_16  and  N6_17 
REMARK       I    between atoms: C5_16  and  N7_21 
REMARK    5  A    between atoms: N9_27  and  N10_28 
REMARK    6  A    between atoms: N11_31  and  S1_33 
ROOT
HETATM    1  C3  UNL     1      32.057  51.653   8.198  1.00  0.00     0.155 A 
HETATM    2  N4  UNL     1      31.123  50.751   7.841  1.00  0.00    -0.174 N 
ATOM      3  H4  UNL     1      30.795  49.988   8.432  1.00  0.00     0.185 HD
HETATM    4  C4  UNL     1      30.686  50.999   6.597  1.00  0.00     0.698 A 
HETATM    5  N8  UNL     1      31.369  52.078   6.183  1.00  0.00    -0.110 N 
ATOM      6  H8  UNL     1      31.269  52.522   5.270  1.00  0.00     0.208 HD
HETATM    7  N9  UNL     1      32.203  52.482   7.149  1.00  0.00    -0.174 N 
ENDROOT
BRANCH   1   8
HETATM    8  C2  UNL     1      32.791  51.727   9.500  1.00  0.00     0.218 C 
BRANCH   8   9
HETATM    9  N3  UNL     1      31.886  51.770  10.603  1.00  0.00    -0.217 N 
HETATM   10  C1  UNL     1      31.390  52.887  10.986  1.00  0.00     0.702 C 
HETATM   11  N2  UNL     1      31.744  54.084  10.312  1.00  0.00    -0.138 N 
HETATM   12  N11 UNL     1      30.482  52.998  12.077  1.00  0.00    -0.106 N 
ATOM     13  H2  UNL     1      31.016  54.615   9.835  1.00  0.00     0.205 HD
ATOM     14  H11 UNL     1      30.741  52.674  13.009  1.00  0.00     0.198 HD
ATOM     15  H3  UNL     1      31.632  50.909  11.086  1.00  0.00     0.178 HD
BRANCH  11  16
HETATM   16  N1  UNL     1      33.063  54.562  10.282  1.00  0.00    -0.331 N 
ATOM     17  H12 UNL     1      33.809  53.923  10.556  1.00  0.00     0.177 HD
ATOM     18  H11 UNL     1      33.288  55.515   9.997  1.00  0.00     0.177 HD
ENDBRANCH  11  16
BRANCH  12  19
HETATM   19  S1  UNL     1      28.949  53.685  11.782  1.00  0.00     0.312 S 
HETATM   20  O1  UNL     1      28.545  53.308  10.415  1.00  0.00    -0.192 OA
HETATM   21  O2  UNL     1      28.942  55.178  11.821  1.00  0.00    -0.192 OA
HETATM   22  S2  UNL     1      27.787  53.222  13.390  1.00  0.00     0.076 SA
ENDBRANCH  12  19
ENDBRANCH   8   9
ENDBRANCH   1   8
BRANCH   7  23
HETATM   23  N10 UNL     1      33.078  53.566   7.098  1.00  0.00    -0.322 N 
ATOM     24 2H10 UNL     1      33.518  53.957   6.264  1.00  0.00     0.179 HD
ATOM     25 1H10 UNL     1      33.389  54.109   7.902  1.00  0.00     0.179 HD
ENDBRANCH   7  23
BRANCH   4  26
HETATM   26  N5  UNL     1      29.794  50.299   5.996  1.00  0.00    -0.172 N 
HETATM   27  C5  UNL     1      30.057  49.470   4.850  1.00  0.00     0.494 C 
HETATM   28  N6  UNL     1      28.743  49.060   4.328  1.00  0.00    -0.032 N 
HETATM   29  N7  UNL     1      30.746  48.246   5.207  1.00  0.00    -0.032 N 
ATOM     30  H63 UNL     1      28.151  48.610   5.027  1.00  0.00     0.278 HD
ATOM     31  H62 UNL     1      28.124  49.846   4.127  1.00  0.00     0.278 HD
ATOM     32  H61 UNL     1      28.929  48.473   3.516  1.00  0.00     0.278 HD
ATOM     33  H73 UNL     1      31.602  48.441   5.725  1.00  0.00     0.278 HD
ATOM     34  H72 UNL     1      30.237  47.731   5.926  1.00  0.00     0.278 HD
ATOM     35  H71 UNL     1      30.931  47.658   4.395  1.00  0.00     0.278 HD
ATOM     36  H5  UNL     1      28.840  50.333   6.354  1.00  0.00     0.181 HD
ENDBRANCH   4  26
TORSDOF 6
ENDMDL
MODEL 5
REMARK VINA RESULT: -6.429003555      4.223      6.713
REMARK  6 active torsions:
REMARK  status: ('A' for Active; 'I' for Inactive)
REMARK    1  A    between atoms: N1_1  and  N2_4 
REMARK       I    between atoms: N2_4  and  C1_6 
REMARK       I    between atoms: C1_6  and  N11_31 
REMARK    2  A    between atoms: N3_7  and  C2_9 
REMARK    3  A    between atoms: C2_9  and  C3_10 
REMARK    4  A    between atoms: C4_13  and  N5_14 
REMARK       I    between atoms: N5_14  and  C5_16 
REMARK       I    between atoms: C5_16  and  N6_17 
REMARK       I    between atoms: C5_16  and  N7_21 
REMARK    5  A    between atoms: N9_27  and  N10_28 
REMARK    6  A    between atoms: N11_31  and  S1_33 
ROOT
HETATM    1  C3  UNL     1      31.915  52.500   9.320  1.00  0.00     0.155 A 
HETATM    2  N4  UNL     1      30.837  52.137   8.601  1.00  0.00    -0.174 N 
ATOM      3  H4  UNL     1      29.903  52.531   8.712  1.00  0.00     0.185 HD
HETATM    4  C4  UNL     1      31.164  51.182   7.716  1.00  0.00     0.698 A 
HETATM    5  N8  UNL     1      32.474  50.956   7.900  1.00  0.00    -0.110 N 
ATOM      6  H8  UNL     1      33.032  50.279   7.378  1.00  0.00     0.208 HD
HETATM    7  N9  UNL     1      32.939  51.752   8.871  1.00  0.00    -0.174 N 
ENDROOT
BRANCH   1   8
HETATM    8  C2  UNL     1      31.975  53.529  10.405  1.00  0.00     0.218 C 
BRANCH   8   9
HETATM    9  N3  UNL     1      31.808  52.934  11.692  1.00  0.00    -0.217 N 
HETATM   10  C1  UNL     1      30.743  53.151  12.369  1.00  0.00     0.702 C 
HETATM   11  N2  UNL     1      29.728  53.987  11.837  1.00  0.00    -0.138 N 
HETATM   12  N11 UNL     1      30.516  52.588  13.656  1.00  0.00    -0.106 N 
ATOM     13  H2  UNL     1      28.807  53.588  11.655  1.00  0.00     0.205 HD
ATOM     14  H11 UNL     1      31.164  52.759  14.425  1.00  0.00     0.198 HD
ATOM     15  H3  UNL     1      32.539  52.333  12.073  1.00  0.00     0.178 HD
BRANCH  11  16
HETATM   16  N1  UNL     1      29.948  55.343  11.555  1.00  0.00    -0.331 N 
ATOM     17  H12 UNL     1      30.000  55.992  12.340  1.00  0.00     0.177 HD
ATOM     18  H11 UNL     1      30.056  55.689  10.602  1.00  0.00     0.177 HD
ENDBRANCH  11  16
BRANCH  12  19
HETATM   19  S1  UNL     1      29.130  51.618  13.877  1.00  0.00     0.312 S 
HETATM   20  O1  UNL     1      29.560  50.363  14.519  1.00  0.00    -0.192 OA
HETATM   21  O2  UNL     1      28.462  51.225  12.601  1.00  0.00    -0.192 OA
HETATM   22  S2  UNL     1      27.718  52.811  14.735  1.00  0.00     0.076 SA
ENDBRANCH  12  19
ENDBRANCH   8   9
ENDBRANCH   1   8
BRANCH   7  23
HETATM   23  N10 UNL     1      34.247  51.810   9.348  1.00  0.00    -0.322 N 
ATOM     24 2H10 UNL     1      34.539  51.952  10.315  1.00  0.00     0.179 HD
ATOM     25 1H10 UNL     1      35.087  51.717   8.777  1.00  0.00     0.179 HD
ENDBRANCH   7  23
BRANCH   4  26
HETATM   26  N5  UNL     1      30.335  50.647   6.898  1.00  0.00    -0.172 N 
HETATM   27  C5  UNL     1      30.712  49.741   5.845  1.00  0.00     0.494 C 
HETATM   28  N6  UNL     1      29.520  49.574   4.998  1.00  0.00    -0.032 N 
HETATM   29  N7  UNL     1      31.032  48.420   6.349  1.00  0.00    -0.032 N 
ATOM     30  H63 UNL     1      28.693  49.273   5.515  1.00  0.00     0.278 HD
ATOM     31  H62 UNL     1      29.139  50.457   4.656  1.00  0.00     0.278 HD
ATOM     32  H61 UNL     1      29.786  48.932   4.252  1.00  0.00     0.278 HD
ATOM     33  H73 UNL     1      31.751  48.465   7.072  1.00  0.00     0.278 HD
ATOM     34  H72 UNL     1      30.267  48.041   6.906  1.00  0.00     0.278 HD
ATOM     35  H71 UNL     1      31.299  47.778   5.604  1.00  0.00     0.278 HD
ATOM     36  H5  UNL     1      29.347  50.878   6.999  1.00  0.00     0.181 HD
ENDBRANCH   4  26
TORSDOF 6
ENDMDL
