MODEL 1
REMARK VINA RESULT: -8.916453793      0.000      0.000
REMARK  5 active torsions:
REMARK  status: ('A' for Active; 'I' for Inactive)
REMARK    1  A    between atoms: C1_2  and  C2_3 
REMARK       I    between atoms: C1_2  and  N2_10 
REMARK    2  A    between atoms: C2_3  and  N1_4 
REMARK    3  A    between atoms: C9_13  and  C10_14 
REMARK    4  A    between atoms: C11_18  and  C12_19 
REMARK    5  A    between atoms: C14_22  and  C15_23 
ROOT
HETATM    1  C10 UNL     1      12.790  62.642  39.510  1.00  0.00     0.092 A 
HETATM    2  N3  UNL     1      11.632  62.390  38.890  1.00  0.00    -0.314 N 
ATOM      3  H3  UNL     1      11.378  61.586  38.317  1.00  0.00     0.175 HD
HETATM    4  S1  UNL     1      10.698  63.733  39.292  1.00  0.00     0.006 SA
HETATM    5  C11 UNL     1      11.848  64.554  40.240  1.00  0.00     0.102 A 
HETATM    6  N4  UNL     1      12.885  63.742  40.190  1.00  0.00    -0.338 N 
ATOM      7  H4  UNL     1      13.749  63.975  40.678  1.00  0.00     0.168 HD
ENDROOT
BRANCH   1   8
HETATM    8  C9  UNL     1      13.952  61.664  39.420  1.00  0.00     0.057 C 
HETATM    9  C8  UNL     1      15.245  62.383  39.313  1.00  0.00     0.032 C 
HETATM   10  C7  UNL     1      16.370  61.711  40.011  1.00  0.00     0.127 C 
HETATM   11  N2  UNL     1      16.247  60.284  40.096  1.00  0.00    -0.347 N 
HETATM   12  C1  UNL     1      17.384  59.465  39.952  1.00  0.00     0.258 C 
HETATM   13  C22 UNL     1      14.963  59.656  40.338  1.00  0.00     0.127 C 
HETATM   14  O1  UNL     1      18.498  60.001  39.755  1.00  0.00    -0.267 OA
HETATM   15  C21 UNL     1      13.955  60.780  40.655  1.00  0.00     0.032 C 
BRANCH  12  16
HETATM   16  C2  UNL     1      17.316  57.977  40.024  1.00  0.00     0.160 C 
BRANCH  16  17
HETATM   17  N1  UNL     1      17.438  57.422  38.735  1.00  0.00    -0.381 N 
HETATM   18  C3  UNL     1      16.255  57.037  38.053  1.00  0.00     0.148 C 
HETATM   19  C4  UNL     1      16.569  57.169  36.553  1.00  0.00     0.187 C 
HETATM   20  O2  UNL     1      17.601  56.252  36.331  1.00  0.00    -0.388 OA
HETATM   21  C5  UNL     1      18.761  56.681  36.926  1.00  0.00     0.187 C 
HETATM   22  C6  UNL     1      18.591  56.634  38.453  1.00  0.00     0.148 C 
ENDBRANCH  16  17
ENDBRANCH  12  16
ENDBRANCH   1   8
BRANCH   5  23
HETATM   23  C12 UNL     1      11.721  65.860  40.955  1.00  0.00     0.007 A 
HETATM   24  C13 UNL     1      10.697  66.714  40.660  1.00  0.00     0.064 A 
HETATM   25  S2  UNL     1      10.975  68.030  41.702  1.00  0.00    -0.105 SA
HETATM   26  C14 UNL     1      12.380  67.469  42.484  1.00  0.00    -0.013 A 
HETATM   27  C20 UNL     1      12.599  66.254  41.905  1.00  0.00     0.029 A 
BRANCH  26  28
HETATM   28  C15 UNL     1      13.205  68.136  43.565  1.00  0.00     0.026 C 
HETATM   29  C16 UNL     1      12.354  68.322  44.775  1.00  0.00     0.010 C 
HETATM   30  C17 UNL     1      12.880  67.420  45.861  1.00  0.00     0.001 C 
HETATM   31  C18 UNL     1      14.309  67.138  45.472  1.00  0.00     0.001 C 
HETATM   32  C19 UNL     1      14.376  67.261  43.968  1.00  0.00     0.010 C 
ENDBRANCH  26  28
ENDBRANCH   5  23
TORSDOF 5
ENDMDL
MODEL 2
REMARK VINA RESULT: -8.796888602      1.260      1.651
REMARK  5 active torsions:
REMARK  status: ('A' for Active; 'I' for Inactive)
REMARK    1  A    between atoms: C1_2  and  C2_3 
REMARK       I    between atoms: C1_2  and  N2_10 
REMARK    2  A    between atoms: C2_3  and  N1_4 
REMARK    3  A    between atoms: C9_13  and  C10_14 
REMARK    4  A    between atoms: C11_18  and  C12_19 
REMARK    5  A    between atoms: C14_22  and  C15_23 
ROOT
HETATM    1  C10 UNL     1      12.183  63.316  39.460  1.00  0.00     0.092 A 
HETATM    2  N3  UNL     1      10.937  63.068  39.043  1.00  0.00    -0.314 N 
ATOM      3  H3  UNL     1      10.592  62.277  38.500  1.00  0.00     0.175 HD
HETATM    4  S1  UNL     1      10.078  64.390  39.639  1.00  0.00     0.006 SA
HETATM    5  C11 UNL     1      11.370  65.198  40.397  1.00  0.00     0.102 A 
HETATM    6  N4  UNL     1      12.388  64.399  40.144  1.00  0.00    -0.338 N 
ATOM      7  H4  UNL     1      13.322  64.629  40.481  1.00  0.00     0.168 HD
ENDROOT
BRANCH   1   8
HETATM    8  C9  UNL     1      13.318  62.355  39.141  1.00  0.00     0.057 C 
HETATM    9  C8  UNL     1      14.560  62.743  39.854  1.00  0.00     0.032 C 
HETATM   10  C7  UNL     1      15.385  61.593  40.301  1.00  0.00     0.127 C 
HETATM   11  N2  UNL     1      15.259  60.419  39.484  1.00  0.00    -0.347 N 
HETATM   12  C1  UNL     1      16.388  59.621  39.212  1.00  0.00     0.258 C 
HETATM   13  C22 UNL     1      13.978  60.028  38.929  1.00  0.00     0.127 C 
HETATM   14  O1  UNL     1      17.494  59.947  39.698  1.00  0.00    -0.267 OA
HETATM   15  C21 UNL     1      12.908  60.950  39.549  1.00  0.00     0.032 C 
BRANCH  12  16
HETATM   16  C2  UNL     1      16.318  58.396  38.364  1.00  0.00     0.160 C 
BRANCH  16  17
HETATM   17  N1  UNL     1      17.037  57.346  38.967  1.00  0.00    -0.381 N 
HETATM   18  C3  UNL     1      18.068  56.721  38.219  1.00  0.00     0.148 C 
HETATM   19  C4  UNL     1      19.083  56.200  39.251  1.00  0.00     0.187 C 
HETATM   20  O2  UNL     1      18.368  55.265  40.005  1.00  0.00    -0.388 OA
HETATM   21  C5  UNL     1      17.431  55.894  40.787  1.00  0.00     0.187 C 
HETATM   22  C6  UNL     1      16.346  56.501  39.882  1.00  0.00     0.148 C 
ENDBRANCH  16  17
ENDBRANCH  12  16
ENDBRANCH   1   8
BRANCH   5  23
HETATM   23  C12 UNL     1      11.361  66.483  41.160  1.00  0.00     0.007 A 
HETATM   24  C13 UNL     1      10.519  67.495  40.799  1.00  0.00     0.064 A 
HETATM   25  S2  UNL     1      10.871  68.716  41.931  1.00  0.00    -0.105 SA
HETATM   26  C14 UNL     1      12.074  67.916  42.831  1.00  0.00    -0.013 A 
HETATM   27  C20 UNL     1      12.172  66.702  42.219  1.00  0.00     0.029 A 
BRANCH  26  28
HETATM   28  C15 UNL     1      12.860  68.408  44.030  1.00  0.00     0.026 C 
HETATM   29  C16 UNL     1      12.039  68.211  45.258  1.00  0.00     0.010 C 
HETATM   30  C17 UNL     1      12.703  67.152  46.099  1.00  0.00     0.001 C 
HETATM   31  C18 UNL     1      14.139  67.135  45.640  1.00  0.00     0.001 C 
HETATM   32  C19 UNL     1      14.135  67.607  44.206  1.00  0.00     0.010 C 
ENDBRANCH  26  28
ENDBRANCH   5  23
TORSDOF 5
ENDMDL
MODEL 3
REMARK VINA RESULT: -8.471545495      1.799      2.831
REMARK  5 active torsions:
REMARK  status: ('A' for Active; 'I' for Inactive)
REMARK    1  A    between atoms: C1_2  and  C2_3 
REMARK       I    between atoms: C1_2  and  N2_10 
REMARK    2  A    between atoms: C2_3  and  N1_4 
REMARK    3  A    between atoms: C9_13  and  C10_14 
REMARK    4  A    between atoms: C11_18  and  C12_19 
REMARK    5  A    between atoms: C14_22  and  C15_23 
ROOT
HETATM    1  C10 UNL     1      10.359  63.878  39.655  1.00  0.00     0.092 A 
HETATM    2  N3  UNL     1       9.084  64.039  39.283  1.00  0.00    -0.314 N 
ATOM      3  H3  UNL     1       8.475  63.383  38.796  1.00  0.00     0.175 HD
HETATM    4  S1  UNL     1       8.736  65.597  39.821  1.00  0.00     0.006 SA
HETATM    5  C11 UNL     1      10.253  65.965  40.500  1.00  0.00     0.102 A 
HETATM    6  N4  UNL     1      10.938  64.863  40.270  1.00  0.00    -0.338 N 
ATOM      7  H4  UNL     1      11.909  64.785  40.571  1.00  0.00     0.168 HD
ENDROOT
BRANCH   1   8
HETATM    8  C9  UNL     1      11.098  62.580  39.367  1.00  0.00     0.057 C 
HETATM    9  C8  UNL     1      11.388  62.445  37.918  1.00  0.00     0.032 C 
HETATM   10  C7  UNL     1      12.684  61.784  37.620  1.00  0.00     0.127 C 
HETATM   11  N2  UNL     1      13.116  60.849  38.619  1.00  0.00    -0.347 N 
HETATM   12  C1  UNL     1      13.752  59.650  38.240  1.00  0.00     0.258 C 
HETATM   13  C22 UNL     1      12.916  61.115  40.030  1.00  0.00     0.127 C 
HETATM   14  O1  UNL     1      13.938  59.420  37.024  1.00  0.00    -0.267 OA
HETATM   15  C21 UNL     1      12.395  62.562  40.156  1.00  0.00     0.032 C 
BRANCH  12  16
HETATM   16  C2  UNL     1      14.214  58.639  39.233  1.00  0.00     0.160 C 
BRANCH  16  17
HETATM   17  N1  UNL     1      15.618  58.677  39.348  1.00  0.00    -0.381 N 
HETATM   18  C3  UNL     1      16.329  57.449  39.317  1.00  0.00     0.148 C 
HETATM   19  C4  UNL     1      17.719  57.780  38.749  1.00  0.00     0.187 C 
HETATM   20  O2  UNL     1      18.276  58.663  39.679  1.00  0.00    -0.388 OA
HETATM   21  C5  UNL     1      17.632  59.875  39.636  1.00  0.00     0.187 C 
HETATM   22  C6  UNL     1      16.195  59.699  40.155  1.00  0.00     0.148 C 
ENDBRANCH  16  17
ENDBRANCH  12  16
ENDBRANCH   1   8
BRANCH   5  23
HETATM   23  C12 UNL     1      10.701  67.215  41.186  1.00  0.00     0.007 A 
HETATM   24  C13 UNL     1      10.283  68.436  40.741  1.00  0.00     0.064 A 
HETATM   25  S2  UNL     1      11.041  69.520  41.811  1.00  0.00    -0.105 SA
HETATM   26  C14 UNL     1      11.867  68.403  42.794  1.00  0.00    -0.013 A 
HETATM   27  C20 UNL     1      11.527  67.197  42.256  1.00  0.00     0.029 A 
BRANCH  26  28
HETATM   28  C15 UNL     1      12.768  68.657  43.986  1.00  0.00     0.026 C 
HETATM   29  C16 UNL     1      12.002  68.380  45.235  1.00  0.00     0.010 C 
HETATM   30  C17 UNL     1      12.600  67.162  45.889  1.00  0.00     0.001 C 
HETATM   31  C18 UNL     1      13.998  67.068  45.332  1.00  0.00     0.001 C 
HETATM   32  C19 UNL     1      13.961  67.722  43.972  1.00  0.00     0.010 C 
ENDBRANCH  26  28
ENDBRANCH   5  23
TORSDOF 5
ENDMDL
MODEL 4
REMARK VINA RESULT: -8.468141050      4.173     10.541
REMARK  5 active torsions:
REMARK  status: ('A' for Active; 'I' for Inactive)
REMARK    1  A    between atoms: C1_2  and  C2_3 
REMARK       I    between atoms: C1_2  and  N2_10 
REMARK    2  A    between atoms: C2_3  and  N1_4 
REMARK    3  A    between atoms: C9_13  and  C10_14 
REMARK    4  A    between atoms: C11_18  and  C12_19 
REMARK    5  A    between atoms: C14_22  and  C15_23 
ROOT
HETATM    1  C10 UNL     1      11.829  61.717  38.885  1.00  0.00     0.092 A 
HETATM    2  N3  UNL     1      10.931  61.460  37.927  1.00  0.00    -0.314 N 
ATOM      3  H3  UNL     1      10.083  61.975  37.694  1.00  0.00     0.175 HD
HETATM    4  S1  UNL     1      11.552  60.072  37.202  1.00  0.00     0.006 SA
HETATM    5  C11 UNL     1      12.940  59.892  38.170  1.00  0.00     0.102 A 
HETATM    6  N4  UNL     1      12.841  60.914  38.996  1.00  0.00    -0.338 N 
ATOM      7  H4  UNL     1      13.549  61.071  39.712  1.00  0.00     0.168 HD
ENDROOT
BRANCH   1   8
HETATM    8  C9  UNL     1      11.664  62.916  39.807  1.00  0.00     0.057 C 
HETATM    9  C8  UNL     1      12.980  63.406  40.282  1.00  0.00     0.032 C 
HETATM   10  C7  UNL     1      13.056  64.880  40.441  1.00  0.00     0.127 C 
HETATM   11  N2  UNL     1      11.803  65.508  40.751  1.00  0.00    -0.347 N 
HETATM   12  C1  UNL     1      11.756  66.586  41.657  1.00  0.00     0.258 C 
HETATM   13  C22 UNL     1      10.568  65.057  40.140  1.00  0.00     0.127 C 
HETATM   14  O1  UNL     1      12.820  66.988  42.179  1.00  0.00    -0.267 OA
HETATM   15  C21 UNL     1      10.942  64.023  39.058  1.00  0.00     0.032 C 
BRANCH  12  16
HETATM   16  C2  UNL     1      10.483  67.271  42.023  1.00  0.00     0.160 C 
BRANCH  16  17
HETATM   17  N1  UNL     1      10.607  67.886  43.284  1.00  0.00    -0.381 N 
HETATM   18  C3  UNL     1       9.941  67.296  44.389  1.00  0.00     0.148 C 
HETATM   19  C4  UNL     1      10.767  67.670  45.631  1.00  0.00     0.187 C 
HETATM   20  O2  UNL     1      10.701  69.065  45.688  1.00  0.00    -0.388 OA
HETATM   21  C5  UNL     1      11.422  69.622  44.661  1.00  0.00     0.187 C 
HETATM   22  C6  UNL     1      10.725  69.305  43.327  1.00  0.00     0.148 C 
ENDBRANCH  16  17
ENDBRANCH  12  16
ENDBRANCH   1   8
BRANCH   5  23
HETATM   23  C12 UNL     1      14.007  58.847  38.104  1.00  0.00     0.007 A 
HETATM   24  C13 UNL     1      14.212  58.139  36.954  1.00  0.00     0.064 A 
HETATM   25  S2  UNL     1      15.491  57.096  37.363  1.00  0.00    -0.105 SA
HETATM   26  C14 UNL     1      15.735  57.578  38.977  1.00  0.00    -0.013 A 
HETATM   27  C20 UNL     1      14.800  58.554  39.159  1.00  0.00     0.029 A 
BRANCH  26  28
HETATM   28  C15 UNL     1      16.740  57.067  39.990  1.00  0.00     0.026 C 
HETATM   29  C16 UNL     1      16.559  55.596  40.147  1.00  0.00     0.010 C 
HETATM   30  C17 UNL     1      17.779  54.912  39.586  1.00  0.00     0.001 C 
HETATM   31  C18 UNL     1      18.859  55.964  39.609  1.00  0.00     0.001 C 
HETATM   32  C19 UNL     1      18.158  57.298  39.507  1.00  0.00     0.010 C 
ENDBRANCH  26  28
ENDBRANCH   5  23
TORSDOF 5
ENDMDL
MODEL 5
REMARK VINA RESULT: -8.318603726      2.871      3.775
REMARK  5 active torsions:
REMARK  status: ('A' for Active; 'I' for Inactive)
REMARK    1  A    between atoms: C1_2  and  C2_3 
REMARK       I    between atoms: C1_2  and  N2_10 
REMARK    2  A    between atoms: C2_3  and  N1_4 
REMARK    3  A    between atoms: C9_13  and  C10_14 
REMARK    4  A    between atoms: C11_18  and  C12_19 
REMARK    5  A    between atoms: C14_22  and  C15_23 
ROOT
HETATM    1  C10 UNL     1      10.382  62.988  38.638  1.00  0.00     0.092 A 
HETATM    2  N3  UNL     1       9.606  62.490  37.669  1.00  0.00    -0.314 N 
ATOM      3  H3  UNL     1       9.813  61.741  37.009  1.00  0.00     0.175 HD
HETATM    4  S1  UNL     1       8.201  63.409  37.811  1.00  0.00     0.006 SA
HETATM    5  C11 UNL     1       8.683  64.391  39.115  1.00  0.00     0.102 A 
HETATM    6  N4  UNL     1       9.901  63.951  39.362  1.00  0.00    -0.338 N 
ATOM      7  H4  UNL     1      10.457  64.362  40.112  1.00  0.00     0.168 HD
ENDROOT
BRANCH   1   8
HETATM    8  C9  UNL     1      11.779  62.436  38.881  1.00  0.00     0.057 C 
HETATM    9  C8  UNL     1      12.807  63.296  38.246  1.00  0.00     0.032 C 
HETATM   10  C7  UNL     1      14.073  63.393  39.015  1.00  0.00     0.127 C 
HETATM   11  N2  UNL     1      14.370  62.240  39.816  1.00  0.00    -0.347 N 
HETATM   12  C1  UNL     1      15.698  61.785  39.936  1.00  0.00     0.258 C 
HETATM   13  C22 UNL     1      13.322  61.527  40.519  1.00  0.00     0.127 C 
HETATM   14  O1  UNL     1      16.609  62.403  39.341  1.00  0.00    -0.267 OA
HETATM   15  C21 UNL     1      12.028  62.355  40.377  1.00  0.00     0.032 C 
BRANCH  12  16
HETATM   16  C2  UNL     1      16.064  60.589  40.748  1.00  0.00     0.160 C 
BRANCH  16  17
HETATM   17  N1  UNL     1      16.465  59.533  39.905  1.00  0.00    -0.381 N 
HETATM   18  C3  UNL     1      17.845  59.397  39.606  1.00  0.00     0.148 C 
HETATM   19  C4  UNL     1      18.074  57.901  39.337  1.00  0.00     0.187 C 
HETATM   20  O2  UNL     1      17.285  57.622  38.217  1.00  0.00    -0.388 OA
HETATM   21  C5  UNL     1      15.953  57.674  38.543  1.00  0.00     0.187 C 
HETATM   22  C6  UNL     1      15.571  59.127  38.872  1.00  0.00     0.148 C 
ENDBRANCH  16  17
ENDBRANCH  12  16
ENDBRANCH   1   8
BRANCH   5  23
HETATM   23  C12 UNL     1       7.925  65.474  39.810  1.00  0.00     0.007 A 
HETATM   24  C13 UNL     1       6.758  65.950  39.282  1.00  0.00     0.064 A 
HETATM   25  S2  UNL     1       6.284  67.143  40.399  1.00  0.00    -0.105 SA
HETATM   26  C14 UNL     1       7.573  67.012  41.504  1.00  0.00    -0.013 A 
HETATM   27  C20 UNL     1       8.350  66.028  40.968  1.00  0.00     0.029 A 
BRANCH  26  28
HETATM   28  C15 UNL     1       7.821  67.785  42.784  1.00  0.00     0.026 C 
HETATM   29  C16 UNL     1       6.723  67.486  43.747  1.00  0.00     0.010 C 
HETATM   30  C17 UNL     1       7.308  66.704  44.894  1.00  0.00     0.001 C 
HETATM   31  C18 UNL     1       8.783  67.017  44.866  1.00  0.00     0.001 C 
HETATM   32  C19 UNL     1       9.120  67.353  43.433  1.00  0.00     0.010 C 
ENDBRANCH  26  28
ENDBRANCH   5  23
TORSDOF 5
ENDMDL
