MODEL 1
REMARK VINA RESULT: -6.674189754      0.000      0.000
REMARK  8 active torsions:
REMARK  status: ('A' for Active; 'I' for Inactive)
REMARK    1  A    between atoms: C2_2  and  C3_3 
REMARK    2  A    between atoms: C6_6  and  C7_7 
REMARK    3  A    between atoms: C13_15  and  O3_16 
REMARK    4  A    between atoms: O3_16  and  C14_17 
REMARK    5  A    between atoms: C20_25  and  O6_26 
REMARK    6  A    between atoms: O6_26  and  C21_27 
REMARK    7  A    between atoms: C21_27  and  C22_29 
REMARK    8  A    between atoms: C22_29  and  C23_30 
ROOT
HETATM    1  C3  UNL     1      16.916  61.056  39.499  1.00  0.00    -0.054 C 
HETATM    2  C4  UNL     1      18.099  60.110  39.289  1.00  0.00     0.048 C 
HETATM    3  C5  UNL     1      15.689  60.713  39.505  1.00  0.00     0.004 C 
HETATM    4  C6  UNL     1      14.584  61.734  39.465  1.00  0.00     0.140 C 
HETATM    5  O1  UNL     1      14.181  62.032  40.676  1.00  0.00    -0.327 OA
HETATM    6  C9  UNL     1      13.442  60.882  40.691  1.00  0.00     0.194 C 
HETATM    7  C10 UNL     1      12.395  61.000  41.699  1.00  0.00     0.085 C 
HETATM    8  O2  UNL     1      14.154  59.679  40.805  1.00  0.00    -0.334 OA
HETATM    9  C11 UNL     1      15.093  59.386  39.742  1.00  0.00     0.105 C 
HETATM   10  C12 UNL     1      15.915  58.286  40.333  1.00  0.00     0.084 C 
HETATM   11  C13 UNL     1      15.771  57.050  39.470  1.00  0.00     0.205 C 
HETATM   12  C16 UNL     1      15.028  57.461  38.293  1.00  0.00     0.163 C 
HETATM   13  O5  UNL     1      14.885  56.859  37.274  1.00  0.00    -0.295 OA
HETATM   14  C17 UNL     1      14.410  58.843  38.534  1.00  0.00     0.098 C 
HETATM   15  C18 UNL     1      14.690  59.555  37.218  1.00  0.00     0.022 C 
HETATM   16  C19 UNL     1      13.440  60.373  36.799  1.00  0.00     0.066 C 
HETATM   17  C20 UNL     1      12.693  60.489  38.193  1.00  0.00     0.068 C 
HETATM   18  C25 UNL     1      13.242  61.037  39.220  1.00  0.00     0.054 C 
ENDROOT
BRANCH  17  19
HETATM   19  O6  UNL     1      11.492  59.931  37.986  1.00  0.00    -0.283 OA
BRANCH  19  20
HETATM   20  C21 UNL     1      10.258  60.534  38.174  1.00  0.00     0.263 C 
HETATM   21  O7  UNL     1       9.328  59.797  38.559  1.00  0.00    -0.265 OA
BRANCH  20  22
HETATM   22  C22 UNL     1      10.142  61.970  37.910  1.00  0.00     0.111 C 
BRANCH  22  23
HETATM   23  C23 UNL     1       9.744  62.759  39.138  1.00  0.00     0.005 C 
HETATM   24  C24 UNL     1      10.798  63.715  39.581  1.00  0.00     0.005 C 
ENDBRANCH  22  23
ENDBRANCH  20  22
ENDBRANCH  19  20
ENDBRANCH  17  19
BRANCH   4  25
HETATM   25  C7  UNL     1      14.715  62.829  38.476  1.00  0.00     0.010 C 
HETATM   26  C8  UNL     1      14.280  64.042  38.760  1.00  0.00     0.010 C 
ENDBRANCH   4  25
BRANCH   1  27
HETATM   27  C2  UNL     1      17.383  62.449  39.497  1.00  0.00    -0.003 C 
HETATM   28  C1  UNL     1      18.397  62.844  38.777  1.00  0.00     0.012 C 
ENDBRANCH   1  27
BRANCH  11  29
HETATM   29  O3  UNL     1      17.017  56.503  39.074  1.00  0.00    -0.308 OA
BRANCH  29  30
HETATM   30  C14 UNL     1      17.586  55.415  39.736  1.00  0.00     0.255 C 
HETATM   31  C15 UNL     1      17.064  54.034  39.553  1.00  0.00     0.126 C 
HETATM   32  O4  UNL     1      18.563  55.580  40.509  1.00  0.00    -0.266 OA
ENDBRANCH  29  30
ENDBRANCH  11  29
TORSDOF 8
ENDMDL
MODEL 2
REMARK VINA RESULT: -6.493044623      2.389      5.343
REMARK  8 active torsions:
REMARK  status: ('A' for Active; 'I' for Inactive)
REMARK    1  A    between atoms: C2_2  and  C3_3 
REMARK    2  A    between atoms: C6_6  and  C7_7 
REMARK    3  A    between atoms: C13_15  and  O3_16 
REMARK    4  A    between atoms: O3_16  and  C14_17 
REMARK    5  A    between atoms: C20_25  and  O6_26 
REMARK    6  A    between atoms: O6_26  and  C21_27 
REMARK    7  A    between atoms: C21_27  and  C22_29 
REMARK    8  A    between atoms: C22_29  and  C23_30 
ROOT
HETATM    1  C3  UNL     1      14.502  58.932  38.052  1.00  0.00    -0.054 C 
HETATM    2  C4  UNL     1      14.017  58.280  36.756  1.00  0.00     0.048 C 
HETATM    3  C5  UNL     1      14.039  60.008  38.554  1.00  0.00     0.004 C 
HETATM    4  C6  UNL     1      14.736  60.713  39.686  1.00  0.00     0.140 C 
HETATM    5  O1  UNL     1      14.248  60.334  40.842  1.00  0.00    -0.327 OA
HETATM    6  C9  UNL     1      13.191  61.180  40.650  1.00  0.00     0.194 C 
HETATM    7  C10 UNL     1      12.575  61.475  41.938  1.00  0.00     0.085 C 
HETATM    8  O2  UNL     1      12.247  60.796  39.686  1.00  0.00    -0.334 OA
HETATM    9  C11 UNL     1      12.734  60.656  38.330  1.00  0.00     0.105 C 
HETATM   10  C12 UNL     1      11.626  59.906  37.664  1.00  0.00     0.084 C 
HETATM   11  C13 UNL     1      11.073  60.750  36.536  1.00  0.00     0.205 C 
HETATM   12  C16 UNL     1      11.955  61.896  36.415  1.00  0.00     0.163 C 
HETATM   13  O5  UNL     1      12.008  62.685  35.523  1.00  0.00    -0.295 OA
HETATM   14  C17 UNL     1      12.863  61.976  37.649  1.00  0.00     0.098 C 
HETATM   15  C18 UNL     1      14.218  62.293  37.032  1.00  0.00     0.022 C 
HETATM   16  C19 UNL     1      14.938  63.362  37.894  1.00  0.00     0.066 C 
HETATM   17  C20 UNL     1      14.149  63.207  39.261  1.00  0.00     0.068 C 
HETATM   18  C25 UNL     1      14.107  62.093  39.904  1.00  0.00     0.054 C 
ENDROOT
BRANCH  17  19
HETATM   19  O6  UNL     1      13.633  64.421  39.499  1.00  0.00    -0.283 OA
BRANCH  19  20
HETATM   20  C21 UNL     1      12.445  64.699  40.156  1.00  0.00     0.263 C 
HETATM   21  O7  UNL     1      11.428  64.100  39.752  1.00  0.00    -0.265 OA
BRANCH  20  22
HETATM   22  C22 UNL     1      12.474  65.663  41.259  1.00  0.00     0.111 C 
BRANCH  22  23
HETATM   23  C23 UNL     1      11.303  66.621  41.229  1.00  0.00     0.005 C 
HETATM   24  C24 UNL     1      11.523  67.833  42.066  1.00  0.00     0.005 C 
ENDBRANCH  22  23
ENDBRANCH  20  22
ENDBRANCH  19  20
ENDBRANCH  17  19
BRANCH   4  25
HETATM   25  C7  UNL     1      16.201  60.896  39.565  1.00  0.00     0.010 C 
HETATM   26  C8  UNL     1      16.932  61.163  40.631  1.00  0.00     0.010 C 
ENDBRANCH   4  25
BRANCH   1  27
HETATM   27  C2  UNL     1      15.711  58.250  38.532  1.00  0.00    -0.003 C 
HETATM   28  C1  UNL     1      15.659  57.172  39.265  1.00  0.00     0.012 C 
ENDBRANCH   1  27
BRANCH  11  29
HETATM   29  O3  UNL     1      11.027  60.059  35.299  1.00  0.00    -0.308 OA
BRANCH  29  30
HETATM   30  C14 UNL     1       9.837  59.533  34.795  1.00  0.00     0.255 C 
HETATM   31  C15 UNL     1       9.836  58.519  33.707  1.00  0.00     0.126 C 
HETATM   32  O4  UNL     1       8.729  59.907  35.256  1.00  0.00    -0.266 OA
ENDBRANCH  29  30
ENDBRANCH  11  29
TORSDOF 8
ENDMDL
MODEL 3
REMARK VINA RESULT: -6.380200351      2.344      5.728
REMARK  8 active torsions:
REMARK  status: ('A' for Active; 'I' for Inactive)
REMARK    1  A    between atoms: C2_2  and  C3_3 
REMARK    2  A    between atoms: C6_6  and  C7_7 
REMARK    3  A    between atoms: C13_15  and  O3_16 
REMARK    4  A    between atoms: O3_16  and  C14_17 
REMARK    5  A    between atoms: C20_25  and  O6_26 
REMARK    6  A    between atoms: O6_26  and  C21_27 
REMARK    7  A    between atoms: C21_27  and  C22_29 
REMARK    8  A    between atoms: C22_29  and  C23_30 
ROOT
HETATM    1  C3  UNL     1      13.878  58.713  37.014  1.00  0.00    -0.054 C 
HETATM    2  C4  UNL     1      13.024  58.715  35.745  1.00  0.00     0.048 C 
HETATM    3  C5  UNL     1      13.717  59.487  38.013  1.00  0.00     0.004 C 
HETATM    4  C6  UNL     1      14.749  59.592  39.104  1.00  0.00     0.140 C 
HETATM    5  O1  UNL     1      14.469  58.775  40.090  1.00  0.00    -0.327 OA
HETATM    6  C9  UNL     1      13.547  59.675  40.547  1.00  0.00     0.194 C 
HETATM    7  C10 UNL     1      13.281  59.414  41.957  1.00  0.00     0.085 C 
HETATM    8  O2  UNL     1      12.366  59.799  39.800  1.00  0.00    -0.334 OA
HETATM    9  C11 UNL     1      12.518  60.237  38.428  1.00  0.00     0.105 C 
HETATM   10  C12 UNL     1      11.184  59.911  37.836  1.00  0.00     0.084 C 
HETATM   11  C13 UNL     1      10.543  61.189  37.340  1.00  0.00     0.205 C 
HETATM   12  C16 UNL     1      11.552  62.225  37.466  1.00  0.00     0.163 C 
HETATM   13  O5  UNL     1      11.537  63.319  36.993  1.00  0.00    -0.295 OA
HETATM   14  C17 UNL     1      12.707  61.712  38.335  1.00  0.00     0.098 C 
HETATM   15  C18 UNL     1      13.928  62.193  37.565  1.00  0.00     0.022 C 
HETATM   16  C19 UNL     1      14.983  62.742  38.561  1.00  0.00     0.066 C 
HETATM   17  C20 UNL     1      14.496  62.051  39.903  1.00  0.00     0.068 C 
HETATM   18  C25 UNL     1      14.414  60.772  40.023  1.00  0.00     0.054 C 
ENDROOT
BRANCH  17  19
HETATM   19  O6  UNL     1      14.247  63.066  40.742  1.00  0.00    -0.283 OA
BRANCH  19  20
HETATM   20  C21 UNL     1      14.024  64.389  40.394  1.00  0.00     0.263 C 
HETATM   21  O7  UNL     1      15.032  65.082  40.151  1.00  0.00    -0.265 OA
BRANCH  20  22
HETATM   22  C22 UNL     1      12.639  64.865  40.339  1.00  0.00     0.111 C 
BRANCH  22  23
HETATM   23  C23 UNL     1      12.345  65.926  41.377  1.00  0.00     0.005 C 
HETATM   24  C24 UNL     1      11.085  66.672  41.103  1.00  0.00     0.005 C 
ENDBRANCH  22  23
ENDBRANCH  20  22
ENDBRANCH  19  20
ENDBRANCH  17  19
BRANCH   4  25
HETATM   25  C7  UNL     1      16.162  59.731  38.683  1.00  0.00     0.010 C 
HETATM   26  C8  UNL     1      17.140  59.500  39.537  1.00  0.00     0.010 C 
ENDBRANCH   4  25
BRANCH   1  27
HETATM   27  C2  UNL     1      15.036  57.827  36.835  1.00  0.00    -0.003 C 
HETATM   28  C1  UNL     1      15.232  57.147  35.739  1.00  0.00     0.012 C 
ENDBRANCH   1  27
BRANCH  11  29
HETATM   29  O3  UNL     1      10.117  61.108  35.990  1.00  0.00    -0.308 OA
BRANCH  29  30
HETATM   30  C14 UNL     1       9.371  60.028  35.518  1.00  0.00     0.255 C 
HETATM   31  C15 UNL     1       8.076  59.648  36.142  1.00  0.00     0.126 C 
HETATM   32  O4  UNL     1       9.783  59.347  34.545  1.00  0.00    -0.266 OA
ENDBRANCH  29  30
ENDBRANCH  11  29
TORSDOF 8
ENDMDL
MODEL 4
REMARK VINA RESULT: -6.369994749      2.402      7.336
REMARK  8 active torsions:
REMARK  status: ('A' for Active; 'I' for Inactive)
REMARK    1  A    between atoms: C2_2  and  C3_3 
REMARK    2  A    between atoms: C6_6  and  C7_7 
REMARK    3  A    between atoms: C13_15  and  O3_16 
REMARK    4  A    between atoms: O3_16  and  C14_17 
REMARK    5  A    between atoms: C20_25  and  O6_26 
REMARK    6  A    between atoms: O6_26  and  C21_27 
REMARK    7  A    between atoms: C21_27  and  C22_29 
REMARK    8  A    between atoms: C22_29  and  C23_30 
ROOT
HETATM    1  C3  UNL     1      11.338  61.937  37.934  1.00  0.00    -0.054 C 
HETATM    2  C4  UNL     1      10.633  63.291  37.838  1.00  0.00     0.048 C 
HETATM    3  C5  UNL     1      12.314  61.666  38.707  1.00  0.00     0.004 C 
HETATM    4  C6  UNL     1      13.108  60.396  38.560  1.00  0.00     0.140 C 
HETATM    5  O1  UNL     1      12.636  59.458  39.343  1.00  0.00    -0.327 OA
HETATM    6  C9  UNL     1      13.296  60.030  40.394  1.00  0.00     0.194 C 
HETATM    7  C10 UNL     1      13.465  59.040  41.450  1.00  0.00     0.085 C 
HETATM    8  O2  UNL     1      12.775  61.239  40.880  1.00  0.00    -0.334 OA
HETATM    9  C11 UNL     1      12.739  62.344  39.945  1.00  0.00     0.105 C 
HETATM   10  C12 UNL     1      11.824  63.312  40.625  1.00  0.00     0.084 C 
HETATM   11  C13 UNL     1      12.581  64.596  40.891  1.00  0.00     0.205 C 
HETATM   12  C16 UNL     1      13.860  64.460  40.218  1.00  0.00     0.163 C 
HETATM   13  O5  UNL     1      14.660  65.315  39.994  1.00  0.00    -0.295 OA
HETATM   14  C17 UNL     1      14.071  62.998  39.808  1.00  0.00     0.098 C 
HETATM   15  C18 UNL     1      14.619  63.135  38.395  1.00  0.00     0.022 C 
HETATM   16  C19 UNL     1      15.781  62.127  38.193  1.00  0.00     0.066 C 
HETATM   17  C20 UNL     1      15.476  61.100  39.363  1.00  0.00     0.068 C 
HETATM   18  C25 UNL     1      14.360  60.463  39.440  1.00  0.00     0.054 C 
ENDROOT
BRANCH  17  19
HETATM   19  O6  UNL     1      16.582  61.102  40.119  1.00  0.00    -0.283 OA
BRANCH  19  20
HETATM   20  C21 UNL     1      17.784  60.477  39.825  1.00  0.00     0.263 C 
HETATM   21  O7  UNL     1      18.728  61.213  39.477  1.00  0.00    -0.265 OA
BRANCH  20  22
HETATM   22  C22 UNL     1      17.851  59.018  39.945  1.00  0.00     0.111 C 
BRANCH  22  23
HETATM   23  C23 UNL     1      17.129  58.306  38.822  1.00  0.00     0.005 C 
HETATM   24  C24 UNL     1      16.149  57.296  39.312  1.00  0.00     0.005 C 
ENDBRANCH  22  23
ENDBRANCH  20  22
ENDBRANCH  19  20
ENDBRANCH  17  19
BRANCH   4  25
HETATM   25  C7  UNL     1      13.535  60.025  37.191  1.00  0.00     0.010 C 
HETATM   26  C8  UNL     1      13.739  58.760  36.875  1.00  0.00     0.010 C 
ENDBRANCH   4  25
BRANCH   1  27
HETATM   27  C2  UNL     1      10.860  61.048  36.867  1.00  0.00    -0.003 C 
HETATM   28  C1  UNL     1       9.755  60.362  36.972  1.00  0.00     0.012 C 
ENDBRANCH   1  27
BRANCH  11  29
HETATM   29  O3  UNL     1      11.911  65.746  40.402  1.00  0.00    -0.308 OA
BRANCH  29  30
HETATM   30  C14 UNL     1      11.475  66.760  41.255  1.00  0.00     0.255 C 
HETATM   31  C15 UNL     1      12.167  67.045  42.540  1.00  0.00     0.126 C 
HETATM   32  O4  UNL     1      10.478  67.463  40.950  1.00  0.00    -0.266 OA
ENDBRANCH  29  30
ENDBRANCH  11  29
TORSDOF 8
ENDMDL
MODEL 5
REMARK VINA RESULT: -6.229684614      6.077      9.890
REMARK  8 active torsions:
REMARK  status: ('A' for Active; 'I' for Inactive)
REMARK    1  A    between atoms: C2_2  and  C3_3 
REMARK    2  A    between atoms: C6_6  and  C7_7 
REMARK    3  A    between atoms: C13_15  and  O3_16 
REMARK    4  A    between atoms: O3_16  and  C14_17 
REMARK    5  A    between atoms: C20_25  and  O6_26 
REMARK    6  A    between atoms: O6_26  and  C21_27 
REMARK    7  A    between atoms: C21_27  and  C22_29 
REMARK    8  A    between atoms: C22_29  and  C23_30 
ROOT
HETATM    1  C3  UNL     1       6.991  65.532  37.390  1.00  0.00    -0.054 C 
HETATM    2  C4  UNL     1       6.973  64.235  36.580  1.00  0.00     0.048 C 
HETATM    3  C5  UNL     1       7.195  65.614  38.646  1.00  0.00     0.004 C 
HETATM    4  C6  UNL     1       6.946  66.891  39.402  1.00  0.00     0.140 C 
HETATM    5  O1  UNL     1       8.045  67.599  39.495  1.00  0.00    -0.327 OA
HETATM    6  C9  UNL     1       8.455  66.792  40.519  1.00  0.00     0.194 C 
HETATM    7  C10 UNL     1       9.465  67.491  41.305  1.00  0.00     0.085 C 
HETATM    8  O2  UNL     1       8.859  65.494  40.172  1.00  0.00    -0.334 OA
HETATM    9  C11 UNL     1       7.857  64.655  39.548  1.00  0.00     0.105 C 
HETATM   10  C12 UNL     1       8.676  63.537  38.988  1.00  0.00     0.084 C 
HETATM   11  C13 UNL     1       8.228  62.238  39.622  1.00  0.00     0.205 C 
HETATM   12  C16 UNL     1       7.045  62.553  40.402  1.00  0.00     0.163 C 
HETATM   13  O5  UNL     1       6.263  61.791  40.879  1.00  0.00    -0.295 OA
HETATM   14  C17 UNL     1       6.919  64.074  40.550  1.00  0.00     0.098 C 
HETATM   15  C18 UNL     1       5.435  64.300  40.302  1.00  0.00     0.022 C 
HETATM   16  C19 UNL     1       4.895  65.341  41.317  1.00  0.00     0.066 C 
HETATM   17  C20 UNL     1       6.249  66.041  41.756  1.00  0.00     0.068 C 
HETATM   18  C25 UNL     1       7.023  66.625  40.909  1.00  0.00     0.054 C 
ENDROOT
BRANCH  17  19
HETATM   19  O6  UNL     1       6.312  65.865  43.083  1.00  0.00    -0.283 OA
BRANCH  19  20
HETATM   20  C21 UNL     1       5.728  66.669  44.050  1.00  0.00     0.263 C 
HETATM   21  O7  UNL     1       4.915  66.118  44.819  1.00  0.00    -0.265 OA
BRANCH  20  22
HETATM   22  C22 UNL     1       6.107  68.083  44.094  1.00  0.00     0.111 C 
BRANCH  22  23
HETATM   23  C23 UNL     1       5.057  68.988  43.488  1.00  0.00     0.005 C 
HETATM   24  C24 UNL     1       4.851  70.242  44.266  1.00  0.00     0.005 C 
ENDBRANCH  22  23
ENDBRANCH  20  22
ENDBRANCH  19  20
ENDBRANCH  17  19
BRANCH   4  25
HETATM   25  C7  UNL     1       5.672  67.597  39.131  1.00  0.00     0.010 C 
HETATM   26  C8  UNL     1       5.552  68.884  39.397  1.00  0.00     0.010 C 
ENDBRANCH   4  25
BRANCH   1  27
HETATM   27  C2  UNL     1       6.544  66.651  36.552  1.00  0.00    -0.003 C 
HETATM   28  C1  UNL     1       5.688  66.496  35.579  1.00  0.00     0.012 C 
ENDBRANCH   1  27
BRANCH  11  29
HETATM   29  O3  UNL     1       7.911  61.237  38.669  1.00  0.00    -0.308 OA
BRANCH  29  30
HETATM   30  C14 UNL     1       8.743  60.138  38.452  1.00  0.00     0.255 C 
HETATM   31  C15 UNL     1      10.021  60.268  37.702  1.00  0.00     0.126 C 
HETATM   32  O4  UNL     1       8.428  59.004  38.892  1.00  0.00    -0.266 OA
ENDBRANCH  29  30
ENDBRANCH  11  29
TORSDOF 8
ENDMDL
