MODEL 1
REMARK VINA RESULT: -10.060951265      0.000      0.000
REMARK  4 active torsions:
REMARK  status: ('A' for Active; 'I' for Inactive)
REMARK    1  A    between atoms: O1_2  and  C2_3 
REMARK    2  A    between atoms: C5_6  and  C6_7 
REMARK    3  A    between atoms: C6_7  and  C7_8 
REMARK    4  A    between atoms: C7_8  and  N1_9 
ROOT
HETATM    1  C2  UNL     1      11.688  67.705  42.445  1.00  0.00     0.101 A 
HETATM    2  C3  UNL     1      10.831  67.254  41.560  1.00  0.00     0.040 A 
HETATM    3  C4  UNL     1      10.882  66.159  40.736  1.00  0.00     0.010 A 
HETATM    4  C5  UNL     1      12.089  65.392  40.871  1.00  0.00    -0.054 A 
HETATM    5  C23 UNL     1      13.003  65.792  41.752  1.00  0.00     0.046 A 
HETATM    6  C24 UNL     1      12.893  66.942  42.588  1.00  0.00     0.102 A 
HETATM    7  O6  UNL     1      13.778  67.323  43.427  1.00  0.00    -0.353 OA
HETATM    8  C25 UNL     1      14.664  67.698  44.262  1.00  0.00     0.210 C 
ENDROOT
BRANCH   1   9
HETATM    9  O1  UNL     1      11.503  68.842  43.227  1.00  0.00    -0.353 OA
HETATM   10  C1  UNL     1      11.907  70.114  42.716  1.00  0.00     0.210 C 
ENDBRANCH   1   9
BRANCH   4  11
HETATM   11  C6  UNL     1      12.251  64.278  39.877  1.00  0.00     0.058 C 
BRANCH  11  12
HETATM   12  C7  UNL     1      13.765  64.037  39.875  1.00  0.00     0.121 C 
BRANCH  12  13
HETATM   13  N1  UNL     1      14.105  62.703  39.733  1.00  0.00    -0.412 N 
HETATM   14  C8  UNL     1      15.501  62.339  39.840  1.00  0.00     0.122 C 
HETATM   15  C9  UNL     1      15.473  60.964  40.502  1.00  0.00     0.094 C 
HETATM   16  C10 UNL     1      14.875  60.002  39.540  1.00  0.00     0.232 C 
HETATM   17  C11 UNL     1      13.535  60.446  38.994  1.00  0.00     0.094 C 
HETATM   18  O2  UNL     1      15.739  59.801  38.471  1.00  0.00    -0.194 OA
HETATM   19  O5  UNL     1      14.655  58.790  40.194  1.00  0.00    -0.194 OA
HETATM   20  C12 UNL     1      13.421  61.909  38.755  1.00  0.00     0.122 C 
HETATM   21  O3  UNL     1      16.826  59.229  38.885  1.00  0.00    -0.194 OA
HETATM   22  C13 UNL     1      16.524  57.948  39.369  1.00  0.00     0.237 C 
HETATM   23  O4  UNL     1      15.701  58.096  40.463  1.00  0.00    -0.194 OA
HETATM   24  C14 UNL     1      15.929  57.154  38.258  1.00  0.00     0.055 C 
HETATM   25  C21 UNL     1      17.810  57.315  39.854  1.00  0.00     0.055 C 
HETATM   26  C15 UNL     1      15.703  55.725  38.710  1.00  0.00     0.015 C 
HETATM   27  C19 UNL     1      16.919  57.197  37.082  1.00  0.00     0.015 C 
HETATM   28  C16 UNL     1      17.019  55.139  39.119  1.00  0.00    -0.013 C 
HETATM   29  C17 UNL     1      18.002  55.216  37.994  1.00  0.00     0.009 C 
HETATM   30  C22 UNL     1      17.547  55.894  40.301  1.00  0.00     0.015 C 
HETATM   31  C18 UNL     1      18.236  56.634  37.550  1.00  0.00    -0.013 C 
HETATM   32  C20 UNL     1      18.803  57.409  38.740  1.00  0.00     0.015 C 
ENDBRANCH  12  13
ENDBRANCH  11  12
ENDBRANCH   4  11
TORSDOF 4
ENDMDL
MODEL 2
REMARK VINA RESULT: -9.988432164      0.850      1.106
REMARK  4 active torsions:
REMARK  status: ('A' for Active; 'I' for Inactive)
REMARK    1  A    between atoms: O1_2  and  C2_3 
REMARK    2  A    between atoms: C5_6  and  C6_7 
REMARK    3  A    between atoms: C6_7  and  C7_8 
REMARK    4  A    between atoms: C7_8  and  N1_9 
ROOT
HETATM    1  C2  UNL     1      11.580  67.791  42.484  1.00  0.00     0.101 A 
HETATM    2  C3  UNL     1      10.695  67.380  41.607  1.00  0.00     0.040 A 
HETATM    3  C4  UNL     1      10.706  66.304  40.756  1.00  0.00     0.010 A 
HETATM    4  C5  UNL     1      11.899  65.509  40.846  1.00  0.00    -0.054 A 
HETATM    5  C23 UNL     1      12.839  65.868  41.717  1.00  0.00     0.046 A 
HETATM    6  C24 UNL     1      12.772  67.000  42.583  1.00  0.00     0.102 A 
HETATM    7  O6  UNL     1      13.681  67.341  43.411  1.00  0.00    -0.353 OA
HETATM    8  C25 UNL     1      14.592  67.677  44.237  1.00  0.00     0.210 C 
ENDROOT
BRANCH   1   9
HETATM    9  O1  UNL     1      11.436  68.912  43.297  1.00  0.00    -0.353 OA
HETATM   10  C1  UNL     1      11.903  70.179  42.828  1.00  0.00     0.210 C 
ENDBRANCH   1   9
BRANCH   4  11
HETATM   11  C6  UNL     1      12.017  64.417  39.822  1.00  0.00     0.058 C 
BRANCH  11  12
HETATM   12  C7  UNL     1      13.529  64.326  39.590  1.00  0.00     0.121 C 
BRANCH  12  13
HETATM   13  N1  UNL     1      14.028  63.044  39.739  1.00  0.00    -0.412 N 
HETATM   14  C8  UNL     1      15.017  62.580  38.790  1.00  0.00     0.122 C 
HETATM   15  C9  UNL     1      15.932  61.684  39.619  1.00  0.00     0.094 C 
HETATM   16  C10 UNL     1      15.157  60.481  40.021  1.00  0.00     0.232 C 
HETATM   17  C11 UNL     1      13.843  60.804  40.696  1.00  0.00     0.094 C 
HETATM   18  O2  UNL     1      14.897  59.692  38.907  1.00  0.00    -0.194 OA
HETATM   19  O5  UNL     1      15.908  59.751  40.942  1.00  0.00    -0.194 OA
HETATM   20  C12 UNL     1      13.141  61.993  40.142  1.00  0.00     0.122 C 
HETATM   21  O3  UNL     1      16.007  59.230  38.424  1.00  0.00    -0.194 OA
HETATM   22  C13 UNL     1      16.602  58.373  39.361  1.00  0.00     0.237 C 
HETATM   23  O4  UNL     1      16.923  59.121  40.471  1.00  0.00    -0.194 OA
HETATM   24  C14 UNL     1      15.664  57.247  39.630  1.00  0.00     0.055 C 
HETATM   25  C21 UNL     1      17.899  57.863  38.770  1.00  0.00     0.055 C 
HETATM   26  C15 UNL     1      16.325  56.235  40.545  1.00  0.00     0.015 C 
HETATM   27  C19 UNL     1      15.317  56.605  38.277  1.00  0.00     0.015 C 
HETATM   28  C16 UNL     1      17.566  55.727  39.879  1.00  0.00    -0.013 C 
HETATM   29  C17 UNL     1      17.243  55.139  38.541  1.00  0.00     0.009 C 
HETATM   30  C22 UNL     1      18.532  56.860  39.710  1.00  0.00     0.015 C 
HETATM   31  C18 UNL     1      16.597  56.144  37.628  1.00  0.00    -0.013 C 
HETATM   32  C20 UNL     1      17.585  57.293  37.424  1.00  0.00     0.015 C 
ENDBRANCH  12  13
ENDBRANCH  11  12
ENDBRANCH   4  11
TORSDOF 4
ENDMDL
MODEL 3
REMARK VINA RESULT: -9.944812834      0.702      1.684
REMARK  4 active torsions:
REMARK  status: ('A' for Active; 'I' for Inactive)
REMARK    1  A    between atoms: O1_2  and  C2_3 
REMARK    2  A    between atoms: C5_6  and  C6_7 
REMARK    3  A    between atoms: C6_7  and  C7_8 
REMARK    4  A    between atoms: C7_8  and  N1_9 
ROOT
HETATM    1  C2  UNL     1      11.693  67.730  42.492  1.00  0.00     0.101 A 
HETATM    2  C3  UNL     1      12.746  66.953  42.397  1.00  0.00     0.040 A 
HETATM    3  C4  UNL     1      12.986  65.858  41.608  1.00  0.00     0.010 A 
HETATM    4  C5  UNL     1      11.886  65.511  40.752  1.00  0.00    -0.054 A 
HETATM    5  C23 UNL     1      10.785  66.258  40.795  1.00  0.00     0.046 A 
HETATM    6  C24 UNL     1      10.592  67.392  41.638  1.00  0.00     0.102 A 
HETATM    7  O6  UNL     1       9.530  68.100  41.678  1.00  0.00    -0.353 OA
HETATM    8  C25 UNL     1       8.468  68.803  41.715  1.00  0.00     0.210 C 
ENDROOT
BRANCH   1   9
HETATM    9  O1  UNL     1      11.584  68.825  43.345  1.00  0.00    -0.353 OA
HETATM   10  C1  UNL     1      12.248  70.044  43.004  1.00  0.00     0.210 C 
ENDBRANCH   1   9
BRANCH   4  11
HETATM   11  C6  UNL     1      12.051  64.228  39.988  1.00  0.00     0.058 C 
BRANCH  11  12
HETATM   12  C7  UNL     1      13.569  64.014  39.998  1.00  0.00     0.121 C 
BRANCH  12  13
HETATM   13  N1  UNL     1      13.935  62.690  39.833  1.00  0.00    -0.412 N 
HETATM   14  C8  UNL     1      15.335  62.347  39.959  1.00  0.00     0.122 C 
HETATM   15  C9  UNL     1      15.318  60.957  40.589  1.00  0.00     0.094 C 
HETATM   16  C10 UNL     1      14.754  60.008  39.594  1.00  0.00     0.232 C 
HETATM   17  C11 UNL     1      13.418  60.441  39.033  1.00  0.00     0.094 C 
HETATM   18  O2  UNL     1      15.642  59.846  38.538  1.00  0.00    -0.194 OA
HETATM   19  O5  UNL     1      14.544  58.778  40.216  1.00  0.00    -0.194 OA
HETATM   20  C12 UNL     1      13.282  61.907  38.824  1.00  0.00     0.122 C 
HETATM   21  O3  UNL     1      16.731  59.283  38.960  1.00  0.00    -0.194 OA
HETATM   22  C13 UNL     1      16.442  57.987  39.409  1.00  0.00     0.237 C 
HETATM   23  O4  UNL     1      15.597  58.096  40.490  1.00  0.00    -0.194 OA
HETATM   24  C14 UNL     1      15.882  57.208  38.269  1.00  0.00     0.055 C 
HETATM   25  C21 UNL     1      17.730  57.365  39.904  1.00  0.00     0.055 C 
HETATM   26  C15 UNL     1      15.672  55.766  38.685  1.00  0.00     0.015 C 
HETATM   27  C19 UNL     1      16.893  57.295  37.114  1.00  0.00     0.015 C 
HETATM   28  C16 UNL     1      16.991  55.193  39.106  1.00  0.00    -0.013 C 
HETATM   29  C17 UNL     1      17.994  55.312  38.002  1.00  0.00     0.009 C 
HETATM   30  C22 UNL     1      17.483  55.930  40.314  1.00  0.00     0.015 C 
HETATM   31  C18 UNL     1      18.211  56.744  37.594  1.00  0.00    -0.013 C 
HETATM   32  C20 UNL     1      18.742  57.500  38.812  1.00  0.00     0.015 C 
ENDBRANCH  12  13
ENDBRANCH  11  12
ENDBRANCH   4  11
TORSDOF 4
ENDMDL
MODEL 4
REMARK VINA RESULT: -9.875775926      1.119      2.030
REMARK  4 active torsions:
REMARK  status: ('A' for Active; 'I' for Inactive)
REMARK    1  A    between atoms: O1_2  and  C2_3 
REMARK    2  A    between atoms: C5_6  and  C6_7 
REMARK    3  A    between atoms: C6_7  and  C7_8 
REMARK    4  A    between atoms: C7_8  and  N1_9 
ROOT
HETATM    1  C2  UNL     1      11.622  67.880  42.544  1.00  0.00     0.101 A 
HETATM    2  C3  UNL     1      12.637  67.051  42.475  1.00  0.00     0.040 A 
HETATM    3  C4  UNL     1      12.853  65.959  41.674  1.00  0.00     0.010 A 
HETATM    4  C5  UNL     1      11.771  65.685  40.770  1.00  0.00    -0.054 A 
HETATM    5  C23 UNL     1      10.709  66.486  40.785  1.00  0.00     0.046 A 
HETATM    6  C24 UNL     1      10.540  67.614  41.641  1.00  0.00     0.102 A 
HETATM    7  O6  UNL     1       9.515  68.375  41.654  1.00  0.00    -0.353 OA
HETATM    8  C25 UNL     1       8.489  69.131  41.663  1.00  0.00     0.210 C 
ENDROOT
BRANCH   1   9
HETATM    9  O1  UNL     1      11.536  68.965  43.413  1.00  0.00    -0.353 OA
HETATM   10  C1  UNL     1      12.244  70.167  43.102  1.00  0.00     0.210 C 
ENDBRANCH   1   9
BRANCH   4  11
HETATM   11  C6  UNL     1      11.901  64.409  39.988  1.00  0.00     0.058 C 
BRANCH  11  12
HETATM   12  C7  UNL     1      13.404  64.332  39.701  1.00  0.00     0.121 C 
BRANCH  12  13
HETATM   13  N1  UNL     1      13.921  63.055  39.830  1.00  0.00    -0.412 N 
HETATM   14  C8  UNL     1      14.918  62.621  38.875  1.00  0.00     0.122 C 
HETATM   15  C9  UNL     1      15.843  61.724  39.691  1.00  0.00     0.094 C 
HETATM   16  C10 UNL     1      15.084  60.503  40.070  1.00  0.00     0.232 C 
HETATM   17  C11 UNL     1      13.764  60.797  40.747  1.00  0.00     0.094 C 
HETATM   18  O2  UNL     1      14.838  59.730  38.943  1.00  0.00    -0.194 OA
HETATM   19  O5  UNL     1      15.843  59.768  40.981  1.00  0.00    -0.194 OA
HETATM   20  C12 UNL     1      13.047  61.985  40.212  1.00  0.00     0.122 C 
HETATM   21  O3  UNL     1      15.956  59.292  38.455  1.00  0.00    -0.194 OA
HETATM   22  C13 UNL     1      16.560  58.427  39.378  1.00  0.00     0.237 C 
HETATM   23  O4  UNL     1      16.868  59.160  40.502  1.00  0.00    -0.194 OA
HETATM   24  C14 UNL     1      15.637  57.284  39.625  1.00  0.00     0.055 C 
HETATM   25  C21 UNL     1      17.866  57.946  38.783  1.00  0.00     0.055 C 
HETATM   26  C15 UNL     1      16.309  56.266  40.525  1.00  0.00     0.015 C 
HETATM   27  C19 UNL     1      15.303  56.661  38.261  1.00  0.00     0.015 C 
HETATM   28  C16 UNL     1      17.559  55.786  39.853  1.00  0.00    -0.013 C 
HETATM   29  C17 UNL     1      17.248  55.217  38.505  1.00  0.00     0.009 C 
HETATM   30  C22 UNL     1      18.510  56.936  39.707  1.00  0.00     0.015 C 
HETATM   31  C18 UNL     1      16.590  56.229  37.608  1.00  0.00    -0.013 C 
HETATM   32  C20 UNL     1      17.563  57.395  37.426  1.00  0.00     0.015 C 
ENDBRANCH  12  13
ENDBRANCH  11  12
ENDBRANCH   4  11
TORSDOF 4
ENDMDL
MODEL 5
REMARK VINA RESULT: -9.691913428      0.952      1.612
REMARK  4 active torsions:
REMARK  status: ('A' for Active; 'I' for Inactive)
REMARK    1  A    between atoms: O1_2  and  C2_3 
REMARK    2  A    between atoms: C5_6  and  C6_7 
REMARK    3  A    between atoms: C6_7  and  C7_8 
REMARK    4  A    between atoms: C7_8  and  N1_9 
ROOT
HETATM    1  C2  UNL     1      11.627  67.709  42.484  1.00  0.00     0.101 A 
HETATM    2  C3  UNL     1      10.748  67.300  41.599  1.00  0.00     0.040 A 
HETATM    3  C4  UNL     1      10.777  66.243  40.726  1.00  0.00     0.010 A 
HETATM    4  C5  UNL     1      11.984  65.468  40.798  1.00  0.00    -0.054 A 
HETATM    5  C23 UNL     1      12.920  65.826  41.675  1.00  0.00     0.046 A 
HETATM    6  C24 UNL     1      12.833  66.938  42.564  1.00  0.00     0.102 A 
HETATM    7  O6  UNL     1      13.737  67.279  43.398  1.00  0.00    -0.353 OA
HETATM    8  C25 UNL     1      14.643  67.614  44.229  1.00  0.00     0.210 C 
ENDROOT
BRANCH   1   9
HETATM    9  O1  UNL     1      11.463  68.810  43.320  1.00  0.00    -0.353 OA
HETATM   10  C1  UNL     1      11.937  70.089  42.891  1.00  0.00     0.210 C 
ENDBRANCH   1   9
BRANCH   4  11
HETATM   11  C6  UNL     1      12.121  64.400  39.751  1.00  0.00     0.058 C 
BRANCH  11  12
HETATM   12  C7  UNL     1      12.090  63.107  40.574  1.00  0.00     0.121 C 
BRANCH  12  13
HETATM   13  N1  UNL     1      12.876  62.101  40.039  1.00  0.00    -0.412 N 
HETATM   14  C8  UNL     1      13.213  60.975  40.883  1.00  0.00     0.122 C 
HETATM   15  C9  UNL     1      13.244  59.790  39.922  1.00  0.00     0.094 C 
HETATM   16  C10 UNL     1      14.400  59.972  39.006  1.00  0.00     0.232 C 
HETATM   17  C11 UNL     1      14.422  61.319  38.317  1.00  0.00     0.094 C 
HETATM   18  O2  UNL     1      15.589  59.818  39.707  1.00  0.00    -0.194 OA
HETATM   19  O5  UNL     1      14.328  59.012  37.997  1.00  0.00    -0.194 OA
HETATM   20  C12 UNL     1      13.955  62.451  39.162  1.00  0.00     0.122 C 
HETATM   21  O3  UNL     1      15.691  58.600  40.140  1.00  0.00    -0.194 OA
HETATM   22  C13 UNL     1      15.784  57.724  39.049  1.00  0.00     0.237 C 
HETATM   23  O4  UNL     1      14.604  57.806  38.344  1.00  0.00    -0.194 OA
HETATM   24  C14 UNL     1      16.996  58.082  38.260  1.00  0.00     0.055 C 
HETATM   25  C21 UNL     1      15.889  56.314  39.589  1.00  0.00     0.055 C 
HETATM   26  C15 UNL     1      17.196  57.078  37.142  1.00  0.00     0.015 C 
HETATM   27  C19 UNL     1      18.193  58.061  39.224  1.00  0.00     0.015 C 
HETATM   28  C16 UNL     1      17.353  55.716  37.744  1.00  0.00    -0.013 C 
HETATM   29  C17 UNL     1      18.490  55.698  38.717  1.00  0.00     0.009 C 
HETATM   30  C22 UNL     1      16.084  55.341  38.447  1.00  0.00     0.015 C 
HETATM   31  C18 UNL     1      18.289  56.686  39.833  1.00  0.00    -0.013 C 
HETATM   32  C20 UNL     1      17.011  56.296  40.577  1.00  0.00     0.015 C 
ENDBRANCH  12  13
ENDBRANCH  11  12
ENDBRANCH   4  11
TORSDOF 4
ENDMDL
