MODEL 1
REMARK VINA RESULT: -4.766775962      0.000      0.000
REMARK  6 active torsions:
REMARK  status: ('A' for Active; 'I' for Inactive)
REMARK    1  A    between atoms: C2_3  and  C4_11 
REMARK    2  A    between atoms: N2_4  and  N3_6 
REMARK    3  A    between atoms: C5_15  and  N7_16 
REMARK    4  A    between atoms: C9_25  and  N10_26 
REMARK    5  A    between atoms: C11_32  and  O2_33 
REMARK    6  A    between atoms: C12_35  and  O3_36 
ROOT
HETATM    1  N1  UNL     1      18.984  51.778  15.263  1.00  0.00    -0.190 NA
HETATM    2  C1  UNL     1      19.189  51.127  14.328  1.00  0.00     0.119 C 
HETATM    3  C2  UNL     1      19.423  50.313  13.148  1.00  0.00     0.162 C 
HETATM    4  N2  UNL     1      20.559  49.763  13.057  1.00  0.00    -0.289 N 
ATOM      5  H2  UNL     1      21.181  49.965  13.841  1.00  0.00     0.187 HD
ENDROOT
BRANCH   3   6
HETATM    6  C4  UNL     1      18.403  50.114  12.082  1.00  0.00     0.389 C 
HETATM    7  N6  UNL     1      18.936  49.520  10.908  1.00  0.00    -0.018 N 
HETATM    8  C5  UNL     1      17.963  49.485   9.839  1.00  0.00     0.330 C 
ATOM      9  H62 UNL     1      19.796  49.983  10.613  1.00  0.00     0.283 HD
ATOM     10  H61 UNL     1      19.313  48.592  11.099  1.00  0.00     0.283 HD
HETATM   11  C11 UNL     1      16.725  48.858  10.348  1.00  0.00     0.223 C 
HETATM   12  C12 UNL     1      16.892  48.362  11.805  1.00  0.00     0.292 C 
HETATM   13  O4  UNL     1      17.402  49.331  12.605  1.00  0.00    -0.321 OA
BRANCH   8  14
HETATM   14  N7  UNL     1      17.861  50.809   9.280  1.00  0.00    -0.295 N 
HETATM   15  C6  UNL     1      17.370  51.916   9.926  1.00  0.00     0.187 A 
HETATM   16  N8  UNL     1      17.415  52.990   9.137  1.00  0.00    -0.345 N 
HETATM   17  C7  UNL     1      17.941  52.556   7.978  1.00  0.00     0.147 A 
ATOM     18  H8  UNL     1      17.114  53.937   9.364  1.00  0.00     0.167 HD
HETATM   19  C8  UNL     1      18.214  53.264   6.816  1.00  0.00     0.290 A 
HETATM   20  C10 UNL     1      18.229  51.196   8.043  1.00  0.00     0.158 A 
HETATM   21  O1  UNL     1      17.958  54.500   6.741  1.00  0.00    -0.265 OA
HETATM   22  N9  UNL     1      18.752  52.600   5.786  1.00  0.00    -0.154 N 
HETATM   23  C9  UNL     1      19.025  51.286   5.861  1.00  0.00     0.680 A 
ATOM     24  H9  UNL     1      18.959  53.102   4.923  1.00  0.00     0.187 HD
HETATM   25  N11 UNL     1      18.770  50.579   6.978  1.00  0.00    -0.174 N 
ATOM     26  H11 UNL     1      18.985  49.583   7.016  1.00  0.00     0.186 HD
BRANCH  23  27
HETATM   27  N10 UNL     1      19.546  50.656   4.859  1.00  0.00    -0.234 N 
ATOM     28 2H10 UNL     1      20.503  50.317   4.960  1.00  0.00     0.174 HD
ATOM     29 1H10 UNL     1      19.016  50.506   4.001  1.00  0.00     0.174 HD
ENDBRANCH  23  27
ENDBRANCH   8  14
BRANCH  11  30
HETATM   30  O2  UNL     1      16.427  47.630   9.692  1.00  0.00    -0.387 OA
ATOM     31  H2  UNL     1      15.503  47.541   9.490  1.00  0.00     0.210 HD
ENDBRANCH  11  30
BRANCH  12  32
HETATM   32  O3  UNL     1      17.589  47.160  11.808  1.00  0.00    -0.368 OA
ATOM     33  H3  UNL     1      17.913  46.983  12.684  1.00  0.00     0.212 HD
ENDBRANCH  12  32
ENDBRANCH   3   6
BRANCH   4  34
HETATM   34  N3  UNL     1      21.106  48.955  12.113  1.00  0.00    -0.275 N 
HETATM   35  C3  UNL     1      20.929  47.683  12.141  1.00  0.00     0.215 C 
HETATM   36  N4  UNL     1      20.153  47.118  13.171  1.00  0.00    -0.065 NA
HETATM   37  N5  UNL     1      21.514  46.879  11.142  1.00  0.00    -0.065 NA
ATOM     38  H3  UNL     1      21.668  49.365  11.367  1.00  0.00     0.189 HD
ENDBRANCH   4  34
TORSDOF 6
ENDMDL
MODEL 2
REMARK VINA RESULT: -4.637578697      2.081      6.908
REMARK  6 active torsions:
REMARK  status: ('A' for Active; 'I' for Inactive)
REMARK    1  A    between atoms: C2_3  and  C4_11 
REMARK    2  A    between atoms: N2_4  and  N3_6 
REMARK    3  A    between atoms: C5_15  and  N7_16 
REMARK    4  A    between atoms: C9_25  and  N10_26 
REMARK    5  A    between atoms: C11_32  and  O2_33 
REMARK    6  A    between atoms: C12_35  and  O3_36 
ROOT
HETATM    1  N1  UNL     1      21.679  48.657   6.582  1.00  0.00    -0.190 NA
HETATM    2  C1  UNL     1      20.798  49.372   6.812  1.00  0.00     0.119 C 
HETATM    3  C2  UNL     1      19.681  50.250   7.114  1.00  0.00     0.162 C 
HETATM    4  N2  UNL     1      19.704  51.396   6.577  1.00  0.00    -0.289 N 
ATOM      5  H2  UNL     1      20.521  51.562   5.988  1.00  0.00     0.187 HD
ENDROOT
BRANCH   3   6
HETATM    6  C4  UNL     1      18.553  49.857   8.002  1.00  0.00     0.389 C 
HETATM    7  N6  UNL     1      18.299  50.804   9.029  1.00  0.00    -0.018 N 
HETATM    8  C5  UNL     1      17.308  50.322   9.965  1.00  0.00     0.330 C 
ATOM      9  H62 UNL     1      19.159  51.077   9.505  1.00  0.00     0.283 HD
ATOM     10  H61 UNL     1      18.037  51.710   8.642  1.00  0.00     0.283 HD
HETATM   11  C11 UNL     1      16.115  49.888   9.209  1.00  0.00     0.223 C 
HETATM   12  C12 UNL     1      16.265  50.170   7.693  1.00  0.00     0.292 C 
HETATM   13  O4  UNL     1      17.440  49.694   7.212  1.00  0.00    -0.321 OA
BRANCH   8  14
HETATM   14  N7  UNL     1      17.939  49.357  10.830  1.00  0.00    -0.295 N 
HETATM   15  C6  UNL     1      18.115  48.025  10.551  1.00  0.00     0.187 A 
HETATM   16  N8  UNL     1      18.736  47.404  11.554  1.00  0.00    -0.345 N 
HETATM   17  C7  UNL     1      18.955  48.355  12.478  1.00  0.00     0.147 A 
ATOM     18  H8  UNL     1      18.990  46.418  11.608  1.00  0.00     0.167 HD
HETATM   19  C8  UNL     1      19.574  48.253  13.717  1.00  0.00     0.290 A 
HETATM   20  C10 UNL     1      18.467  49.585  12.049  1.00  0.00     0.158 A 
HETATM   21  O1  UNL     1      20.023  47.143  14.121  1.00  0.00    -0.265 OA
HETATM   22  N9  UNL     1      19.678  49.361  14.461  1.00  0.00    -0.154 N 
HETATM   23  C9  UNL     1      19.202  50.543  14.035  1.00  0.00     0.680 A 
ATOM     24  H9  UNL     1      20.129  49.306  15.374  1.00  0.00     0.187 HD
HETATM   25  N11 UNL     1      18.598  50.666  12.838  1.00  0.00    -0.174 N 
ATOM     26  H11 UNL     1      18.244  51.572  12.532  1.00  0.00     0.186 HD
BRANCH  23  27
HETATM   27  N10 UNL     1      19.309  51.606  14.764  1.00  0.00    -0.234 N 
ATOM     28 2H10 UNL     1      19.727  51.504  15.689  1.00  0.00     0.174 HD
ATOM     29 1H10 UNL     1      18.986  52.511  14.422  1.00  0.00     0.174 HD
ENDBRANCH  23  27
ENDBRANCH   8  14
BRANCH  11  30
HETATM   30  O2  UNL     1      14.967  50.677   9.504  1.00  0.00    -0.387 OA
ATOM     31  H2  UNL     1      14.166  50.167   9.502  1.00  0.00     0.210 HD
ENDBRANCH  11  30
BRANCH  12  32
HETATM   32  O3  UNL     1      16.023  51.517   7.446  1.00  0.00    -0.368 OA
ATOM     33  H3  UNL     1      15.131  51.627   7.136  1.00  0.00     0.212 HD
ENDBRANCH  12  32
ENDBRANCH   3   6
BRANCH   4  34
HETATM   34  N3  UNL     1      18.845  52.446   6.637  1.00  0.00    -0.275 N 
HETATM   35  C3  UNL     1      18.890  53.395   5.773  1.00  0.00     0.215 C 
HETATM   36  N4  UNL     1      19.850  53.344   4.743  1.00  0.00    -0.065 NA
HETATM   37  N5  UNL     1      17.981  54.467   5.871  1.00  0.00    -0.065 NA
ATOM     38  H3  UNL     1      18.150  52.482   7.383  1.00  0.00     0.189 HD
ENDBRANCH   4  34
TORSDOF 6
ENDMDL
MODEL 3
REMARK VINA RESULT: -4.570361279      1.357      1.525
REMARK  6 active torsions:
REMARK  status: ('A' for Active; 'I' for Inactive)
REMARK    1  A    between atoms: C2_3  and  C4_11 
REMARK    2  A    between atoms: N2_4  and  N3_6 
REMARK    3  A    between atoms: C5_15  and  N7_16 
REMARK    4  A    between atoms: C9_25  and  N10_26 
REMARK    5  A    between atoms: C11_32  and  O2_33 
REMARK    6  A    between atoms: C12_35  and  O3_36 
ROOT
HETATM    1  N1  UNL     1      18.940  51.961  15.340  1.00  0.00    -0.190 NA
HETATM    2  C1  UNL     1      19.270  51.282  14.462  1.00  0.00     0.119 C 
HETATM    3  C2  UNL     1      19.660  50.430  13.352  1.00  0.00     0.162 C 
HETATM    4  N2  UNL     1      20.842  49.978  13.376  1.00  0.00    -0.289 N 
ATOM      5  H2  UNL     1      21.383  50.275  14.188  1.00  0.00     0.187 HD
ENDROOT
BRANCH   3   6
HETATM    6  C4  UNL     1      18.746  50.086  12.229  1.00  0.00     0.389 C 
HETATM    7  N6  UNL     1      19.263  49.072  11.382  1.00  0.00    -0.018 N 
HETATM    8  C5  UNL     1      18.429  48.873  10.218  1.00  0.00     0.330 C 
ATOM      9  H62 UNL     1      20.230  49.264  11.118  1.00  0.00     0.283 HD
ATOM     10  H61 UNL     1      19.407  48.200  11.890  1.00  0.00     0.283 HD
HETATM   11  C11 UNL     1      17.037  48.660  10.665  1.00  0.00     0.223 C 
HETATM   12  C12 UNL     1      16.931  48.624  12.209  1.00  0.00     0.292 C 
HETATM   13  O4  UNL     1      17.547  49.692  12.775  1.00  0.00    -0.321 OA
BRANCH   8  14
HETATM   14  N7  UNL     1      18.678  49.952   9.296  1.00  0.00    -0.295 N 
HETATM   15  C6  UNL     1      19.643  50.918   9.434  1.00  0.00     0.187 A 
HETATM   16  N8  UNL     1      19.618  51.770   8.410  1.00  0.00    -0.345 N 
HETATM   17  C7  UNL     1      18.626  51.338   7.613  1.00  0.00     0.147 A 
ATOM     18  H8  UNL     1      20.223  52.578   8.263  1.00  0.00     0.167 HD
HETATM   19  C8  UNL     1      18.175  51.857   6.407  1.00  0.00     0.290 A 
HETATM   20  C10 UNL     1      18.023  50.202   8.145  1.00  0.00     0.158 A 
HETATM   21  O1  UNL     1      18.712  52.888   5.911  1.00  0.00    -0.265 OA
HETATM   22  N9  UNL     1      17.162  51.234   5.794  1.00  0.00    -0.154 N 
HETATM   23  C9  UNL     1      16.588  50.138   6.318  1.00  0.00     0.680 A 
ATOM     24  H9  UNL     1      16.816  51.600   4.907  1.00  0.00     0.187 HD
HETATM   25  N11 UNL     1      17.008  49.616   7.485  1.00  0.00    -0.174 N 
ATOM     26  H11 UNL     1      16.560  48.784   7.867  1.00  0.00     0.186 HD
BRANCH  23  27
HETATM   27  N10 UNL     1      15.610  49.545   5.714  1.00  0.00    -0.234 N 
ATOM     28 2H10 UNL     1      15.717  49.353   4.718  1.00  0.00     0.174 HD
ATOM     29 1H10 UNL     1      14.764  49.281   6.219  1.00  0.00     0.174 HD
ENDBRANCH  23  27
ENDBRANCH   8  14
BRANCH  11  30
HETATM   30  O2  UNL     1      16.555  47.359  10.345  1.00  0.00    -0.387 OA
ATOM     31  H2  UNL     1      15.641  47.243  10.579  1.00  0.00     0.210 HD
ENDBRANCH  11  30
BRANCH  12  32
HETATM   32  O3  UNL     1      17.348  47.382  12.674  1.00  0.00    -0.368 OA
ATOM     33  H3  UNL     1      17.598  46.835  11.937  1.00  0.00     0.212 HD
ENDBRANCH  12  32
ENDBRANCH   3   6
BRANCH   4  34
HETATM   34  N3  UNL     1      21.525  49.172  12.523  1.00  0.00    -0.275 N 
HETATM   35  C3  UNL     1      21.339  47.901  12.513  1.00  0.00     0.215 C 
HETATM   36  N4  UNL     1      20.409  47.335  13.406  1.00  0.00    -0.065 NA
HETATM   37  N5  UNL     1      22.069  47.100  11.613  1.00  0.00    -0.065 NA
ATOM     38  H3  UNL     1      22.199  49.583  11.877  1.00  0.00     0.189 HD
ENDBRANCH   4  34
TORSDOF 6
ENDMDL
MODEL 4
REMARK VINA RESULT: -4.557618603      2.118      5.972
REMARK  6 active torsions:
REMARK  status: ('A' for Active; 'I' for Inactive)
REMARK    1  A    between atoms: C2_3  and  C4_11 
REMARK    2  A    between atoms: N2_4  and  N3_6 
REMARK    3  A    between atoms: C5_15  and  N7_16 
REMARK    4  A    between atoms: C9_25  and  N10_26 
REMARK    5  A    between atoms: C11_32  and  O2_33 
REMARK    6  A    between atoms: C12_35  and  O3_36 
ROOT
HETATM    1  N1  UNL     1      19.544  52.509   5.988  1.00  0.00    -0.190 NA
HETATM    2  C1  UNL     1      19.539  51.606   6.713  1.00  0.00     0.119 C 
HETATM    3  C2  UNL     1      19.508  50.477   7.627  1.00  0.00     0.162 C 
HETATM    4  N2  UNL     1      20.626  49.971   7.937  1.00  0.00    -0.289 N 
ATOM      5  H2  UNL     1      21.425  50.429   7.497  1.00  0.00     0.187 HD
ENDROOT
BRANCH   3   6
HETATM    6  C4  UNL     1      18.248  49.918   8.187  1.00  0.00     0.389 C 
HETATM    7  N6  UNL     1      17.690  50.724   9.213  1.00  0.00    -0.018 N 
HETATM    8  C5  UNL     1      16.560  50.080   9.843  1.00  0.00     0.330 C 
ATOM      9  H62 UNL     1      18.395  50.994   9.900  1.00  0.00     0.283 HD
ATOM     10  H61 UNL     1      17.445  51.651   8.866  1.00  0.00     0.283 HD
HETATM   11  C11 UNL     1      15.608  49.662   8.793  1.00  0.00     0.223 C 
HETATM   12  C12 UNL     1      16.069  50.123   7.388  1.00  0.00     0.292 C 
HETATM   13  O4  UNL     1      17.358  49.777   7.149  1.00  0.00    -0.321 OA
BRANCH   8  14
HETATM   14  N7  UNL     1      17.060  49.064  10.734  1.00  0.00    -0.295 N 
HETATM   15  C6  UNL     1      16.979  47.709  10.531  1.00  0.00     0.187 A 
HETATM   16  N8  UNL     1      17.539  47.039  11.538  1.00  0.00    -0.345 N 
HETATM   17  C7  UNL     1      17.982  47.982  12.388  1.00  0.00     0.147 A 
ATOM     18  H8  UNL     1      17.616  46.027  11.641  1.00  0.00     0.167 HD
HETATM   19  C8  UNL     1      18.648  47.834  13.597  1.00  0.00     0.290 A 
HETATM   20  C10 UNL     1      17.695  49.256  11.907  1.00  0.00     0.158 A 
HETATM   21  O1  UNL     1      18.915  46.684  14.047  1.00  0.00    -0.265 OA
HETATM   22  N9  UNL     1      18.993  48.942  14.264  1.00  0.00    -0.154 N 
HETATM   23  C9  UNL     1      18.711  50.167  13.788  1.00  0.00     0.680 A 
ATOM     24  H9  UNL     1      19.483  48.855  15.153  1.00  0.00     0.187 HD
HETATM   25  N11 UNL     1      18.066  50.335  12.619  1.00  0.00    -0.174 N 
ATOM     26  H11 UNL     1      17.861  51.272  12.275  1.00  0.00     0.186 HD
BRANCH  23  27
HETATM   27  N10 UNL     1      19.051  51.230  14.442  1.00  0.00    -0.234 N 
ATOM     28 2H10 UNL     1      19.151  52.097  13.915  1.00  0.00     0.174 HD
ATOM     29 1H10 UNL     1      19.213  51.197  15.449  1.00  0.00     0.174 HD
ENDBRANCH  23  27
ENDBRANCH   8  14
BRANCH  11  30
HETATM   30  O2  UNL     1      14.360  50.341   8.888  1.00  0.00    -0.387 OA
ATOM     31  H2  UNL     1      14.436  51.181   9.326  1.00  0.00     0.210 HD
ENDBRANCH  11  30
BRANCH  12  32
HETATM   32  O3  UNL     1      15.774  51.471   7.222  1.00  0.00    -0.368 OA
ATOM     33  H3  UNL     1      15.374  51.808   8.016  1.00  0.00     0.212 HD
ENDBRANCH  12  32
ENDBRANCH   3   6
BRANCH   4  34
HETATM   34  N3  UNL     1      20.962  48.933   8.745  1.00  0.00    -0.275 N 
HETATM   35  C3  UNL     1      20.790  48.995  10.016  1.00  0.00     0.215 C 
HETATM   36  N4  UNL     1      20.243  50.163  10.581  1.00  0.00    -0.065 NA
HETATM   37  N5  UNL     1      21.153  47.896  10.820  1.00  0.00    -0.065 NA
ATOM     38  H3  UNL     1      21.359  48.087   8.335  1.00  0.00     0.189 HD
ENDBRANCH   4  34
TORSDOF 6
ENDMDL
MODEL 5
REMARK VINA RESULT: -4.548890403      2.394      6.400
REMARK  6 active torsions:
REMARK  status: ('A' for Active; 'I' for Inactive)
REMARK    1  A    between atoms: C2_3  and  C4_11 
REMARK    2  A    between atoms: N2_4  and  N3_6 
REMARK    3  A    between atoms: C5_15  and  N7_16 
REMARK    4  A    between atoms: C9_25  and  N10_26 
REMARK    5  A    between atoms: C11_32  and  O2_33 
REMARK    6  A    between atoms: C12_35  and  O3_36 
ROOT
HETATM    1  N1  UNL     1      19.226  53.057   5.631  1.00  0.00    -0.190 NA
HETATM    2  C1  UNL     1      19.411  52.004   6.077  1.00  0.00     0.119 C 
HETATM    3  C2  UNL     1      19.626  50.689   6.656  1.00  0.00     0.162 C 
HETATM    4  N2  UNL     1      20.552  49.994   6.146  1.00  0.00    -0.289 N 
ATOM      5  H2  UNL     1      21.042  50.454   5.378  1.00  0.00     0.187 HD
ENDROOT
BRANCH   3   6
HETATM    6  C4  UNL     1      18.818  50.155   7.786  1.00  0.00     0.389 C 
HETATM    7  N6  UNL     1      18.496  51.143   8.754  1.00  0.00    -0.018 N 
HETATM    8  C5  UNL     1      17.851  50.564   9.911  1.00  0.00     0.330 C 
ATOM      9  H62 UNL     1      19.318  51.687   9.018  1.00  0.00     0.283 HD
ATOM     10  H61 UNL     1      17.934  51.891   8.348  1.00  0.00     0.283 HD
HETATM   11  C11 UNL     1      16.710  49.744   9.455  1.00  0.00     0.223 C 
HETATM   12  C12 UNL     1      16.514  49.838   7.922  1.00  0.00     0.292 C 
HETATM   13  O4  UNL     1      17.673  49.609   7.257  1.00  0.00    -0.321 OA
BRANCH   8  14
HETATM   14  N7  UNL     1      18.860  49.920  10.714  1.00  0.00    -0.295 N 
HETATM   15  C6  UNL     1      19.741  48.963  10.277  1.00  0.00     0.187 A 
HETATM   16  N8  UNL     1      20.549  48.571  11.261  1.00  0.00    -0.345 N 
HETATM   17  C7  UNL     1      20.176  49.290  12.334  1.00  0.00     0.147 A 
ATOM     18  H8  UNL     1      21.292  47.875  11.211  1.00  0.00     0.167 HD
HETATM   19  C8  UNL     1      20.691  49.282  13.623  1.00  0.00     0.290 A 
HETATM   20  C10 UNL     1      19.121  50.142  12.017  1.00  0.00     0.158 A 
HETATM   21  O1  UNL     1      21.648  48.514  13.926  1.00  0.00    -0.265 OA
HETATM   22  N9  UNL     1      20.144  50.106  14.524  1.00  0.00    -0.154 N 
HETATM   23  C9  UNL     1      19.127  50.923  14.205  1.00  0.00     0.680 A 
ATOM     24  H9  UNL     1      20.509  50.114  15.477  1.00  0.00     0.187 HD
HETATM   25  N11 UNL     1      18.611  50.950  12.962  1.00  0.00    -0.174 N 
ATOM     26  H11 UNL     1      17.839  51.577  12.740  1.00  0.00     0.186 HD
BRANCH  23  27
HETATM   27  N10 UNL     1      18.608  51.716  15.086  1.00  0.00    -0.234 N 
ATOM     28 2H10 UNL     1      18.747  51.485  16.070  1.00  0.00     0.174 HD
ATOM     29 1H10 UNL     1      18.080  52.541  14.803  1.00  0.00     0.174 HD
ENDBRANCH  23  27
ENDBRANCH   8  14
BRANCH  11  30
HETATM   30  O2  UNL     1      15.458  50.254   9.905  1.00  0.00    -0.387 OA
ATOM     31  H2  UNL     1      15.553  50.858  10.632  1.00  0.00     0.210 HD
ENDBRANCH  11  30
BRANCH  12  32
HETATM   32  O3  UNL     1      15.875  51.033   7.609  1.00  0.00    -0.368 OA
ATOM     33  H3  UNL     1      16.180  51.718   8.193  1.00  0.00     0.212 HD
ENDBRANCH  12  32
ENDBRANCH   3   6
BRANCH   4  34
HETATM   34  N3  UNL     1      21.018  48.750   6.431  1.00  0.00    -0.275 N 
HETATM   35  C3  UNL     1      22.240  48.427   6.203  1.00  0.00     0.215 C 
HETATM   36  N4  UNL     1      23.112  49.383   5.647  1.00  0.00    -0.065 NA
HETATM   37  N5  UNL     1      22.683  47.126   6.512  1.00  0.00    -0.065 NA
ATOM     38  H3  UNL     1      20.385  48.059   6.834  1.00  0.00     0.189 HD
ENDBRANCH   4  34
TORSDOF 6
ENDMDL
