MODEL 1
REMARK VINA RESULT: -9.275503527      0.000      0.000
REMARK  11 active torsions:
REMARK  status: ('A' for Active; 'I' for Inactive)
REMARK    1  A    between atoms: N1_1  and  C1_5 
REMARK    2  A    between atoms: C1_5  and  O1_6 
REMARK    3  A    between atoms: C1_5  and  C2_8 
REMARK    4  A    between atoms: C2_8  and  C3_9 
REMARK    5  A    between atoms: C2_8  and  N2_11 
REMARK    6  A    between atoms: N6_24  and  C9_25 
REMARK    7  A    between atoms: C9_25  and  C10_26 
REMARK       I    between atoms: C10_26  and  N7_28 
REMARK    8  A    between atoms: N7_28  and  C11_30 
REMARK    9  A    between atoms: C15_34  and  N8_35 
REMARK   10  A    between atoms: N8_35  and  N9_37 
REMARK   11  A    between atoms: C21_51  and  O6_52 
ROOT
HETATM    1  C10 UNL     1     -16.239   7.996  14.411  1.00  0.00     0.240 C 
HETATM    2  O3  UNL     1     -16.125   8.281  15.619  1.00  0.00    -0.271 OA
HETATM    3  N7  UNL     1     -15.267   8.293  13.456  1.00  0.00    -0.323 N 
ATOM      4  H7  UNL     1     -15.481   8.006  12.501  1.00  0.00     0.169 HD
ENDROOT
BRANCH   1   5
HETATM    5  C9  UNL     1     -17.512   7.287  13.963  1.00  0.00     0.234 C 
BRANCH   5   6
HETATM    6  N6  UNL     1     -18.672   8.124  14.100  1.00  0.00    -0.318 N 
HETATM    7  C6  UNL     1     -18.857   9.350  13.549  1.00  0.00     0.141 A 
HETATM    8  N4  UNL     1     -18.118  10.157  12.768  1.00  0.00    -0.336 N 
HETATM    9  C7  UNL     1     -20.112   9.804  13.923  1.00  0.00     0.122 A 
HETATM   10  C5  UNL     1     -18.560  11.363  12.353  1.00  0.00     0.183 A 
ATOM     11  H4  UNL     1     -17.191   9.847  12.479  1.00  0.00     0.168 HD
HETATM   12  N3  UNL     1     -19.792  11.770  12.739  1.00  0.00    -0.337 N 
HETATM   13  C4  UNL     1     -20.598  11.034  13.516  1.00  0.00     0.134 A 
ATOM     14  H3  UNL     1     -20.122  12.682  12.424  1.00  0.00     0.168 HD
HETATM   15  N2  UNL     1     -21.760  11.367  13.907  1.00  0.00    -0.359 N 
ATOM     16  H2  UNL     1     -22.246  10.691  14.496  1.00  0.00     0.162 HD
HETATM   17  N5  UNL     1     -20.630   8.825  14.686  1.00  0.00    -0.346 N 
HETATM   18  C8  UNL     1     -19.768   7.793  14.806  1.00  0.00     0.185 A 
ATOM     19  H5  UNL     1     -21.554   8.857  15.118  1.00  0.00     0.167 HD
BRANCH  15  20
HETATM   20  C2  UNL     1     -22.465  12.574  13.621  1.00  0.00     0.200 C 
BRANCH  20  21
HETATM   21  C1  UNL     1     -23.899  12.213  13.238  1.00  0.00     0.345 C 
BRANCH  21  22
HETATM   22  N1  UNL     1     -24.321  13.209  12.262  1.00  0.00    -0.051 N 
ATOM     23  H13 UNL     1     -24.471  14.132  12.670  1.00  0.00     0.277 HD
ATOM     24  H12 UNL     1     -23.579  13.473  11.612  1.00  0.00     0.277 HD
ATOM     25  H11 UNL     1     -25.149  12.837  11.796  1.00  0.00     0.277 HD
ENDBRANCH  21  22
BRANCH  21  26
HETATM   26  O1  UNL     1     -24.725  12.358  14.349  1.00  0.00    -0.368 OA
ATOM     27  H1  UNL     1     -25.231  11.558  14.424  1.00  0.00     0.212 HD
ENDBRANCH  21  26
ENDBRANCH  20  21
BRANCH  20  28
HETATM   28  C3  UNL     1     -22.447  13.436  14.834  1.00  0.00     0.260 C 
HETATM   29  O2  UNL     1     -22.842  14.593  14.818  1.00  0.00    -0.304 OA
ENDBRANCH  20  28
ENDBRANCH  15  20
ENDBRANCH   5   6
ENDBRANCH   1   5
BRANCH   3  30
HETATM   30  C11 UNL     1     -14.039   8.930  13.637  1.00  0.00     0.071 A 
HETATM   31  C12 UNL     1     -13.899  10.176  14.142  1.00  0.00     0.062 A 
HETATM   32  C13 UNL     1     -12.647  10.771  14.305  1.00  0.00     0.043 A 
HETATM   33  C14 UNL     1     -12.302  12.000  14.789  1.00  0.00     0.062 A 
HETATM   34  N12 UNL     1     -11.562  10.087  13.950  1.00  0.00    -0.328 N 
HETATM   35  C15 UNL     1     -10.925  12.082  14.732  1.00  0.00     0.066 A 
HETATM   36  C19 UNL     1     -10.502  10.884  14.209  1.00  0.00     0.127 A 
HETATM   37  C20 UNL     1     -11.664   8.861  13.450  1.00  0.00     0.135 A 
HETATM   38  C21 UNL     1     -12.862   8.252  13.279  1.00  0.00     0.108 A 
BRANCH  35  39
HETATM   39  N8  UNL     1     -10.151  13.206  15.144  1.00  0.00    -0.298 N 
ATOM     40  H8  UNL     1     -10.174  13.526  16.112  1.00  0.00     0.187 HD
BRANCH  39  41
HETATM   41  N9  UNL     1      -9.369  13.853  14.209  1.00  0.00    -0.280 N 
HETATM   42  C16 UNL     1      -9.812  14.866  13.542  1.00  0.00     0.193 A 
HETATM   43  N10 UNL     1     -11.097  15.463  13.638  1.00  0.00    -0.289 N 
HETATM   44  C18 UNL     1      -9.098  15.636  12.533  1.00  0.00     0.295 A 
HETATM   45  C17 UNL     1     -11.209  16.561  12.741  1.00  0.00     0.328 A 
ATOM     46  H10 UNL     1     -11.837  15.148  14.265  1.00  0.00     0.172 HD
HETATM   47  O4  UNL     1     -12.213  17.323  12.559  1.00  0.00    -0.247 OA
HETATM   48  N11 UNL     1      -9.970  16.670  12.054  1.00  0.00    -0.272 N 
ATOM     49  H11 UNL     1      -9.739  17.363  11.343  1.00  0.00     0.174 HD
HETATM   50  O5  UNL     1      -7.908  15.412  12.160  1.00  0.00    -0.264 OA
ATOM     51  H9  UNL     1      -8.419  13.523  14.040  1.00  0.00     0.188 HD
ENDBRANCH  39  41
ENDBRANCH  35  39
BRANCH  38  52
HETATM   52  O6  UNL     1     -12.927   6.952  12.746  1.00  0.00    -0.357 OA
ATOM     53  H6  UNL     1     -12.345   6.693  12.041  1.00  0.00     0.217 HD
ENDBRANCH  38  52
ENDBRANCH   3  30
TORSDOF 11
ENDMDL
MODEL 2
REMARK VINA RESULT: -9.232763972      0.841      1.547
REMARK  11 active torsions:
REMARK  status: ('A' for Active; 'I' for Inactive)
REMARK    1  A    between atoms: N1_1  and  C1_5 
REMARK    2  A    between atoms: C1_5  and  O1_6 
REMARK    3  A    between atoms: C1_5  and  C2_8 
REMARK    4  A    between atoms: C2_8  and  C3_9 
REMARK    5  A    between atoms: C2_8  and  N2_11 
REMARK    6  A    between atoms: N6_24  and  C9_25 
REMARK    7  A    between atoms: C9_25  and  C10_26 
REMARK       I    between atoms: C10_26  and  N7_28 
REMARK    8  A    between atoms: N7_28  and  C11_30 
REMARK    9  A    between atoms: C15_34  and  N8_35 
REMARK   10  A    between atoms: N8_35  and  N9_37 
REMARK   11  A    between atoms: C21_51  and  O6_52 
ROOT
HETATM    1  C10 UNL     1     -16.134   8.234  14.624  1.00  0.00     0.240 C 
HETATM    2  O3  UNL     1     -16.058   8.733  15.763  1.00  0.00    -0.271 OA
HETATM    3  N7  UNL     1     -15.135   8.361  13.660  1.00  0.00    -0.323 N 
ATOM      4  H7  UNL     1     -15.319   7.905  12.766  1.00  0.00     0.169 HD
ENDROOT
BRANCH   1   5
HETATM    5  C9  UNL     1     -17.391   7.444  14.275  1.00  0.00     0.234 C 
BRANCH   5   6
HETATM    6  N6  UNL     1     -18.565   8.273  14.272  1.00  0.00    -0.318 N 
HETATM    7  C6  UNL     1     -18.755   9.407  13.553  1.00  0.00     0.141 A 
HETATM    8  N4  UNL     1     -18.012  10.110  12.681  1.00  0.00    -0.336 N 
HETATM    9  C7  UNL     1     -20.024   9.888  13.837  1.00  0.00     0.122 A 
HETATM   10  C5  UNL     1     -18.462  11.238  12.094  1.00  0.00     0.183 A 
ATOM     11  H4  UNL     1     -17.074   9.778  12.455  1.00  0.00     0.168 HD
HETATM   12  N3  UNL     1     -19.707  11.675  12.397  1.00  0.00    -0.337 N 
HETATM   13  C4  UNL     1     -20.519  11.041  13.253  1.00  0.00     0.134 A 
ATOM     14  H3  UNL     1     -20.043  12.528  11.951  1.00  0.00     0.168 HD
HETATM   15  N2  UNL     1     -21.692  11.405  13.573  1.00  0.00    -0.359 N 
ATOM     16  H2  UNL     1     -22.181  10.810  14.241  1.00  0.00     0.162 HD
HETATM   17  N5  UNL     1     -20.544   9.015  14.719  1.00  0.00    -0.346 N 
HETATM   18  C8  UNL     1     -19.670   8.024  14.998  1.00  0.00     0.185 A 
ATOM     19  H5  UNL     1     -21.476   9.092  15.125  1.00  0.00     0.167 HD
BRANCH  15  20
HETATM   20  C2  UNL     1     -22.408  12.549  13.108  1.00  0.00     0.200 C 
BRANCH  20  21
HETATM   21  C1  UNL     1     -23.793  12.095  12.650  1.00  0.00     0.345 C 
BRANCH  21  22
HETATM   22  N1  UNL     1     -24.668  13.250  12.801  1.00  0.00    -0.051 N 
ATOM     23  H13 UNL     1     -25.177  13.482  11.948  1.00  0.00     0.277 HD
ATOM     24  H12 UNL     1     -25.480  13.063  13.390  1.00  0.00     0.277 HD
ATOM     25  H11 UNL     1     -24.091  14.018  13.145  1.00  0.00     0.277 HD
ENDBRANCH  21  22
BRANCH  21  26
HETATM   26  O1  UNL     1     -24.266  11.111  13.513  1.00  0.00    -0.368 OA
ATOM     27  H1  UNL     1     -25.126  10.857  13.198  1.00  0.00     0.212 HD
ENDBRANCH  21  26
ENDBRANCH  20  21
BRANCH  20  28
HETATM   28  C3  UNL     1     -22.519  13.528  14.224  1.00  0.00     0.260 C 
HETATM   29  O2  UNL     1     -23.015  13.233  15.302  1.00  0.00    -0.304 OA
ENDBRANCH  20  28
ENDBRANCH  15  20
ENDBRANCH   5   6
ENDBRANCH   1   5
BRANCH   3  30
HETATM   30  C11 UNL     1     -13.915   9.032  13.758  1.00  0.00     0.071 A 
HETATM   31  C12 UNL     1     -13.777  10.287  14.239  1.00  0.00     0.062 A 
HETATM   32  C13 UNL     1     -12.533  10.915  14.317  1.00  0.00     0.043 A 
HETATM   33  C14 UNL     1     -12.191  12.159  14.765  1.00  0.00     0.062 A 
HETATM   34  N12 UNL     1     -11.454  10.254  13.905  1.00  0.00    -0.328 N 
HETATM   35  C15 UNL     1     -10.823  12.276  14.622  1.00  0.00     0.066 A 
HETATM   36  C19 UNL     1     -10.401  11.082  14.090  1.00  0.00     0.127 A 
HETATM   37  C20 UNL     1     -11.555   9.019  13.427  1.00  0.00     0.135 A 
HETATM   38  C21 UNL     1     -12.745   8.379  13.337  1.00  0.00     0.108 A 
BRANCH  35  39
HETATM   39  N8  UNL     1     -10.055  13.424  14.973  1.00  0.00    -0.298 N 
ATOM     40  H8  UNL     1      -9.383  13.386  15.740  1.00  0.00     0.187 HD
BRANCH  39  41
HETATM   41  N9  UNL     1     -10.236  14.589  14.256  1.00  0.00    -0.280 N 
HETATM   42  C16 UNL     1      -9.286  15.104  13.552  1.00  0.00     0.193 A 
HETATM   43  N10 UNL     1      -7.966  14.604  13.393  1.00  0.00    -0.289 N 
HETATM   44  C18 UNL     1      -9.341  16.320  12.752  1.00  0.00     0.295 A 
HETATM   45  C17 UNL     1      -7.208  15.451  12.537  1.00  0.00     0.328 A 
ATOM     46  H10 UNL     1      -7.610  13.756  13.833  1.00  0.00     0.172 HD
HETATM   47  O4  UNL     1      -5.994  15.313  12.175  1.00  0.00    -0.247 OA
HETATM   48  N11 UNL     1      -8.060  16.516  12.139  1.00  0.00    -0.272 N 
ATOM     49  H11 UNL     1      -7.804  17.287  11.522  1.00  0.00     0.174 HD
HETATM   50  O5  UNL     1     -10.362  17.062  12.634  1.00  0.00    -0.264 OA
ATOM     51  H9  UNL     1     -11.144  15.054  14.283  1.00  0.00     0.188 HD
ENDBRANCH  39  41
ENDBRANCH  35  39
BRANCH  38  52
HETATM   52  O6  UNL     1     -12.808   7.070  12.824  1.00  0.00    -0.357 OA
ATOM     53  H6  UNL     1     -12.829   6.325  13.413  1.00  0.00     0.217 HD
ENDBRANCH  38  52
ENDBRANCH   3  30
TORSDOF 11
ENDMDL
MODEL 3
REMARK VINA RESULT: -9.104918685      2.679      3.231
REMARK  11 active torsions:
REMARK  status: ('A' for Active; 'I' for Inactive)
REMARK    1  A    between atoms: N1_1  and  C1_5 
REMARK    2  A    between atoms: C1_5  and  O1_6 
REMARK    3  A    between atoms: C1_5  and  C2_8 
REMARK    4  A    between atoms: C2_8  and  C3_9 
REMARK    5  A    between atoms: C2_8  and  N2_11 
REMARK    6  A    between atoms: N6_24  and  C9_25 
REMARK    7  A    between atoms: C9_25  and  C10_26 
REMARK       I    between atoms: C10_26  and  N7_28 
REMARK    8  A    between atoms: N7_28  and  C11_30 
REMARK    9  A    between atoms: C15_34  and  N8_35 
REMARK   10  A    between atoms: N8_35  and  N9_37 
REMARK   11  A    between atoms: C21_51  and  O6_52 
ROOT
HETATM    1  C10 UNL     1     -17.018   8.485  15.378  1.00  0.00     0.240 C 
HETATM    2  O3  UNL     1     -16.392   7.881  16.270  1.00  0.00    -0.271 OA
HETATM    3  N7  UNL     1     -16.407   9.316  14.438  1.00  0.00    -0.323 N 
ATOM      4  H7  UNL     1     -17.032   9.751  13.759  1.00  0.00     0.169 HD
ENDROOT
BRANCH   1   5
HETATM    5  C9  UNL     1     -18.530   8.301  15.319  1.00  0.00     0.234 C 
BRANCH   5   6
HETATM    6  N6  UNL     1     -19.234   9.490  15.711  1.00  0.00    -0.318 N 
HETATM    7  C6  UNL     1     -18.953  10.287  16.772  1.00  0.00     0.141 A 
HETATM    8  N4  UNL     1     -18.029  10.270  17.749  1.00  0.00    -0.336 N 
HETATM    9  C7  UNL     1     -19.869  11.328  16.782  1.00  0.00     0.122 A 
HETATM   10  C5  UNL     1     -17.976  11.217  18.709  1.00  0.00     0.183 A 
ATOM     11  H4  UNL     1     -17.345   9.515  17.764  1.00  0.00     0.168 HD
HETATM   12  N3  UNL     1     -18.888  12.217  18.684  1.00  0.00    -0.337 N 
HETATM   13  C4  UNL     1     -19.844  12.316  17.750  1.00  0.00     0.134 A 
ATOM     14  H3  UNL     1     -18.845  12.931  19.411  1.00  0.00     0.168 HD
HETATM   15  N2  UNL     1     -20.722  13.231  17.680  1.00  0.00    -0.359 N 
ATOM     16  H2  UNL     1     -21.381  13.162  16.905  1.00  0.00     0.162 HD
HETATM   17  N5  UNL     1     -20.664  11.110  15.719  1.00  0.00    -0.346 N 
HETATM   18  C8  UNL     1     -20.294   9.995  15.054  1.00  0.00     0.185 A 
ATOM     19  H5  UNL     1     -21.445  11.709  15.451  1.00  0.00     0.167 HD
BRANCH  15  20
HETATM   20  C2  UNL     1     -20.896  14.344  18.557  1.00  0.00     0.200 C 
BRANCH  20  21
HETATM   21  C1  UNL     1     -20.086  15.517  18.009  1.00  0.00     0.345 C 
BRANCH  21  22
HETATM   22  N1  UNL     1     -20.201  15.446  16.558  1.00  0.00    -0.051 N 
ATOM     23  H13 UNL     1     -19.930  16.312  16.091  1.00  0.00     0.277 HD
ATOM     24  H12 UNL     1     -19.499  14.842  16.129  1.00  0.00     0.277 HD
ATOM     25  H11 UNL     1     -21.158  15.160  16.348  1.00  0.00     0.277 HD
ENDBRANCH  21  22
BRANCH  21  26
HETATM   26  O1  UNL     1     -18.741  15.337  18.319  1.00  0.00    -0.368 OA
ATOM     27  H1  UNL     1     -18.634  15.575  19.233  1.00  0.00     0.212 HD
ENDBRANCH  21  26
ENDBRANCH  20  21
BRANCH  20  28
HETATM   28  C3  UNL     1     -22.343  14.686  18.612  1.00  0.00     0.260 C 
HETATM   29  O2  UNL     1     -23.013  14.851  17.602  1.00  0.00    -0.304 OA
ENDBRANCH  20  28
ENDBRANCH  15  20
ENDBRANCH   5   6
ENDBRANCH   1   5
BRANCH   3  30
HETATM   30  C11 UNL     1     -15.054   9.628  14.305  1.00  0.00     0.071 A 
HETATM   31  C12 UNL     1     -14.482  10.747  14.800  1.00  0.00     0.062 A 
HETATM   32  C13 UNL     1     -13.121  11.015  14.640  1.00  0.00     0.043 A 
HETATM   33  C14 UNL     1     -12.368  12.073  15.059  1.00  0.00     0.062 A 
HETATM   34  N12 UNL     1     -12.369  10.137  13.980  1.00  0.00    -0.328 N 
HETATM   35  C15 UNL     1     -11.075  11.838  14.636  1.00  0.00     0.066 A 
HETATM   36  C19 UNL     1     -11.113  10.635  13.974  1.00  0.00     0.127 A 
HETATM   37  C20 UNL     1     -12.900   9.027  13.481  1.00  0.00     0.135 A 
HETATM   38  C21 UNL     1     -14.216   8.735  13.617  1.00  0.00     0.108 A 
BRANCH  35  39
HETATM   39  N8  UNL     1      -9.965  12.703  14.866  1.00  0.00    -0.298 N 
ATOM     40  H8  UNL     1      -9.564  12.797  15.799  1.00  0.00     0.187 HD
BRANCH  39  41
HETATM   41  N9  UNL     1      -9.442  13.409  13.802  1.00  0.00    -0.280 N 
HETATM   42  C16 UNL     1      -9.951  14.533  13.421  1.00  0.00     0.193 A 
HETATM   43  N10 UNL     1     -11.067  15.205  13.985  1.00  0.00    -0.289 N 
HETATM   44  C18 UNL     1      -9.501  15.376  12.323  1.00  0.00     0.295 A 
HETATM   45  C17 UNL     1     -11.326  16.420  13.290  1.00  0.00     0.328 A 
ATOM     46  H10 UNL     1     -11.609  14.865  14.779  1.00  0.00     0.172 HD
HETATM   47  O4  UNL     1     -12.244  17.272  13.519  1.00  0.00    -0.247 OA
HETATM   48  N11 UNL     1     -10.355  16.527  12.258  1.00  0.00    -0.272 N 
ATOM     49  H11 UNL     1     -10.278  17.290  11.586  1.00  0.00     0.174 HD
HETATM   50  O5  UNL     1      -8.518  15.116  11.567  1.00  0.00    -0.264 OA
ATOM     51  H9  UNL     1      -8.634  13.036  13.305  1.00  0.00     0.188 HD
ENDBRANCH  39  41
ENDBRANCH  35  39
BRANCH  38  52
HETATM   52  O6  UNL     1     -14.738   7.547  13.073  1.00  0.00    -0.357 OA
ATOM     53  H6  UNL     1     -14.409   6.703  13.360  1.00  0.00     0.217 HD
ENDBRANCH  38  52
ENDBRANCH   3  30
TORSDOF 11
ENDMDL
MODEL 4
REMARK VINA RESULT: -9.037958958      2.758      3.436
REMARK  11 active torsions:
REMARK  status: ('A' for Active; 'I' for Inactive)
REMARK    1  A    between atoms: N1_1  and  C1_5 
REMARK    2  A    between atoms: C1_5  and  O1_6 
REMARK    3  A    between atoms: C1_5  and  C2_8 
REMARK    4  A    between atoms: C2_8  and  C3_9 
REMARK    5  A    between atoms: C2_8  and  N2_11 
REMARK    6  A    between atoms: N6_24  and  C9_25 
REMARK    7  A    between atoms: C9_25  and  C10_26 
REMARK       I    between atoms: C10_26  and  N7_28 
REMARK    8  A    between atoms: N7_28  and  C11_30 
REMARK    9  A    between atoms: C15_34  and  N8_35 
REMARK   10  A    between atoms: N8_35  and  N9_37 
REMARK   11  A    between atoms: C21_51  and  O6_52 
ROOT
HETATM    1  C10 UNL     1     -17.025   8.460  15.432  1.00  0.00     0.240 C 
HETATM    2  O3  UNL     1     -16.380   7.867  16.319  1.00  0.00    -0.271 OA
HETATM    3  N7  UNL     1     -16.437   9.293  14.480  1.00  0.00    -0.323 N 
ATOM      4  H7  UNL     1     -17.075   9.718  13.808  1.00  0.00     0.169 HD
ENDROOT
BRANCH   1   5
HETATM    5  C9  UNL     1     -18.535   8.257  15.394  1.00  0.00     0.234 C 
BRANCH   5   6
HETATM    6  N6  UNL     1     -19.248   9.444  15.776  1.00  0.00    -0.318 N 
HETATM    7  C6  UNL     1     -18.967  10.257  16.825  1.00  0.00     0.141 A 
HETATM    8  N4  UNL     1     -18.036  10.262  17.794  1.00  0.00    -0.336 N 
HETATM    9  C7  UNL     1     -19.893  11.289  16.829  1.00  0.00     0.122 A 
HETATM   10  C5  UNL     1     -17.984  11.222  18.741  1.00  0.00     0.183 A 
ATOM     11  H4  UNL     1     -17.343   9.515  17.814  1.00  0.00     0.168 HD
HETATM   12  N3  UNL     1     -18.906  12.213  18.711  1.00  0.00    -0.337 N 
HETATM   13  C4  UNL     1     -19.871  12.290  17.784  1.00  0.00     0.134 A 
ATOM     14  H3  UNL     1     -18.865  12.936  19.428  1.00  0.00     0.168 HD
HETATM   15  N2  UNL     1     -20.759  13.195  17.709  1.00  0.00    -0.359 N 
ATOM     16  H2  UNL     1     -21.423  13.109  16.940  1.00  0.00     0.162 HD
HETATM   17  N5  UNL     1     -20.695  11.049  15.775  1.00  0.00    -0.346 N 
HETATM   18  C8  UNL     1     -20.318   9.930  15.121  1.00  0.00     0.185 A 
ATOM     19  H5  UNL     1     -21.484  11.637  15.506  1.00  0.00     0.167 HD
BRANCH  15  20
HETATM   20  C2  UNL     1     -20.937  14.317  18.572  1.00  0.00     0.200 C 
BRANCH  20  21
HETATM   21  C1  UNL     1     -20.123  15.484  18.017  1.00  0.00     0.345 C 
BRANCH  21  22
HETATM   22  N1  UNL     1     -20.219  15.390  16.566  1.00  0.00    -0.051 N 
ATOM     23  H13 UNL     1     -20.871  16.064  16.163  1.00  0.00     0.277 HD
ATOM     24  H12 UNL     1     -19.380  15.718  16.086  1.00  0.00     0.277 HD
ATOM     25  H11 UNL     1     -20.455  14.423  16.345  1.00  0.00     0.277 HD
ENDBRANCH  21  22
BRANCH  21  26
HETATM   26  O1  UNL     1     -18.782  15.312  18.347  1.00  0.00    -0.368 OA
ATOM     27  H1  UNL     1     -18.756  14.772  19.129  1.00  0.00     0.212 HD
ENDBRANCH  21  26
ENDBRANCH  20  21
BRANCH  20  28
HETATM   28  C3  UNL     1     -22.385  14.660  18.615  1.00  0.00     0.260 C 
HETATM   29  O2  UNL     1     -23.048  14.813  17.600  1.00  0.00    -0.304 OA
ENDBRANCH  20  28
ENDBRANCH  15  20
ENDBRANCH   5   6
ENDBRANCH   1   5
BRANCH   3  30
HETATM   30  C11 UNL     1     -15.089   9.620  14.328  1.00  0.00     0.071 A 
HETATM   31  C12 UNL     1     -14.531  10.763  14.783  1.00  0.00     0.062 A 
HETATM   32  C13 UNL     1     -13.175  11.045  14.605  1.00  0.00     0.043 A 
HETATM   33  C14 UNL     1     -12.434  12.127  14.985  1.00  0.00     0.062 A 
HETATM   34  N12 UNL     1     -12.414  10.158  13.968  1.00  0.00    -0.328 N 
HETATM   35  C15 UNL     1     -11.141  11.898  14.560  1.00  0.00     0.066 A 
HETATM   36  C19 UNL     1     -11.165  10.674  13.937  1.00  0.00     0.127 A 
HETATM   37  C20 UNL     1     -12.931   9.025  13.508  1.00  0.00     0.135 A 
HETATM   38  C21 UNL     1     -14.242   8.718  13.663  1.00  0.00     0.108 A 
BRANCH  35  39
HETATM   39  N8  UNL     1     -10.042  12.785  14.755  1.00  0.00    -0.298 N 
ATOM     40  H8  UNL     1      -9.131  12.428  15.043  1.00  0.00     0.187 HD
BRANCH  39  41
HETATM   41  N9  UNL     1     -10.234  14.135  14.546  1.00  0.00    -0.280 N 
HETATM   42  C16 UNL     1      -9.932  14.696  13.424  1.00  0.00     0.193 A 
HETATM   43  N10 UNL     1      -9.383  14.072  12.272  1.00  0.00    -0.289 N 
HETATM   44  C18 UNL     1     -10.082  16.101  13.072  1.00  0.00     0.295 A 
HETATM   45  C17 UNL     1      -9.189  15.023  11.231  1.00  0.00     0.328 A 
ATOM     46  H10 UNL     1      -9.158  13.080  12.202  1.00  0.00     0.172 HD
HETATM   47  O4  UNL     1      -8.718  14.820  10.065  1.00  0.00    -0.247 OA
HETATM   48  N11 UNL     1      -9.622  16.282  11.726  1.00  0.00    -0.272 N 
ATOM     49  H11 UNL     1      -9.609  17.163  11.212  1.00  0.00     0.174 HD
HETATM   50  O5  UNL     1     -10.546  16.994  13.843  1.00  0.00    -0.264 OA
ATOM     51  H9  UNL     1     -10.625  14.705  15.298  1.00  0.00     0.188 HD
ENDBRANCH  39  41
ENDBRANCH  35  39
BRANCH  38  52
HETATM   52  O6  UNL     1     -14.750   7.506  13.160  1.00  0.00    -0.357 OA
ATOM     53  H6  UNL     1     -14.437   7.162  12.332  1.00  0.00     0.217 HD
ENDBRANCH  38  52
ENDBRANCH   3  30
TORSDOF 11
ENDMDL
MODEL 5
REMARK VINA RESULT: -8.994766388      3.235     11.237
REMARK  11 active torsions:
REMARK  status: ('A' for Active; 'I' for Inactive)
REMARK    1  A    between atoms: N1_1  and  C1_5 
REMARK    2  A    between atoms: C1_5  and  O1_6 
REMARK    3  A    between atoms: C1_5  and  C2_8 
REMARK    4  A    between atoms: C2_8  and  C3_9 
REMARK    5  A    between atoms: C2_8  and  N2_11 
REMARK    6  A    between atoms: N6_24  and  C9_25 
REMARK    7  A    between atoms: C9_25  and  C10_26 
REMARK       I    between atoms: C10_26  and  N7_28 
REMARK    8  A    between atoms: N7_28  and  C11_30 
REMARK    9  A    between atoms: C15_34  and  N8_35 
REMARK   10  A    between atoms: N8_35  and  N9_37 
REMARK   11  A    between atoms: C21_51  and  O6_52 
ROOT
HETATM    1  C10 UNL     1     -14.464  12.755  15.047  1.00  0.00     0.240 C 
HETATM    2  O3  UNL     1     -15.634  12.964  14.675  1.00  0.00    -0.271 OA
HETATM    3  N7  UNL     1     -13.871  11.492  15.048  1.00  0.00    -0.323 N 
ATOM      4  H7  UNL     1     -12.906  11.456  15.377  1.00  0.00     0.169 HD
ENDROOT
BRANCH   1   5
HETATM    5  C9  UNL     1     -13.645  13.948  15.527  1.00  0.00     0.234 C 
BRANCH   5   6
HETATM    6  N6  UNL     1     -12.366  14.021  14.875  1.00  0.00    -0.318 N 
HETATM    7  C6  UNL     1     -11.988  14.916  13.928  1.00  0.00     0.141 A 
HETATM    8  N4  UNL     1     -12.589  15.946  13.307  1.00  0.00    -0.336 N 
HETATM    9  C7  UNL     1     -10.677  14.639  13.575  1.00  0.00     0.122 A 
HETATM   10  C5  UNL     1     -11.960  16.694  12.376  1.00  0.00     0.183 A 
ATOM     11  H4  UNL     1     -13.554  16.171  13.549  1.00  0.00     0.168 HD
HETATM   12  N3  UNL     1     -10.679  16.392  12.059  1.00  0.00    -0.337 N 
HETATM   13  C4  UNL     1     -10.001  15.384  12.625  1.00  0.00     0.134 A 
ATOM     14  H3  UNL     1     -10.208  16.958  11.355  1.00  0.00     0.168 HD
HETATM   15  N2  UNL     1      -8.802  15.058  12.365  1.00  0.00    -0.359 N 
ATOM     16  H2  UNL     1      -8.430  14.264  12.885  1.00  0.00     0.162 HD
HETATM   17  N5  UNL     1     -10.322  13.583  14.330  1.00  0.00    -0.346 N 
HETATM   18  C8  UNL     1     -11.338  13.192  15.128  1.00  0.00     0.185 A 
ATOM     19  H5  UNL     1      -9.406  13.137  14.302  1.00  0.00     0.167 HD
BRANCH  15  20
HETATM   20  C2  UNL     1      -7.912  15.671  11.432  1.00  0.00     0.200 C 
BRANCH  20  21
HETATM   21  C1  UNL     1      -6.499  15.614  12.006  1.00  0.00     0.345 C 
BRANCH  21  22
HETATM   22  N1  UNL     1      -5.838  14.495  11.346  1.00  0.00    -0.051 N 
ATOM     23  H13 UNL     1      -5.622  14.679  10.367  1.00  0.00     0.277 HD
ATOM     24  H12 UNL     1      -4.880  14.350  11.666  1.00  0.00     0.277 HD
ATOM     25  H11 UNL     1      -6.434  13.677  11.479  1.00  0.00     0.277 HD
ENDBRANCH  21  22
BRANCH  21  26
HETATM   26  O1  UNL     1      -6.563  15.305  13.362  1.00  0.00    -0.368 OA
ATOM     27  H1  UNL     1      -6.461  14.363  13.436  1.00  0.00     0.212 HD
ENDBRANCH  21  26
ENDBRANCH  20  21
BRANCH  20  28
HETATM   28  C3  UNL     1      -7.986  14.926  10.145  1.00  0.00     0.260 C 
HETATM   29  O2  UNL     1      -7.656  15.430   9.081  1.00  0.00    -0.304 OA
ENDBRANCH  20  28
ENDBRANCH  15  20
ENDBRANCH   5   6
ENDBRANCH   1   5
BRANCH   3  30
HETATM   30  C11 UNL     1     -14.426  10.273  14.657  1.00  0.00     0.071 A 
HETATM   31  C12 UNL     1     -15.655   9.847  15.025  1.00  0.00     0.062 A 
HETATM   32  C13 UNL     1     -16.166   8.618  14.607  1.00  0.00     0.043 A 
HETATM   33  C14 UNL     1     -17.365   8.018  14.867  1.00  0.00     0.062 A 
HETATM   34  N12 UNL     1     -15.418   7.845  13.824  1.00  0.00    -0.328 N 
HETATM   35  C15 UNL     1     -17.360   6.806  14.207  1.00  0.00     0.066 A 
HETATM   36  C19 UNL     1     -16.143   6.733  13.573  1.00  0.00     0.127 A 
HETATM   37  C20 UNL     1     -14.206   8.234  13.444  1.00  0.00     0.135 A 
HETATM   38  C21 UNL     1     -13.678   9.421  13.829  1.00  0.00     0.108 A 
BRANCH  35  39
HETATM   39  N8  UNL     1     -18.427   5.861  14.215  1.00  0.00    -0.298 N 
ATOM     40  H8  UNL     1     -18.401   5.052  14.836  1.00  0.00     0.187 HD
BRANCH  39  41
HETATM   41  N9  UNL     1     -19.496   6.060  13.366  1.00  0.00    -0.280 N 
HETATM   42  C16 UNL     1     -20.573   6.652  13.762  1.00  0.00     0.193 A 
HETATM   43  N10 UNL     1     -20.840   7.174  15.056  1.00  0.00    -0.289 N 
HETATM   44  C18 UNL     1     -21.768   6.926  12.976  1.00  0.00     0.295 A 
HETATM   45  C17 UNL     1     -22.138   7.755  15.104  1.00  0.00     0.328 A 
ATOM     46  H10 UNL     1     -20.191   7.137  15.841  1.00  0.00     0.172 HD
HETATM   47  O4  UNL     1     -22.708   8.313  16.097  1.00  0.00    -0.247 OA
HETATM   48  N11 UNL     1     -22.715   7.602  13.815  1.00  0.00    -0.272 N 
ATOM     49  H11 UNL     1     -23.643   7.918  13.534  1.00  0.00     0.174 HD
HETATM   50  O5  UNL     1     -21.920   6.612  11.758  1.00  0.00    -0.264 OA
ATOM     51  H9  UNL     1     -19.435   5.732  12.402  1.00  0.00     0.188 HD
ENDBRANCH  39  41
ENDBRANCH  35  39
BRANCH  38  52
HETATM   52  O6  UNL     1     -12.390   9.795  13.405  1.00  0.00    -0.357 OA
ATOM     53  H6  UNL     1     -12.115  10.703  13.451  1.00  0.00     0.217 HD
ENDBRANCH  38  52
ENDBRANCH   3  30
TORSDOF 11
ENDMDL
