MODEL 1
REMARK VINA RESULT: -9.285508125      0.000      0.000
REMARK  13 active torsions:
REMARK  status: ('A' for Active; 'I' for Inactive)
REMARK    1  A    between atoms: O1_2  and  C2_3 
REMARK    2  A    between atoms: C2_3  and  O2_4 
REMARK    3  A    between atoms: C2_3  and  C3_6 
REMARK    4  A    between atoms: C4_7  and  O3_8 
REMARK    5  A    between atoms: C5_10  and  O4_11 
REMARK    6  A    between atoms: O4_11  and  C6_12 
REMARK    7  A    between atoms: C8_14  and  C9_15 
REMARK    8  A    between atoms: C10_19  and  C11_20 
REMARK    9  A    between atoms: C12_23  and  O10_24 
REMARK   10  A    between atoms: C12_23  and  C13_26 
REMARK   11  A    between atoms: C14_29  and  C15_30 
REMARK   12  A    between atoms: C17_36  and  O17_37 
REMARK   13  A    between atoms: C18_39  and  C19_40 
ROOT
HETATM    1  C6  UNL     1     -15.793  13.296  16.458  1.00  0.00     0.191 C 
HETATM    2  C7  UNL     1     -16.784  14.197  16.471  1.00  0.00     0.117 C 
HETATM    3  C8  UNL     1     -17.820  13.991  17.522  1.00  0.00     0.284 C 
HETATM    4  O7  UNL     1     -18.655  13.003  17.108  1.00  0.00    -0.323 OA
HETATM    5  C10 UNL     1     -18.898  11.969  17.943  1.00  0.00     0.278 C 
HETATM    6  C12 UNL     1     -17.745  11.541  18.805  1.00  0.00     0.250 C 
HETATM    7  C14 UNL     1     -16.566  12.511  18.652  1.00  0.00     0.311 C 
HETATM    8  O15 UNL     1     -15.891  12.304  17.438  1.00  0.00    -0.278 OA
HETATM    9  O16 UNL     1     -17.175  13.775  18.720  1.00  0.00    -0.292 OA
ENDROOT
BRANCH   1  10
HETATM   10  O4  UNL     1     -14.778  13.373  15.541  1.00  0.00    -0.285 OA
BRANCH  10  11
HETATM   11  C5  UNL     1     -14.137  12.247  15.015  1.00  0.00     0.115 A 
HETATM   12  C4  UNL     1     -14.842  11.110  14.720  1.00  0.00     0.116 A 
HETATM   13  C3  UNL     1     -14.204   9.962  14.188  1.00  0.00     0.077 A 
HETATM   14  C18 UNL     1     -12.859  10.041  13.983  1.00  0.00     0.091 A 
HETATM   15  C17 UNL     1     -12.144  11.232  14.297  1.00  0.00     0.086 A 
HETATM   16  C16 UNL     1     -12.782  12.324  14.810  1.00  0.00     0.077 A 
BRANCH  12  17
HETATM   17  O3  UNL     1     -16.224  11.089  14.952  1.00  0.00    -0.357 OA
ATOM     18  H3  UNL     1     -16.753  11.839  14.705  1.00  0.00     0.217 HD
ENDBRANCH  12  17
BRANCH  13  19
HETATM   19  C2  UNL     1     -15.041   8.830  13.915  1.00  0.00     0.192 C 
BRANCH  19  20
HETATM   20  O1  UNL     1     -15.703   7.948  14.705  1.00  0.00    -0.335 OA
HETATM   21  C1  UNL     1     -17.091   7.662  14.590  1.00  0.00     0.212 C 
ENDBRANCH  19  20
BRANCH  19  22
HETATM   22  O2  UNL     1     -15.231   8.556  12.652  1.00  0.00    -0.340 OA
ATOM     23  H2  UNL     1     -15.559   9.317  12.187  1.00  0.00     0.220 HD
ENDBRANCH  19  22
ENDBRANCH  13  19
BRANCH  14  24
HETATM   24  C19 UNL     1     -12.077   8.976  13.456  1.00  0.00     0.213 C 
HETATM   25  O18 UNL     1     -10.865   8.825  13.917  1.00  0.00    -0.644 OA
HETATM   26  O19 UNL     1     -12.370   8.048  12.521  1.00  0.00    -0.644 OA
ENDBRANCH  14  24
BRANCH  15  27
HETATM   27  O17 UNL     1     -10.768  11.313  14.088  1.00  0.00    -0.359 OA
ATOM     28  H17 UNL     1     -10.230  10.574  14.351  1.00  0.00     0.217 HD
ENDBRANCH  15  27
ENDBRANCH  10  11
ENDBRANCH   1  10
BRANCH   3  29
HETATM   29  C9  UNL     1     -18.576  15.268  17.632  1.00  0.00     0.243 C 
HETATM   30  O5  UNL     1     -18.119  16.248  16.982  1.00  0.00    -0.644 OA
HETATM   31  O6  UNL     1     -19.718  15.387  18.401  1.00  0.00    -0.644 OA
ENDBRANCH   3  29
BRANCH   7  32
HETATM   32  C15 UNL     1     -15.619  12.304  19.759  1.00  0.00     0.243 C 
HETATM   33  O13 UNL     1     -14.499  11.760  19.580  1.00  0.00    -0.644 OA
HETATM   34  O14 UNL     1     -15.915  12.699  21.067  1.00  0.00    -0.644 OA
ENDBRANCH   7  32
BRANCH   6  35
HETATM   35  O10 UNL     1     -18.078  11.565  20.159  1.00  0.00    -0.371 OA
ATOM     36  H10 UNL     1     -17.334  11.343  20.707  1.00  0.00     0.211 HD
ENDBRANCH   6  35
BRANCH   6  37
HETATM   37  C13 UNL     1     -17.301  10.148  18.501  1.00  0.00     0.218 C 
HETATM   38  O11 UNL     1     -17.742   9.172  19.168  1.00  0.00    -0.645 OA
HETATM   39  O12 UNL     1     -16.398   9.850  17.491  1.00  0.00    -0.645 OA
ENDBRANCH   6  37
BRANCH   5  40
HETATM   40  C11 UNL     1     -19.458  10.835  17.162  1.00  0.00     0.207 C 
HETATM   41  O8  UNL     1     -19.033  10.591  16.005  1.00  0.00    -0.646 OA
HETATM   42  O9  UNL     1     -20.455   9.992  17.636  1.00  0.00    -0.646 OA
ENDBRANCH   5  40
TORSDOF 13
ENDMDL
MODEL 2
REMARK VINA RESULT: -9.156479016      2.112      5.337
REMARK  13 active torsions:
REMARK  status: ('A' for Active; 'I' for Inactive)
REMARK    1  A    between atoms: O1_2  and  C2_3 
REMARK    2  A    between atoms: C2_3  and  O2_4 
REMARK    3  A    between atoms: C2_3  and  C3_6 
REMARK    4  A    between atoms: C4_7  and  O3_8 
REMARK    5  A    between atoms: C5_10  and  O4_11 
REMARK    6  A    between atoms: O4_11  and  C6_12 
REMARK    7  A    between atoms: C8_14  and  C9_15 
REMARK    8  A    between atoms: C10_19  and  C11_20 
REMARK    9  A    between atoms: C12_23  and  O10_24 
REMARK   10  A    between atoms: C12_23  and  C13_26 
REMARK   11  A    between atoms: C14_29  and  C15_30 
REMARK   12  A    between atoms: C17_36  and  O17_37 
REMARK   13  A    between atoms: C18_39  and  C19_40 
ROOT
HETATM    1  C6  UNL     1     -16.730   8.671  14.712  1.00  0.00     0.191 C 
HETATM    2  C7  UNL     1     -16.514   8.183  15.940  1.00  0.00     0.117 C 
HETATM    3  C8  UNL     1     -17.674   8.264  16.872  1.00  0.00     0.284 C 
HETATM    4  O7  UNL     1     -17.757   9.538  17.338  1.00  0.00    -0.323 OA
HETATM    5  C10 UNL     1     -18.940  10.183  17.249  1.00  0.00     0.278 C 
HETATM    6  C12 UNL     1     -19.766   9.870  16.034  1.00  0.00     0.250 C 
HETATM    7  C14 UNL     1     -19.130   8.729  15.228  1.00  0.00     0.311 C 
HETATM    8  O15 UNL     1     -18.015   9.180  14.502  1.00  0.00    -0.278 OA
HETATM    9  O16 UNL     1     -18.785   7.788  16.212  1.00  0.00    -0.292 OA
ENDROOT
BRANCH   1  10
HETATM   10  O4  UNL     1     -15.744   8.657  13.760  1.00  0.00    -0.285 OA
BRANCH  10  11
HETATM   11  C5  UNL     1     -14.548   9.370  13.889  1.00  0.00     0.115 A 
HETATM   12  C4  UNL     1     -14.525  10.601  14.488  1.00  0.00     0.116 A 
HETATM   13  C3  UNL     1     -13.320  11.334  14.624  1.00  0.00     0.077 A 
HETATM   14  C18 UNL     1     -12.187  10.758  14.131  1.00  0.00     0.091 A 
HETATM   15  C17 UNL     1     -12.233   9.477  13.510  1.00  0.00     0.086 A 
HETATM   16  C16 UNL     1     -13.407   8.792  13.392  1.00  0.00     0.077 A 
BRANCH  12  17
HETATM   17  O3  UNL     1     -15.722  11.141  14.976  1.00  0.00    -0.357 OA
ATOM     18  H3  UNL     1     -16.473  11.217  14.399  1.00  0.00     0.217 HD
ENDBRANCH  12  17
BRANCH  13  19
HETATM   19  C2  UNL     1     -13.413  12.611  15.269  1.00  0.00     0.192 C 
BRANCH  19  20
HETATM   20  O1  UNL     1     -13.068  13.870  14.901  1.00  0.00    -0.335 OA
HETATM   21  C1  UNL     1     -13.992  14.940  14.758  1.00  0.00     0.212 C 
ENDBRANCH  19  20
BRANCH  19  22
HETATM   22  O2  UNL     1     -13.936  12.605  16.467  1.00  0.00    -0.340 OA
ATOM     23  H2  UNL     1     -14.833  12.916  16.446  1.00  0.00     0.220 HD
ENDBRANCH  19  22
ENDBRANCH  13  19
BRANCH  14  24
HETATM   24  C19 UNL     1     -10.902  11.367  14.191  1.00  0.00     0.213 C 
HETATM   25  O18 UNL     1      -9.917  10.661  14.677  1.00  0.00    -0.644 OA
HETATM   26  O19 UNL     1     -10.493  12.598  13.820  1.00  0.00    -0.644 OA
ENDBRANCH  14  24
BRANCH  15  27
HETATM   27  O17 UNL     1     -11.074   8.888  13.006  1.00  0.00    -0.359 OA
ATOM     28  H17 UNL     1     -10.474   9.433  12.509  1.00  0.00     0.217 HD
ENDBRANCH  15  27
ENDBRANCH  10  11
ENDBRANCH   1  10
BRANCH   3  29
HETATM   29  C9  UNL     1     -17.381   7.340  18.001  1.00  0.00     0.243 C 
HETATM   30  O5  UNL     1     -16.709   6.309  17.721  1.00  0.00    -0.644 OA
HETATM   31  O6  UNL     1     -17.815   7.585  19.290  1.00  0.00    -0.644 OA
ENDBRANCH   3  29
BRANCH   7  32
HETATM   32  C15 UNL     1     -20.120   8.190  14.283  1.00  0.00     0.243 C 
HETATM   33  O13 UNL     1     -20.364   8.753  13.185  1.00  0.00    -0.644 OA
HETATM   34  O14 UNL     1     -20.843   7.024  14.556  1.00  0.00    -0.644 OA
ENDBRANCH   7  32
BRANCH   6  35
HETATM   35  O10 UNL     1     -21.040   9.419  16.379  1.00  0.00    -0.371 OA
ATOM     36  H10 UNL     1     -21.004   8.601  16.861  1.00  0.00     0.211 HD
ENDBRANCH   6  35
BRANCH   6  37
HETATM   37  C13 UNL     1     -19.960  11.065  15.161  1.00  0.00     0.218 C 
HETATM   38  O11 UNL     1     -21.084  11.633  15.088  1.00  0.00    -0.645 OA
HETATM   39  O12 UNL     1     -18.940  11.610  14.394  1.00  0.00    -0.645 OA
ENDBRANCH   6  37
BRANCH   5  40
HETATM   40  C11 UNL     1     -18.710  11.643  17.402  1.00  0.00     0.207 C 
HETATM   41  O8  UNL     1     -17.605  12.148  17.077  1.00  0.00    -0.646 OA
HETATM   42  O9  UNL     1     -19.662  12.526  17.895  1.00  0.00    -0.646 OA
ENDBRANCH   5  40
TORSDOF 13
ENDMDL
MODEL 3
REMARK VINA RESULT: -9.105316931      2.390      6.864
REMARK  13 active torsions:
REMARK  status: ('A' for Active; 'I' for Inactive)
REMARK    1  A    between atoms: O1_2  and  C2_3 
REMARK    2  A    between atoms: C2_3  and  O2_4 
REMARK    3  A    between atoms: C2_3  and  C3_6 
REMARK    4  A    between atoms: C4_7  and  O3_8 
REMARK    5  A    between atoms: C5_10  and  O4_11 
REMARK    6  A    between atoms: O4_11  and  C6_12 
REMARK    7  A    between atoms: C8_14  and  C9_15 
REMARK    8  A    between atoms: C10_19  and  C11_20 
REMARK    9  A    between atoms: C12_23  and  O10_24 
REMARK   10  A    between atoms: C12_23  and  C13_26 
REMARK   11  A    between atoms: C14_29  and  C15_30 
REMARK   12  A    between atoms: C17_36  and  O17_37 
REMARK   13  A    between atoms: C18_39  and  C19_40 
ROOT
HETATM    1  C6  UNL     1     -19.502  10.032  16.168  1.00  0.00     0.191 C 
HETATM    2  C7  UNL     1     -20.374   9.240  15.531  1.00  0.00     0.117 C 
HETATM    3  C8  UNL     1     -19.792   8.008  14.927  1.00  0.00     0.284 C 
HETATM    4  O7  UNL     1     -19.179   8.353  13.764  1.00  0.00    -0.323 OA
HETATM    5  C10 UNL     1     -17.900   7.964  13.567  1.00  0.00     0.278 C 
HETATM    6  C12 UNL     1     -17.029   7.938  14.791  1.00  0.00     0.250 C 
HETATM    7  C14 UNL     1     -17.860   8.211  16.052  1.00  0.00     0.311 C 
HETATM    8  O15 UNL     1     -18.181   9.573  16.164  1.00  0.00    -0.278 OA
HETATM    9  O16 UNL     1     -18.996   7.403  15.874  1.00  0.00    -0.292 OA
ENDROOT
BRANCH   1  10
HETATM   10  O4  UNL     1     -19.909  11.195  16.767  1.00  0.00    -0.285 OA
BRANCH  10  11
HETATM   11  C5  UNL     1     -19.042  12.257  17.043  1.00  0.00     0.115 A 
HETATM   12  C4  UNL     1     -18.221  12.227  18.139  1.00  0.00     0.116 A 
HETATM   13  C3  UNL     1     -17.337  13.295  18.430  1.00  0.00     0.077 A 
HETATM   14  C18 UNL     1     -17.342  14.354  17.570  1.00  0.00     0.091 A 
HETATM   15  C17 UNL     1     -18.204  14.366  16.437  1.00  0.00     0.086 A 
HETATM   16  C16 UNL     1     -19.046  13.323  16.179  1.00  0.00     0.077 A 
BRANCH  12  17
HETATM   17  O3  UNL     1     -18.260  11.111  18.986  1.00  0.00    -0.357 OA
ATOM     18  H3  UNL     1     -19.054  10.918  19.471  1.00  0.00     0.217 HD
ENDBRANCH  12  17
BRANCH  13  19
HETATM   19  C2  UNL     1     -16.523  13.156  19.603  1.00  0.00     0.192 C 
BRANCH  19  20
HETATM   20  O1  UNL     1     -15.271  12.682  19.818  1.00  0.00    -0.335 OA
HETATM   21  C1  UNL     1     -14.669  11.646  19.053  1.00  0.00     0.212 C 
ENDBRANCH  19  20
BRANCH  19  22
HETATM   22  O2  UNL     1     -17.066  13.562  20.720  1.00  0.00    -0.340 OA
ATOM     23  H2  UNL     1     -18.013  13.504  20.677  1.00  0.00     0.220 HD
ENDBRANCH  19  22
ENDBRANCH  13  19
BRANCH  14  24
HETATM   24  C19 UNL     1     -16.514  15.501  17.725  1.00  0.00     0.213 C 
HETATM   25  O18 UNL     1     -17.053  16.575  18.234  1.00  0.00    -0.644 OA
HETATM   26  O19 UNL     1     -15.212  15.693  17.428  1.00  0.00    -0.644 OA
ENDBRANCH  14  24
BRANCH  15  27
HETATM   27  O17 UNL     1     -18.208  15.448  15.557  1.00  0.00    -0.359 OA
ATOM     28  H17 UNL     1     -17.384  15.886  15.381  1.00  0.00     0.217 HD
ENDBRANCH  15  27
ENDBRANCH  10  11
ENDBRANCH   1  10
BRANCH   3  29
HETATM   29  C9  UNL     1     -20.931   7.096  14.635  1.00  0.00     0.243 C 
HETATM   30  O5  UNL     1     -21.955   7.228  15.361  1.00  0.00    -0.644 OA
HETATM   31  O6  UNL     1     -20.884   6.151  13.628  1.00  0.00    -0.644 OA
ENDBRANCH   3  29
BRANCH   7  32
HETATM   32  C15 UNL     1     -17.089   7.810  17.239  1.00  0.00     0.243 C 
HETATM   33  O13 UNL     1     -16.644   8.655  18.057  1.00  0.00    -0.644 OA
HETATM   34  O14 UNL     1     -16.810   6.469  17.519  1.00  0.00    -0.644 OA
ENDBRANCH   7  32
BRANCH   6  35
HETATM   35  O10 UNL     1     -16.454   6.682  14.986  1.00  0.00    -0.371 OA
ATOM     36  H10 UNL     1     -15.960   6.645  15.797  1.00  0.00     0.211 HD
ENDBRANCH   6  35
BRANCH   6  37
HETATM   37  C13 UNL     1     -15.902   8.913  14.702  1.00  0.00     0.218 C 
HETATM   38  O11 UNL     1     -14.758   8.541  14.325  1.00  0.00    -0.645 OA
HETATM   39  O12 UNL     1     -16.043  10.256  15.021  1.00  0.00    -0.645 OA
ENDBRANCH   6  37
BRANCH   5  40
HETATM   40  C11 UNL     1     -17.305   8.784  12.480  1.00  0.00     0.207 C 
HETATM   41  O8  UNL     1     -17.662   9.979  12.318  1.00  0.00    -0.646 OA
HETATM   42  O9  UNL     1     -16.344   8.311  11.596  1.00  0.00    -0.646 OA
ENDBRANCH   5  40
TORSDOF 13
ENDMDL
MODEL 4
REMARK VINA RESULT: -9.070395936      2.848      7.149
REMARK  13 active torsions:
REMARK  status: ('A' for Active; 'I' for Inactive)
REMARK    1  A    between atoms: O1_2  and  C2_3 
REMARK    2  A    between atoms: C2_3  and  O2_4 
REMARK    3  A    between atoms: C2_3  and  C3_6 
REMARK    4  A    between atoms: C4_7  and  O3_8 
REMARK    5  A    between atoms: C5_10  and  O4_11 
REMARK    6  A    between atoms: O4_11  and  C6_12 
REMARK    7  A    between atoms: C8_14  and  C9_15 
REMARK    8  A    between atoms: C10_19  and  C11_20 
REMARK    9  A    between atoms: C12_23  and  O10_24 
REMARK   10  A    between atoms: C12_23  and  C13_26 
REMARK   11  A    between atoms: C14_29  and  C15_30 
REMARK   12  A    between atoms: C17_36  and  O17_37 
REMARK   13  A    between atoms: C18_39  and  C19_40 
ROOT
HETATM    1  C6  UNL     1     -18.267   8.380  15.923  1.00  0.00     0.191 C 
HETATM    2  C7  UNL     1     -18.502   7.154  15.438  1.00  0.00     0.117 C 
HETATM    3  C8  UNL     1     -19.377   7.101  14.233  1.00  0.00     0.284 C 
HETATM    4  O7  UNL     1     -20.667   7.244  14.636  1.00  0.00    -0.323 OA
HETATM    5  C10 UNL     1     -21.432   8.182  14.037  1.00  0.00     0.278 C 
HETATM    6  C12 UNL     1     -20.722   9.443  13.633  1.00  0.00     0.250 C 
HETATM    7  C14 UNL     1     -19.210   9.307  13.854  1.00  0.00     0.311 C 
HETATM    8  O15 UNL     1     -18.883   9.417  15.215  1.00  0.00    -0.278 OA
HETATM    9  O16 UNL     1     -18.918   8.037  13.332  1.00  0.00    -0.292 OA
ENDROOT
BRANCH   1  10
HETATM   10  O4  UNL     1     -17.479   8.566  17.028  1.00  0.00    -0.285 OA
BRANCH  10  11
HETATM   11  C5  UNL     1     -17.225   9.825  17.582  1.00  0.00     0.115 A 
HETATM   12  C4  UNL     1     -16.460  10.745  16.915  1.00  0.00     0.116 A 
HETATM   13  C3  UNL     1     -16.194  12.023  17.466  1.00  0.00     0.077 A 
HETATM   14  C18 UNL     1     -16.735  12.295  18.687  1.00  0.00     0.091 A 
HETATM   15  C17 UNL     1     -17.527  11.324  19.364  1.00  0.00     0.086 A 
HETATM   16  C16 UNL     1     -17.768  10.099  18.812  1.00  0.00     0.077 A 
BRANCH  12  17
HETATM   17  O3  UNL     1     -15.931  10.407  15.662  1.00  0.00    -0.357 OA
ATOM     18  H3  UNL     1     -16.488  10.443  14.893  1.00  0.00     0.217 HD
ENDBRANCH  12  17
BRANCH  13  19
HETATM   19  C2  UNL     1     -15.382  12.906  16.680  1.00  0.00     0.192 C 
BRANCH  19  20
HETATM   20  O1  UNL     1     -15.626  14.078  16.044  1.00  0.00    -0.335 OA
HETATM   21  C1  UNL     1     -16.910  14.488  15.592  1.00  0.00     0.212 C 
ENDBRANCH  19  20
BRANCH  19  22
HETATM   22  O2  UNL     1     -14.138  12.540  16.519  1.00  0.00    -0.340 OA
ATOM     23  H2  UNL     1     -13.575  12.966  17.154  1.00  0.00     0.220 HD
ENDBRANCH  19  22
ENDBRANCH  13  19
BRANCH  14  24
HETATM   24  C19 UNL     1     -16.560  13.530  19.371  1.00  0.00     0.213 C 
HETATM   25  O18 UNL     1     -15.709  13.563  20.360  1.00  0.00    -0.644 OA
HETATM   26  O19 UNL     1     -17.141  14.733  19.177  1.00  0.00    -0.644 OA
ENDBRANCH  14  24
BRANCH  15  27
HETATM   27  O17 UNL     1     -18.080  11.602  20.614  1.00  0.00    -0.359 OA
ATOM     28  H17 UNL     1     -17.492  11.832  21.324  1.00  0.00     0.217 HD
ENDBRANCH  15  27
ENDBRANCH  10  11
ENDBRANCH   1  10
BRANCH   3  29
HETATM   29  C9  UNL     1     -19.192   5.754  13.629  1.00  0.00     0.243 C 
HETATM   30  O5  UNL     1     -18.009   5.317  13.587  1.00  0.00    -0.644 OA
HETATM   31  O6  UNL     1     -20.248   5.011  13.137  1.00  0.00    -0.644 OA
ENDBRANCH   3  29
BRANCH   7  32
HETATM   32  C15 UNL     1     -18.512  10.372  13.115  1.00  0.00     0.243 C 
HETATM   33  O13 UNL     1     -18.269  10.276  11.885  1.00  0.00    -0.644 OA
HETATM   34  O14 UNL     1     -18.084  11.546  13.742  1.00  0.00    -0.644 OA
ENDBRANCH   7  32
BRANCH   6  35
HETATM   35  O10 UNL     1     -20.879   9.710  12.273  1.00  0.00    -0.371 OA
ATOM     36  H10 UNL     1     -20.767  10.634  12.081  1.00  0.00     0.211 HD
ENDBRANCH   6  35
BRANCH   6  37
HETATM   37  C13 UNL     1     -21.238  10.639  14.363  1.00  0.00     0.218 C 
HETATM   38  O11 UNL     1     -21.889  11.533  13.755  1.00  0.00    -0.645 OA
HETATM   39  O12 UNL     1     -21.039  10.834  15.722  1.00  0.00    -0.645 OA
ENDBRANCH   6  37
BRANCH   5  40
HETATM   40  C11 UNL     1     -22.616   8.461  14.889  1.00  0.00     0.207 C 
HETATM   41  O8  UNL     1     -22.598   8.175  16.113  1.00  0.00    -0.646 OA
HETATM   42  O9  UNL     1     -23.788   9.037  14.415  1.00  0.00    -0.646 OA
ENDBRANCH   5  40
TORSDOF 13
ENDMDL
MODEL 5
REMARK VINA RESULT: -8.964175196      2.408      7.523
REMARK  13 active torsions:
REMARK  status: ('A' for Active; 'I' for Inactive)
REMARK    1  A    between atoms: O1_2  and  C2_3 
REMARK    2  A    between atoms: C2_3  and  O2_4 
REMARK    3  A    between atoms: C2_3  and  C3_6 
REMARK    4  A    between atoms: C4_7  and  O3_8 
REMARK    5  A    between atoms: C5_10  and  O4_11 
REMARK    6  A    between atoms: O4_11  and  C6_12 
REMARK    7  A    between atoms: C8_14  and  C9_15 
REMARK    8  A    between atoms: C10_19  and  C11_20 
REMARK    9  A    between atoms: C12_23  and  O10_24 
REMARK   10  A    between atoms: C12_23  and  C13_26 
REMARK   11  A    between atoms: C14_29  and  C15_30 
REMARK   12  A    between atoms: C17_36  and  O17_37 
REMARK   13  A    between atoms: C18_39  and  C19_40 
ROOT
HETATM    1  C6  UNL     1     -19.791   8.615  15.716  1.00  0.00     0.191 C 
HETATM    2  C7  UNL     1     -20.428   7.804  14.863  1.00  0.00     0.117 C 
HETATM    3  C8  UNL     1     -19.560   6.833  14.137  1.00  0.00     0.284 C 
HETATM    4  O7  UNL     1     -18.939   7.492  13.124  1.00  0.00    -0.323 OA
HETATM    5  C10 UNL     1     -17.596   7.391  13.015  1.00  0.00     0.278 C 
HETATM    6  C12 UNL     1     -16.840   7.305  14.310  1.00  0.00     0.250 C 
HETATM    7  C14 UNL     1     -17.807   7.184  15.494  1.00  0.00     0.311 C 
HETATM    8  O15 UNL     1     -18.408   8.420  15.788  1.00  0.00    -0.278 OA
HETATM    9  O16 UNL     1     -18.736   6.225  15.059  1.00  0.00    -0.292 OA
ENDROOT
BRANCH   1  10
HETATM   10  O4  UNL     1     -20.473   9.553  16.445  1.00  0.00    -0.285 OA
BRANCH  10  11
HETATM   11  C5  UNL     1     -19.908  10.766  16.849  1.00  0.00     0.115 A 
HETATM   12  C4  UNL     1     -18.983  10.810  17.859  1.00  0.00     0.116 A 
HETATM   13  C3  UNL     1     -18.403  12.033  18.277  1.00  0.00     0.077 A 
HETATM   14  C18 UNL     1     -18.806  13.163  17.629  1.00  0.00     0.091 A 
HETATM   15  C17 UNL     1     -19.769  13.096  16.582  1.00  0.00     0.086 A 
HETATM   16  C16 UNL     1     -20.313  11.905  16.198  1.00  0.00     0.077 A 
BRANCH  12  17
HETATM   17  O3  UNL     1     -18.608   9.615  18.487  1.00  0.00    -0.357 OA
ATOM     18  H3  UNL     1     -18.517   9.590  19.432  1.00  0.00     0.217 HD
ENDBRANCH  12  17
BRANCH  13  19
HETATM   19  C2  UNL     1     -17.446  11.959  19.343  1.00  0.00     0.192 C 
BRANCH  19  20
HETATM   20  O1  UNL     1     -16.101  12.116  19.400  1.00  0.00    -0.335 OA
HETATM   21  C1  UNL     1     -15.192  11.555  18.461  1.00  0.00     0.212 C 
ENDBRANCH  19  20
BRANCH  19  22
HETATM   22  O2  UNL     1     -17.933  11.688  20.525  1.00  0.00    -0.340 OA
ATOM     23  H2  UNL     1     -18.882  11.739  20.520  1.00  0.00     0.220 HD
ENDBRANCH  19  22
ENDBRANCH  13  19
BRANCH  14  24
HETATM   24  C19 UNL     1     -18.318  14.464  17.933  1.00  0.00     0.213 C 
HETATM   25  O18 UNL     1     -19.154  15.321  18.453  1.00  0.00    -0.644 OA
HETATM   26  O19 UNL     1     -17.091  15.003  17.775  1.00  0.00    -0.644 OA
ENDBRANCH  14  24
BRANCH  15  27
HETATM   27  O17 UNL     1     -20.181  14.252  15.919  1.00  0.00    -0.359 OA
ATOM     28  H17 UNL     1     -21.109  14.362  15.744  1.00  0.00     0.217 HD
ENDBRANCH  15  27
ENDBRANCH  10  11
ENDBRANCH   1  10
BRANCH   3  29
HETATM   29  C9  UNL     1     -20.462   5.792  13.572  1.00  0.00     0.243 C 
HETATM   30  O5  UNL     1     -19.903   4.797  13.035  1.00  0.00    -0.644 OA
HETATM   31  O6  UNL     1     -21.839   5.898  13.626  1.00  0.00    -0.644 OA
ENDBRANCH   3  29
BRANCH   7  32
HETATM   32  C15 UNL     1     -17.069   6.726  16.681  1.00  0.00     0.243 C 
HETATM   33  O13 UNL     1     -16.749   5.520  16.838  1.00  0.00    -0.644 OA
HETATM   34  O14 UNL     1     -16.684   7.607  17.697  1.00  0.00    -0.644 OA
ENDBRANCH   7  32
BRANCH   6  35
HETATM   35  O10 UNL     1     -16.038   6.165  14.363  1.00  0.00    -0.371 OA
ATOM     36  H10 UNL     1     -16.003   5.721  13.524  1.00  0.00     0.211 HD
ENDBRANCH   6  35
BRANCH   6  37
HETATM   37  C13 UNL     1     -15.932   8.473  14.511  1.00  0.00     0.218 C 
HETATM   38  O11 UNL     1     -14.715   8.406  14.186  1.00  0.00    -0.645 OA
HETATM   39  O12 UNL     1     -16.362   9.676  15.054  1.00  0.00    -0.645 OA
ENDBRANCH   6  37
BRANCH   5  40
HETATM   40  C11 UNL     1     -17.095   8.492  12.151  1.00  0.00     0.207 C 
HETATM   41  O8  UNL     1     -16.184   8.275  11.312  1.00  0.00    -0.646 OA
HETATM   42  O9  UNL     1     -17.577   9.793  12.204  1.00  0.00    -0.646 OA
ENDBRANCH   5  40
TORSDOF 13
ENDMDL
