MODEL 1
REMARK VINA RESULT: -7.350433819      0.000      0.000
REMARK  7 active torsions:
REMARK  status: ('A' for Active; 'I' for Inactive)
REMARK    1  A    between atoms: N1_1  and  C1_5 
REMARK    2  A    between atoms: C1_5  and  C2_6 
REMARK    3  A    between atoms: C1_5  and  C10_14 
REMARK    4  A    between atoms: C3_7  and  C4_8 
REMARK    5  A    between atoms: C10_14  and  C11_15 
REMARK    6  A    between atoms: C10_14  and  N2_18 
REMARK    7  A    between atoms: C11_15  and  O1_16 
ROOT
HETATM    1  C1  UNL     1      40.076  10.668  52.098  1.00  0.00     0.241 C 
ENDROOT
BRANCH   1   2
HETATM    2  N1  UNL     1      40.381  12.026  51.819  1.00  0.00    -0.070 N 
ATOM      3  H13 UNL     1      39.566  12.570  51.536  1.00  0.00     0.275 HD
ATOM      4  H12 UNL     1      40.613  12.564  52.653  1.00  0.00     0.275 HD
ATOM      5  H11 UNL     1      41.126  12.027  51.122  1.00  0.00     0.275 HD
ENDBRANCH   1   2
BRANCH   1   6
HETATM    6  C2  UNL     1      38.564  10.539  52.075  1.00  0.00     0.009 C 
HETATM    7  C3  UNL     1      37.801  11.550  52.403  1.00  0.00     0.009 C 
BRANCH   7   8
HETATM    8  C4  UNL     1      36.364  11.465  52.394  1.00  0.00    -0.036 A 
HETATM    9  C5  UNL     1      35.741  10.309  51.950  1.00  0.00     0.011 A 
HETATM   10  C6  UNL     1      34.379  10.132  51.902  1.00  0.00     0.001 A 
HETATM   11  C7  UNL     1      33.593  11.182  52.328  1.00  0.00     0.000 A 
HETATM   12  C8  UNL     1      34.127  12.368  52.784  1.00  0.00     0.001 A 
HETATM   13  C9  UNL     1      35.511  12.471  52.802  1.00  0.00     0.011 A 
ENDBRANCH   7   8
ENDBRANCH   1   6
BRANCH   1  14
HETATM   14  C10 UNL     1      40.570   9.639  51.136  1.00  0.00     0.280 C 
BRANCH  14  15
HETATM   15  C11 UNL     1      39.926   9.989  49.779  1.00  0.00     0.202 C 
BRANCH  15  16
HETATM   16  O1  UNL     1      40.733  10.869  49.051  1.00  0.00    -0.399 OA
ATOM     17  H1  UNL     1      41.523  11.085  49.532  1.00  0.00     0.209 HD
ENDBRANCH  15  16
ENDBRANCH  14  15
BRANCH  14  18
HETATM   18  N2  UNL     1      40.429   8.288  51.460  1.00  0.00     0.097 N 
HETATM   19  C12 UNL     1      40.854   7.812  52.724  1.00  0.00     0.275 C 
HETATM   20  C13 UNL     1      42.082   7.220  52.012  1.00  0.00     0.060 C 
HETATM   21  C14 UNL     1      41.177   7.282  50.797  1.00  0.00     0.275 C 
ENDBRANCH  14  18
ENDBRANCH   1  14
TORSDOF 7
ENDMDL
MODEL 2
REMARK VINA RESULT: -7.344523042      2.087      2.700
REMARK  7 active torsions:
REMARK  status: ('A' for Active; 'I' for Inactive)
REMARK    1  A    between atoms: N1_1  and  C1_5 
REMARK    2  A    between atoms: C1_5  and  C2_6 
REMARK    3  A    between atoms: C1_5  and  C10_14 
REMARK    4  A    between atoms: C3_7  and  C4_8 
REMARK    5  A    between atoms: C10_14  and  C11_15 
REMARK    6  A    between atoms: C10_14  and  N2_18 
REMARK    7  A    between atoms: C11_15  and  O1_16 
ROOT
HETATM    1  C1  UNL     1      40.580  10.202  50.761  1.00  0.00     0.241 C 
ENDROOT
BRANCH   1   2
HETATM    2  N1  UNL     1      40.327  10.007  49.378  1.00  0.00    -0.070 N 
ATOM      3  H13 UNL     1      39.725   9.207  49.189  1.00  0.00     0.275 HD
ATOM      4  H12 UNL     1      39.721  10.723  48.977  1.00  0.00     0.275 HD
ATOM      5  H11 UNL     1      41.234   9.945  48.916  1.00  0.00     0.275 HD
ENDBRANCH   1   2
BRANCH   1   6
HETATM    6  C2  UNL     1      39.239  10.142  51.470  1.00  0.00     0.009 C 
HETATM    7  C3  UNL     1      38.297  11.006  51.194  1.00  0.00     0.009 C 
BRANCH   7   8
HETATM    8  C4  UNL     1      37.013  10.980  51.846  1.00  0.00    -0.036 A 
HETATM    9  C5  UNL     1      36.751  11.848  52.894  1.00  0.00     0.011 A 
HETATM   10  C6  UNL     1      35.560  11.899  53.578  1.00  0.00     0.001 A 
HETATM   11  C7  UNL     1      34.570  11.023  53.183  1.00  0.00     0.000 A 
HETATM   12  C8  UNL     1      34.744  10.126  52.152  1.00  0.00     0.001 A 
HETATM   13  C9  UNL     1      35.975  10.135  51.509  1.00  0.00     0.011 A 
ENDBRANCH   7   8
ENDBRANCH   1   6
BRANCH   1  14
HETATM   14  C10 UNL     1      41.433   9.192  51.455  1.00  0.00     0.280 C 
BRANCH  14  15
HETATM   15  C11 UNL     1      40.516   8.502  52.484  1.00  0.00     0.202 C 
BRANCH  15  16
HETATM   16  O1  UNL     1      40.768   7.128  52.542  1.00  0.00    -0.399 OA
ATOM     17  H1  UNL     1      40.107   6.681  53.058  1.00  0.00     0.209 HD
ENDBRANCH  15  16
ENDBRANCH  14  15
BRANCH  14  18
HETATM   18  N2  UNL     1      42.647   9.601  52.011  1.00  0.00     0.097 N 
HETATM   19  C12 UNL     1      43.490  10.491  51.304  1.00  0.00     0.275 C 
HETATM   20  C13 UNL     1      44.377   9.280  50.973  1.00  0.00     0.060 C 
HETATM   21  C14 UNL     1      43.719   8.694  52.207  1.00  0.00     0.275 C 
ENDBRANCH  14  18
ENDBRANCH   1  14
TORSDOF 7
ENDMDL
MODEL 3
REMARK VINA RESULT: -7.338386794      2.077      2.458
REMARK  7 active torsions:
REMARK  status: ('A' for Active; 'I' for Inactive)
REMARK    1  A    between atoms: N1_1  and  C1_5 
REMARK    2  A    between atoms: C1_5  and  C2_6 
REMARK    3  A    between atoms: C1_5  and  C10_14 
REMARK    4  A    between atoms: C3_7  and  C4_8 
REMARK    5  A    between atoms: C10_14  and  C11_15 
REMARK    6  A    between atoms: C10_14  and  N2_18 
REMARK    7  A    between atoms: C11_15  and  O1_16 
ROOT
HETATM    1  C1  UNL     1      40.541  10.207  50.763  1.00  0.00     0.241 C 
ENDROOT
BRANCH   1   2
HETATM    2  N1  UNL     1      40.290  10.008  49.380  1.00  0.00    -0.070 N 
ATOM      3  H13 UNL     1      40.221   9.024  49.123  1.00  0.00     0.275 HD
ATOM      4  H12 UNL     1      39.348  10.282  49.101  1.00  0.00     0.275 HD
ATOM      5  H11 UNL     1      41.019  10.506  48.871  1.00  0.00     0.275 HD
ENDBRANCH   1   2
BRANCH   1   6
HETATM    6  C2  UNL     1      39.200  10.146  51.471  1.00  0.00     0.009 C 
HETATM    7  C3  UNL     1      38.282  11.050  51.245  1.00  0.00     0.009 C 
BRANCH   7   8
HETATM    8  C4  UNL     1      36.998  11.024  51.897  1.00  0.00    -0.036 A 
HETATM    9  C5  UNL     1      36.045  10.095  51.513  1.00  0.00     0.011 A 
HETATM   10  C6  UNL     1      34.794   9.992  52.073  1.00  0.00     0.001 A 
HETATM   11  C7  UNL     1      34.482  10.878  53.083  1.00  0.00     0.000 A 
HETATM   12  C8  UNL     1      35.369  11.834  53.528  1.00  0.00     0.001 A 
HETATM   13  C9  UNL     1      36.613  11.876  52.913  1.00  0.00     0.011 A 
ENDBRANCH   7   8
ENDBRANCH   1   6
BRANCH   1  14
HETATM   14  C10 UNL     1      41.396   9.202  51.460  1.00  0.00     0.280 C 
BRANCH  14  15
HETATM   15  C11 UNL     1      40.483   8.523  52.501  1.00  0.00     0.202 C 
BRANCH  15  16
HETATM   16  O1  UNL     1      40.764   7.156  52.601  1.00  0.00    -0.399 OA
ATOM     17  H1  UNL     1      40.084   6.703  53.085  1.00  0.00     0.209 HD
ENDBRANCH  15  16
ENDBRANCH  14  15
BRANCH  14  18
HETATM   18  N2  UNL     1      42.615   9.613  52.006  1.00  0.00     0.097 N 
HETATM   19  C12 UNL     1      43.449  10.506  51.292  1.00  0.00     0.275 C 
HETATM   20  C13 UNL     1      44.336   9.296  50.951  1.00  0.00     0.060 C 
HETATM   21  C14 UNL     1      43.690   8.708  52.191  1.00  0.00     0.275 C 
ENDBRANCH  14  18
ENDBRANCH   1  14
TORSDOF 7
ENDMDL
MODEL 4
REMARK VINA RESULT: -7.323879733      0.167      1.163
REMARK  7 active torsions:
REMARK  status: ('A' for Active; 'I' for Inactive)
REMARK    1  A    between atoms: N1_1  and  C1_5 
REMARK    2  A    between atoms: C1_5  and  C2_6 
REMARK    3  A    between atoms: C1_5  and  C10_14 
REMARK    4  A    between atoms: C3_7  and  C4_8 
REMARK    5  A    between atoms: C10_14  and  C11_15 
REMARK    6  A    between atoms: C10_14  and  N2_18 
REMARK    7  A    between atoms: C11_15  and  O1_16 
ROOT
HETATM    1  C1  UNL     1      40.096  10.580  52.070  1.00  0.00     0.241 C 
ENDROOT
BRANCH   1   2
HETATM    2  N1  UNL     1      40.385  11.926  51.726  1.00  0.00    -0.070 N 
ATOM      3  H13 UNL     1      39.560  12.454  51.442  1.00  0.00     0.275 HD
ATOM      4  H12 UNL     1      40.636  12.501  52.530  1.00  0.00     0.275 HD
ATOM      5  H11 UNL     1      41.111  11.901  51.010  1.00  0.00     0.275 HD
ENDBRANCH   1   2
BRANCH   1   6
HETATM    6  C2  UNL     1      38.584  10.438  52.074  1.00  0.00     0.009 C 
HETATM    7  C3  UNL     1      37.816  11.466  52.327  1.00  0.00     0.009 C 
BRANCH   7   8
HETATM    8  C4  UNL     1      36.380  11.370  52.339  1.00  0.00    -0.036 A 
HETATM    9  C5  UNL     1      35.618  12.437  52.788  1.00  0.00     0.011 A 
HETATM   10  C6  UNL     1      34.245  12.442  52.838  1.00  0.00     0.001 A 
HETATM   11  C7  UNL     1      33.596  11.302  52.410  1.00  0.00     0.000 A 
HETATM   12  C8  UNL     1      34.273  10.195  51.949  1.00  0.00     0.001 A 
HETATM   13  C9  UNL     1      35.660  10.266  51.928  1.00  0.00     0.011 A 
ENDBRANCH   7   8
ENDBRANCH   1   6
BRANCH   1  14
HETATM   14  C10 UNL     1      40.586   9.512  51.150  1.00  0.00     0.280 C 
BRANCH  14  15
HETATM   15  C11 UNL     1      39.935   9.805  49.783  1.00  0.00     0.202 C 
BRANCH  15  16
HETATM   16  O1  UNL     1      40.758  10.617  48.997  1.00  0.00    -0.399 OA
ATOM     17  H1  UNL     1      41.634  10.671  49.363  1.00  0.00     0.209 HD
ENDBRANCH  15  16
ENDBRANCH  14  15
BRANCH  14  18
HETATM   18  N2  UNL     1      40.448   8.175  51.531  1.00  0.00     0.097 N 
HETATM   19  C12 UNL     1      41.078   7.704  52.707  1.00  0.00     0.275 C 
HETATM   20  C13 UNL     1      42.125   7.039  51.799  1.00  0.00     0.060 C 
HETATM   21  C14 UNL     1      41.014   7.123  50.769  1.00  0.00     0.275 C 
ENDBRANCH  14  18
ENDBRANCH   1  14
TORSDOF 7
ENDMDL
MODEL 5
REMARK VINA RESULT: -7.320426250      1.470      1.614
REMARK  7 active torsions:
REMARK  status: ('A' for Active; 'I' for Inactive)
REMARK    1  A    between atoms: N1_1  and  C1_5 
REMARK    2  A    between atoms: C1_5  and  C2_6 
REMARK    3  A    between atoms: C1_5  and  C10_14 
REMARK    4  A    between atoms: C3_7  and  C4_8 
REMARK    5  A    between atoms: C10_14  and  C11_15 
REMARK    6  A    between atoms: C10_14  and  N2_18 
REMARK    7  A    between atoms: C11_15  and  O1_16 
ROOT
HETATM    1  C1  UNL     1      40.292  10.588  50.427  1.00  0.00     0.241 C 
ENDROOT
BRANCH   1   2
HETATM    2  N1  UNL     1      40.286  10.298  49.037  1.00  0.00    -0.070 N 
ATOM      3  H13 UNL     1      39.819   9.420  48.813  1.00  0.00     0.275 HD
ATOM      4  H12 UNL     1      39.673  10.912  48.502  1.00  0.00     0.275 HD
ATOM      5  H11 UNL     1      41.256  10.328  48.723  1.00  0.00     0.275 HD
ENDBRANCH   1   2
BRANCH   1   6
HETATM    6  C2  UNL     1      38.869  10.404  50.924  1.00  0.00     0.009 C 
HETATM    7  C3  UNL     1      38.294  11.319  51.661  1.00  0.00     0.009 C 
BRANCH   7   8
HETATM    8  C4  UNL     1      36.947  11.179  52.150  1.00  0.00    -0.036 A 
HETATM    9  C5  UNL     1      36.101  10.235  51.590  1.00  0.00     0.011 A 
HETATM   10  C6  UNL     1      34.802  10.026  51.986  1.00  0.00     0.001 A 
HETATM   11  C7  UNL     1      34.322  10.815  53.010  1.00  0.00     0.000 A 
HETATM   12  C8  UNL     1      35.093  11.779  53.624  1.00  0.00     0.001 A 
HETATM   13  C9  UNL     1      36.396  11.930  53.168  1.00  0.00     0.011 A 
ENDBRANCH   7   8
ENDBRANCH   1   6
BRANCH   1  14
HETATM   14  C10 UNL     1      41.129   9.723  51.309  1.00  0.00     0.280 C 
BRANCH  14  15
HETATM   15  C11 UNL     1      42.567   9.835  50.765  1.00  0.00     0.202 C 
BRANCH  15  16
HETATM   16  O1  UNL     1      43.403  10.479  51.684  1.00  0.00    -0.399 OA
ATOM     17  H1  UNL     1      44.316  10.390  51.435  1.00  0.00     0.209 HD
ENDBRANCH  15  16
ENDBRANCH  14  15
BRANCH  14  18
HETATM   18  N2  UNL     1      40.740   8.397  51.520  1.00  0.00     0.097 N 
HETATM   19  C12 UNL     1      40.694   7.872  52.834  1.00  0.00     0.275 C 
HETATM   20  C13 UNL     1      42.005   7.136  52.512  1.00  0.00     0.060 C 
HETATM   21  C14 UNL     1      41.536   7.310  51.080  1.00  0.00     0.275 C 
ENDBRANCH  14  18
ENDBRANCH   1  14
TORSDOF 7
ENDMDL
