MODEL 1
REMARK VINA RESULT: -7.632128082      0.000      0.000
REMARK  5 active torsions:
REMARK  status: ('A' for Active; 'I' for Inactive)
REMARK    1  A    between atoms: C5_5  and  N1_6 
REMARK    2  A    between atoms: N1_6  and  C6_8 
REMARK    3  A    between atoms: C6_8  and  C7_9 
REMARK    4  A    between atoms: C7_9  and  N2_10 
REMARK       I    between atoms: N2_10  and  C8_12 
REMARK       I    between atoms: C8_12  and  N4_16 
REMARK    5  A    between atoms: C9_18  and  N5_19 
ROOT
HETATM    1  C7  UNL     1      39.880  10.898  50.281  1.00  0.00     0.157 C 
ENDROOT
BRANCH   1   2
HETATM    2  C6  UNL     1      38.922  10.227  51.223  1.00  0.00     0.140 C 
BRANCH   2   3
HETATM    3  N1  UNL     1      37.579  10.504  50.780  1.00  0.00    -0.387 N 
ATOM      4  H1  UNL     1      37.355  10.509  49.784  1.00  0.00     0.159 HD
BRANCH   3   5
HETATM    5  C5  UNL     1      36.572  10.770  51.744  1.00  0.00     0.043 A 
HETATM    6  C4  UNL     1      35.366  10.114  51.767  1.00  0.00     0.032 A 
HETATM    7  C3  UNL     1      34.417  10.437  52.736  1.00  0.00     0.027 A 
HETATM    8  C2  UNL     1      34.649  11.405  53.688  1.00  0.00     0.005 A 
HETATM    9  C1  UNL     1      33.613  11.740  54.724  1.00  0.00     0.068 C 
HETATM   10  N6  UNL     1      35.840  12.027  53.637  1.00  0.00    -0.367 N 
HETATM   11  C12 UNL     1      36.775  11.745  52.723  1.00  0.00     0.117 A 
ATOM     12  H6  UNL     1      36.040  12.750  54.328  1.00  0.00     0.165 HD
ENDBRANCH   3   5
ENDBRANCH   2   3
ENDBRANCH   1   2
BRANCH   1  13
HETATM   13  N2  UNL     1      40.648   9.844  49.639  1.00  0.00    -0.225 N 
HETATM   14  C8  UNL     1      41.245   8.870  50.449  1.00  0.00     0.672 C 
HETATM   15  N3  UNL     1      40.759   7.696  50.517  1.00  0.00    -0.235 N 
HETATM   16  N4  UNL     1      42.394   9.194  51.198  1.00  0.00    -0.189 N 
ATOM     17  H32 UNL     1      39.927   7.462  49.975  1.00  0.00     0.174 HD
ATOM     18  H31 UNL     1      41.194   6.987  51.106  1.00  0.00     0.174 HD
HETATM   19  C9  UNL     1      43.218  10.136  50.946  1.00  0.00     0.195 C 
ATOM     20  H4  UNL     1      42.587   8.621  52.020  1.00  0.00     0.184 HD
ATOM     21  H2  UNL     1      40.750   9.815  48.625  1.00  0.00     0.177 HD
BRANCH  19  22
HETATM   22  N5  UNL     1      44.321  10.302  51.828  1.00  0.00    -0.385 N 
HETATM   23  C10 UNL     1      44.500   9.308  52.865  1.00  0.00     0.149 C 
HETATM   24  C11 UNL     1      45.246  11.397  51.730  1.00  0.00     0.149 C 
ENDBRANCH  19  22
ENDBRANCH   1  13
TORSDOF 5
ENDMDL
MODEL 2
REMARK VINA RESULT: -7.523543897      1.814      2.426
REMARK  5 active torsions:
REMARK  status: ('A' for Active; 'I' for Inactive)
REMARK    1  A    between atoms: C5_5  and  N1_6 
REMARK    2  A    between atoms: N1_6  and  C6_8 
REMARK    3  A    between atoms: C6_8  and  C7_9 
REMARK    4  A    between atoms: C7_9  and  N2_10 
REMARK       I    between atoms: N2_10  and  C8_12 
REMARK       I    between atoms: C8_12  and  N4_16 
REMARK    5  A    between atoms: C9_18  and  N5_19 
ROOT
HETATM    1  C7  UNL     1      40.372  10.318  52.402  1.00  0.00     0.157 C 
ENDROOT
BRANCH   1   2
HETATM    2  C6  UNL     1      39.208  11.263  52.317  1.00  0.00     0.140 C 
BRANCH   2   3
HETATM    3  N1  UNL     1      38.079  10.547  51.780  1.00  0.00    -0.387 N 
ATOM      4  H1  UNL     1      38.219   9.799  51.100  1.00  0.00     0.159 HD
BRANCH   3   5
HETATM    5  C5  UNL     1      36.771  10.894  52.209  1.00  0.00     0.043 A 
HETATM    6  C4  UNL     1      35.645  10.234  51.784  1.00  0.00     0.032 A 
HETATM    7  C3  UNL     1      34.389  10.638  52.236  1.00  0.00     0.027 A 
HETATM    8  C2  UNL     1      34.235  11.693  53.109  1.00  0.00     0.005 A 
HETATM    9  C1  UNL     1      32.873  12.115  53.584  1.00  0.00     0.068 C 
HETATM   10  N6  UNL     1      35.359  12.316  53.505  1.00  0.00    -0.367 N 
HETATM   11  C12 UNL     1      36.580  11.957  53.093  1.00  0.00     0.117 A 
ATOM     12  H6  UNL     1      35.276  13.101  54.151  1.00  0.00     0.165 HD
ENDBRANCH   3   5
ENDBRANCH   2   3
ENDBRANCH   1   2
BRANCH   1  13
HETATM   13  N2  UNL     1      41.257  10.637  51.294  1.00  0.00    -0.225 N 
HETATM   14  C8  UNL     1      41.135   9.894  50.113  1.00  0.00     0.672 C 
HETATM   15  N3  UNL     1      40.589  10.401  49.082  1.00  0.00    -0.235 N 
HETATM   16  N4  UNL     1      41.621   8.572  50.067  1.00  0.00    -0.189 N 
ATOM     17  H32 UNL     1      40.237  11.358  49.115  1.00  0.00     0.174 HD
ATOM     18  H31 UNL     1      40.499   9.860  48.222  1.00  0.00     0.174 HD
HETATM   19  C9  UNL     1      42.521   8.073  50.821  1.00  0.00     0.195 C 
ATOM     20  H4  UNL     1      41.215   7.955  49.363  1.00  0.00     0.184 HD
ATOM     21  H2  UNL     1      41.949  11.381  51.374  1.00  0.00     0.177 HD
BRANCH  19  22
HETATM   22  N5  UNL     1      42.874   6.710  50.616  1.00  0.00    -0.385 N 
HETATM   23  C10 UNL     1      41.841   5.822  50.125  1.00  0.00     0.149 C 
HETATM   24  C11 UNL     1      44.189   6.193  50.872  1.00  0.00     0.149 C 
ENDBRANCH  19  22
ENDBRANCH   1  13
TORSDOF 5
ENDMDL
MODEL 3
REMARK VINA RESULT: -7.296221505      0.623      1.104
REMARK  5 active torsions:
REMARK  status: ('A' for Active; 'I' for Inactive)
REMARK    1  A    between atoms: C5_5  and  N1_6 
REMARK    2  A    between atoms: N1_6  and  C6_8 
REMARK    3  A    between atoms: C6_8  and  C7_9 
REMARK    4  A    between atoms: C7_9  and  N2_10 
REMARK       I    between atoms: N2_10  and  C8_12 
REMARK       I    between atoms: C8_12  and  N4_16 
REMARK    5  A    between atoms: C9_18  and  N5_19 
ROOT
HETATM    1  C7  UNL     1      39.916  10.915  50.295  1.00  0.00     0.157 C 
ENDROOT
BRANCH   1   2
HETATM    2  C6  UNL     1      38.973  10.253  51.259  1.00  0.00     0.140 C 
BRANCH   2   3
HETATM    3  N1  UNL     1      37.624  10.537  50.842  1.00  0.00    -0.387 N 
ATOM      4  H1  UNL     1      37.370  10.502  49.855  1.00  0.00     0.159 HD
BRANCH   3   5
HETATM    5  C5  UNL     1      36.650  10.863  51.823  1.00  0.00     0.043 A 
HETATM    6  C4  UNL     1      36.851  11.821  52.787  1.00  0.00     0.032 A 
HETATM    7  C3  UNL     1      35.855  12.079  53.728  1.00  0.00     0.027 A 
HETATM    8  C2  UNL     1      34.657  11.399  53.726  1.00  0.00     0.005 A 
HETATM    9  C1  UNL     1      33.597  11.691  54.750  1.00  0.00     0.068 C 
HETATM   10  N6  UNL     1      34.494  10.469  52.768  1.00  0.00    -0.367 N 
HETATM   11  C12 UNL     1      35.426  10.193  51.849  1.00  0.00     0.117 A 
ATOM     12  H6  UNL     1      33.618   9.948  52.742  1.00  0.00     0.165 HD
ENDBRANCH   3   5
ENDBRANCH   2   3
ENDBRANCH   1   2
BRANCH   1  13
HETATM   13  N2  UNL     1      40.679   9.856  49.656  1.00  0.00    -0.225 N 
HETATM   14  C8  UNL     1      41.273   8.882  50.469  1.00  0.00     0.672 C 
HETATM   15  N3  UNL     1      40.782   7.711  50.541  1.00  0.00    -0.235 N 
HETATM   16  N4  UNL     1      42.423   9.205  51.216  1.00  0.00    -0.189 N 
ATOM     17  H32 UNL     1      39.949   7.478  50.000  1.00  0.00     0.174 HD
ATOM     18  H31 UNL     1      41.214   7.002  51.133  1.00  0.00     0.174 HD
HETATM   19  C9  UNL     1      43.250  10.143  50.961  1.00  0.00     0.195 C 
ATOM     20  H4  UNL     1      42.614   8.634  52.040  1.00  0.00     0.184 HD
ATOM     21  H2  UNL     1      40.781   9.823  48.642  1.00  0.00     0.177 HD
BRANCH  19  22
HETATM   22  N5  UNL     1      44.355  10.308  51.841  1.00  0.00    -0.385 N 
HETATM   23  C10 UNL     1      44.534   9.313  52.879  1.00  0.00     0.149 C 
HETATM   24  C11 UNL     1      45.281  11.401  51.742  1.00  0.00     0.149 C 
ENDBRANCH  19  22
ENDBRANCH   1  13
TORSDOF 5
ENDMDL
MODEL 4
REMARK VINA RESULT: -7.274274522      1.586      1.808
REMARK  5 active torsions:
REMARK  status: ('A' for Active; 'I' for Inactive)
REMARK    1  A    between atoms: C5_5  and  N1_6 
REMARK    2  A    between atoms: N1_6  and  C6_8 
REMARK    3  A    between atoms: C6_8  and  C7_9 
REMARK    4  A    between atoms: C7_9  and  N2_10 
REMARK       I    between atoms: N2_10  and  C8_12 
REMARK       I    between atoms: C8_12  and  N4_16 
REMARK    5  A    between atoms: C9_18  and  N5_19 
ROOT
HETATM    1  C7  UNL     1      40.387  10.303  49.852  1.00  0.00     0.157 C 
ENDROOT
BRANCH   1   2
HETATM    2  C6  UNL     1      39.401  11.200  50.543  1.00  0.00     0.140 C 
BRANCH   2   3
HETATM    3  N1  UNL     1      38.145  10.501  50.646  1.00  0.00    -0.387 N 
ATOM      4  H1  UNL     1      37.927   9.736  50.008  1.00  0.00     0.159 HD
BRANCH   3   5
HETATM    5  C5  UNL     1      37.216  10.891  51.646  1.00  0.00     0.043 A 
HETATM    6  C4  UNL     1      35.931  10.410  51.701  1.00  0.00     0.032 A 
HETATM    7  C3  UNL     1      35.067  10.848  52.705  1.00  0.00     0.027 A 
HETATM    8  C2  UNL     1      35.462  11.759  53.660  1.00  0.00     0.005 A 
HETATM    9  C1  UNL     1      34.517  12.220  54.733  1.00  0.00     0.068 C 
HETATM   10  N6  UNL     1      36.728  12.208  53.576  1.00  0.00    -0.367 N 
HETATM   11  C12 UNL     1      37.584  11.811  52.629  1.00  0.00     0.117 A 
ATOM     12  H6  UNL     1      37.049  12.884  54.269  1.00  0.00     0.165 HD
ENDBRANCH   3   5
ENDBRANCH   2   3
ENDBRANCH   1   2
BRANCH   1  13
HETATM   13  N2  UNL     1      40.306   9.005  50.502  1.00  0.00    -0.225 N 
HETATM   14  C8  UNL     1      41.177   8.740  51.566  1.00  0.00     0.672 C 
HETATM   15  N3  UNL     1      40.754   8.735  52.765  1.00  0.00    -0.235 N 
HETATM   16  N4  UNL     1      42.537   8.478  51.304  1.00  0.00    -0.189 N 
ATOM     17  H32 UNL     1      39.770   8.925  52.954  1.00  0.00     0.174 HD
ATOM     18  H31 UNL     1      41.389   8.542  53.539  1.00  0.00     0.174 HD
HETATM   19  C9  UNL     1      43.025   8.050  50.205  1.00  0.00     0.195 C 
ATOM     20  H4  UNL     1      43.195   8.645  52.066  1.00  0.00     0.184 HD
ATOM     21  H2  UNL     1      39.632   8.306  50.191  1.00  0.00     0.177 HD
BRANCH  19  22
HETATM   22  N5  UNL     1      44.431   7.847  50.141  1.00  0.00    -0.385 N 
HETATM   23  C10 UNL     1      45.198   8.116  51.339  1.00  0.00     0.149 C 
HETATM   24  C11 UNL     1      45.106   7.396  48.956  1.00  0.00     0.149 C 
ENDBRANCH  19  22
ENDBRANCH   1  13
TORSDOF 5
ENDMDL
MODEL 5
REMARK VINA RESULT: -7.265282558      1.049      1.083
REMARK  5 active torsions:
REMARK  status: ('A' for Active; 'I' for Inactive)
REMARK    1  A    between atoms: C5_5  and  N1_6 
REMARK    2  A    between atoms: N1_6  and  C6_8 
REMARK    3  A    between atoms: C6_8  and  C7_9 
REMARK    4  A    between atoms: C7_9  and  N2_10 
REMARK       I    between atoms: N2_10  and  C8_12 
REMARK       I    between atoms: C8_12  and  N4_16 
REMARK    5  A    between atoms: C9_18  and  N5_19 
ROOT
HETATM    1  C7  UNL     1      39.948  10.460  49.912  1.00  0.00     0.157 C 
ENDROOT
BRANCH   1   2
HETATM    2  C6  UNL     1      38.992  11.103  50.876  1.00  0.00     0.140 C 
BRANCH   2   3
HETATM    3  N1  UNL     1      37.715  10.447  50.755  1.00  0.00    -0.387 N 
ATOM      4  H1  UNL     1      37.542   9.788  49.995  1.00  0.00     0.159 HD
BRANCH   3   5
HETATM    5  C5  UNL     1      36.699  10.727  51.707  1.00  0.00     0.043 A 
HETATM    6  C4  UNL     1      35.492  10.073  51.728  1.00  0.00     0.032 A 
HETATM    7  C3  UNL     1      34.535  10.410  52.684  1.00  0.00     0.027 A 
HETATM    8  C2  UNL     1      34.760  11.390  53.626  1.00  0.00     0.005 A 
HETATM    9  C1  UNL     1      33.716  11.740  54.648  1.00  0.00     0.068 C 
HETATM   10  N6  UNL     1      35.953  12.009  53.577  1.00  0.00    -0.367 N 
HETATM   11  C12 UNL     1      36.895  11.713  52.675  1.00  0.00     0.117 A 
ATOM     12  H6  UNL     1      36.148  12.740  54.261  1.00  0.00     0.165 HD
ENDBRANCH   3   5
ENDBRANCH   2   3
ENDBRANCH   1   2
BRANCH   1  13
HETATM   13  N2  UNL     1      40.342   9.187  50.493  1.00  0.00    -0.225 N 
HETATM   14  C8  UNL     1      41.066   9.201  51.692  1.00  0.00     0.672 C 
HETATM   15  N3  UNL     1      40.509   8.885  52.791  1.00  0.00    -0.235 N 
HETATM   16  N4  UNL     1      42.427   9.569  51.680  1.00  0.00    -0.189 N 
ATOM     17  H32 UNL     1      39.524   8.619  52.799  1.00  0.00     0.174 HD
ATOM     18  H31 UNL     1      41.036   8.895  53.663  1.00  0.00     0.174 HD
HETATM   19  C9  UNL     1      43.215   9.511  50.678  1.00  0.00     0.195 C 
ATOM     20  H4  UNL     1      42.819   9.914  52.556  1.00  0.00     0.184 HD
ATOM     21  H2  UNL     1      40.097   8.307  50.040  1.00  0.00     0.177 HD
BRANCH  19  22
HETATM   22  N5  UNL     1      44.560   9.932  50.870  1.00  0.00    -0.385 N 
HETATM   23  C10 UNL     1      45.602   9.125  50.269  1.00  0.00     0.149 C 
HETATM   24  C11 UNL     1      44.916  11.103  51.621  1.00  0.00     0.149 C 
ENDBRANCH  19  22
ENDBRANCH   1  13
TORSDOF 5
ENDMDL
