MODEL 1
REMARK VINA RESULT: -8.970178720      0.000      0.000
REMARK  9 active torsions:
REMARK  status: ('A' for Active; 'I' for Inactive)
REMARK    1  A    between atoms: C1_2  and  C2_4 
REMARK    2  A    between atoms: C2_4  and  O3_5 
REMARK    3  A    between atoms: C2_4  and  N1_7 
REMARK       I    between atoms: N1_7  and  C3_8 
REMARK    4  A    between atoms: N1_7  and  S1_21 
REMARK    5  A    between atoms: C3_8  and  C4_10 
REMARK    6  A    between atoms: C4_10  and  O5_11 
REMARK    7  A    between atoms: O5_11  and  C5_12 
REMARK    8  A    between atoms: C5_12  and  C6_14 
REMARK    9  A    between atoms: S1_21  and  C12_24 
ROOT
HETATM    1  N1  UNL     1       7.722  21.457  51.416  1.00  0.00    -0.175 N 
HETATM    2  C3  UNL     1       6.424  21.554  50.869  1.00  0.00     0.264 C 
HETATM    3  O4  UNL     1       5.491  22.082  51.503  1.00  0.00    -0.269 OA
ENDROOT
BRANCH   1   4
HETATM    4  C2  UNL     1       8.067  21.969  52.666  1.00  0.00     0.238 C 
BRANCH   4   5
HETATM    5  C1  UNL     1       7.602  21.753  53.995  1.00  0.00     0.253 C 
HETATM    6  O1  UNL     1       6.936  20.825  54.441  1.00  0.00    -0.641 OA
HETATM    7  O2  UNL     1       7.932  22.731  54.984  1.00  0.00    -0.641 OA
ENDBRANCH   4   5
BRANCH   4   8
HETATM    8  O3  UNL     1       9.053  22.855  52.572  1.00  0.00    -0.340 OA
ATOM      9  H3  UNL     1       9.255  23.117  51.682  1.00  0.00     0.219 HD
ENDBRANCH   4   8
ENDBRANCH   1   4
BRANCH   1  10
HETATM   10  S1  UNL     1       8.879  20.649  50.395  1.00  0.00     0.273 S 
HETATM   11  O7  UNL     1       9.902  20.004  51.318  1.00  0.00    -0.200 OA
HETATM   12  O8  UNL     1       8.160  19.551  49.681  1.00  0.00    -0.200 OA
BRANCH  10  13
HETATM   13  C12 UNL     1       9.637  21.643  49.217  1.00  0.00     0.080 A 
HETATM   14  C13 UNL     1       9.277  22.950  48.972  1.00  0.00     0.025 A 
HETATM   15  C14 UNL     1       9.910  23.675  47.989  1.00  0.00     0.002 A 
HETATM   16  C15 UNL     1      10.914  23.121  47.228  1.00  0.00     0.000 A 
HETATM   17  C16 UNL     1      11.291  21.816  47.454  1.00  0.00     0.002 A 
HETATM   18  C17 UNL     1      10.651  21.103  48.438  1.00  0.00     0.025 A 
ENDBRANCH  10  13
ENDBRANCH   1  10
BRANCH   2  19
HETATM   19  C4  UNL     1       6.073  21.034  49.496  1.00  0.00     0.283 C 
BRANCH  19  20
HETATM   20  O5  UNL     1       4.802  20.379  49.550  1.00  0.00    -0.308 OA
BRANCH  20  21
HETATM   21  C5  UNL     1       4.463  19.287  48.788  1.00  0.00     0.293 C 
HETATM   22  O6  UNL     1       5.261  18.318  48.681  1.00  0.00    -0.259 OA
BRANCH  21  23
HETATM   23  C6  UNL     1       3.189  19.228  48.097  1.00  0.00     0.040 A 
HETATM   24  C7  UNL     1       2.025  18.974  48.814  1.00  0.00     0.017 A 
HETATM   25  C8  UNL     1       0.786  18.904  48.242  1.00  0.00     0.002 A 
HETATM   26  C9  UNL     1       0.688  19.096  46.881  1.00  0.00     0.019 A 
HETATM   27  C10 UNL     1       1.818  19.354  46.107  1.00  0.00     0.011 A 
HETATM   28 BR1  UNL     1       1.615  19.607  44.234  1.00  0.00    -0.051 Br
HETATM   29  C11 UNL     1       3.054  19.415  46.739  1.00  0.00     0.036 A 
ENDBRANCH  21  23
ENDBRANCH  20  21
ENDBRANCH  19  20
ENDBRANCH   2  19
TORSDOF 9
ENDMDL
MODEL 2
REMARK VINA RESULT: -8.753533327      0.921      1.329
REMARK  9 active torsions:
REMARK  status: ('A' for Active; 'I' for Inactive)
REMARK    1  A    between atoms: C1_2  and  C2_4 
REMARK    2  A    between atoms: C2_4  and  O3_5 
REMARK    3  A    between atoms: C2_4  and  N1_7 
REMARK       I    between atoms: N1_7  and  C3_8 
REMARK    4  A    between atoms: N1_7  and  S1_21 
REMARK    5  A    between atoms: C3_8  and  C4_10 
REMARK    6  A    between atoms: C4_10  and  O5_11 
REMARK    7  A    between atoms: O5_11  and  C5_12 
REMARK    8  A    between atoms: C5_12  and  C6_14 
REMARK    9  A    between atoms: S1_21  and  C12_24 
ROOT
HETATM    1  N1  UNL     1       7.641  21.361  51.449  1.00  0.00    -0.175 N 
HETATM    2  C3  UNL     1       6.335  21.441  50.920  1.00  0.00     0.264 C 
HETATM    3  O4  UNL     1       5.404  21.958  51.567  1.00  0.00    -0.269 OA
ENDROOT
BRANCH   1   4
HETATM    4  C2  UNL     1       7.997  21.878  52.694  1.00  0.00     0.238 C 
BRANCH   4   5
HETATM    5  C1  UNL     1       7.508  21.709  54.021  1.00  0.00     0.253 C 
HETATM    6  O1  UNL     1       6.794  20.822  54.475  1.00  0.00    -0.641 OA
HETATM    7  O2  UNL     1       7.875  22.687  54.997  1.00  0.00    -0.641 OA
ENDBRANCH   4   5
BRANCH   4   8
HETATM    8  O3  UNL     1       9.025  22.714  52.595  1.00  0.00    -0.340 OA
ATOM      9  H3  UNL     1       9.362  22.814  51.713  1.00  0.00     0.219 HD
ENDBRANCH   4   8
ENDBRANCH   1   4
BRANCH   1  10
HETATM   10  S1  UNL     1       8.794  20.568  50.412  1.00  0.00     0.273 S 
HETATM   11  O7  UNL     1       9.808  19.891  51.322  1.00  0.00    -0.200 OA
HETATM   12  O8  UNL     1       8.067  19.494  49.669  1.00  0.00    -0.200 OA
BRANCH  10  13
HETATM   13  C12 UNL     1       9.565  21.583  49.261  1.00  0.00     0.080 A 
HETATM   14  C13 UNL     1       9.202  22.892  49.030  1.00  0.00     0.025 A 
HETATM   15  C14 UNL     1       9.847  23.635  48.068  1.00  0.00     0.002 A 
HETATM   16  C15 UNL     1      10.865  23.097  47.315  1.00  0.00     0.000 A 
HETATM   17  C16 UNL     1      11.245  21.790  47.526  1.00  0.00     0.002 A 
HETATM   18  C17 UNL     1      10.594  21.059  48.490  1.00  0.00     0.025 A 
ENDBRANCH  10  13
ENDBRANCH   1  10
BRANCH   2  19
HETATM   19  C4  UNL     1       5.971  20.916  49.552  1.00  0.00     0.283 C 
BRANCH  19  20
HETATM   20  O5  UNL     1       4.549  20.777  49.463  1.00  0.00    -0.308 OA
BRANCH  20  21
HETATM   21  C5  UNL     1       3.904  19.589  49.218  1.00  0.00     0.293 C 
HETATM   22  O6  UNL     1       3.436  18.915  50.173  1.00  0.00    -0.259 OA
BRANCH  21  23
HETATM   23  C6  UNL     1       3.749  19.092  47.864  1.00  0.00     0.040 A 
HETATM   24  C7  UNL     1       4.548  18.043  47.418  1.00  0.00     0.017 A 
HETATM   25  C8  UNL     1       4.466  17.514  46.161  1.00  0.00     0.002 A 
HETATM   26  C9  UNL     1       3.543  18.050  45.290  1.00  0.00     0.019 A 
HETATM   27  C10 UNL     1       2.713  19.101  45.677  1.00  0.00     0.011 A 
HETATM   28 BR1  UNL     1       1.460  19.796  44.427  1.00  0.00    -0.051 Br
HETATM   29  C11 UNL     1       2.837  19.602  46.967  1.00  0.00     0.036 A 
ENDBRANCH  21  23
ENDBRANCH  20  21
ENDBRANCH  19  20
ENDBRANCH   2  19
TORSDOF 9
ENDMDL
MODEL 3
REMARK VINA RESULT: -8.547229604      0.688      1.449
REMARK  9 active torsions:
REMARK  status: ('A' for Active; 'I' for Inactive)
REMARK    1  A    between atoms: C1_2  and  C2_4 
REMARK    2  A    between atoms: C2_4  and  O3_5 
REMARK    3  A    between atoms: C2_4  and  N1_7 
REMARK       I    between atoms: N1_7  and  C3_8 
REMARK    4  A    between atoms: N1_7  and  S1_21 
REMARK    5  A    between atoms: C3_8  and  C4_10 
REMARK    6  A    between atoms: C4_10  and  O5_11 
REMARK    7  A    between atoms: O5_11  and  C5_12 
REMARK    8  A    between atoms: C5_12  and  C6_14 
REMARK    9  A    between atoms: S1_21  and  C12_24 
ROOT
HETATM    1  N1  UNL     1       7.103  20.893  51.632  1.00  0.00    -0.175 N 
HETATM    2  C3  UNL     1       5.872  21.051  50.959  1.00  0.00     0.264 C 
HETATM    3  O4  UNL     1       4.878  21.538  51.530  1.00  0.00    -0.269 OA
ENDROOT
BRANCH   1   4
HETATM    4  C2  UNL     1       7.314  21.298  52.949  1.00  0.00     0.238 C 
BRANCH   4   5
HETATM    5  C1  UNL     1       8.091  22.320  53.566  1.00  0.00     0.253 C 
HETATM    6  O1  UNL     1       8.959  23.035  53.076  1.00  0.00    -0.641 OA
HETATM    7  O2  UNL     1       7.863  22.585  54.952  1.00  0.00    -0.641 OA
ENDBRANCH   4   5
BRANCH   4   8
HETATM    8  O3  UNL     1       6.626  20.547  53.802  1.00  0.00    -0.340 OA
ATOM      9  H3  UNL     1       5.728  20.384  53.540  1.00  0.00     0.219 HD
ENDBRANCH   4   8
ENDBRANCH   1   4
BRANCH   1  10
HETATM   10  S1  UNL     1       8.360  20.155  50.677  1.00  0.00     0.273 S 
HETATM   11  O7  UNL     1       9.325  19.502  51.655  1.00  0.00    -0.200 OA
HETATM   12  O8  UNL     1       7.731  19.067  49.869  1.00  0.00    -0.200 OA
BRANCH  10  13
HETATM   13  C12 UNL     1       9.179  21.212  49.600  1.00  0.00     0.080 A 
HETATM   14  C13 UNL     1      10.236  20.826  48.805  1.00  0.00     0.025 A 
HETATM   15  C14 UNL     1      10.863  21.739  47.988  1.00  0.00     0.002 A 
HETATM   16  C15 UNL     1      10.456  23.052  47.941  1.00  0.00     0.000 A 
HETATM   17  C16 UNL     1       9.401  23.462  48.726  1.00  0.00     0.002 A 
HETATM   18  C17 UNL     1       8.784  22.541  49.537  1.00  0.00     0.025 A 
ENDBRANCH  10  13
ENDBRANCH   1  10
BRANCH   2  19
HETATM   19  C4  UNL     1       5.668  20.648  49.519  1.00  0.00     0.283 C 
BRANCH  19  20
HETATM   20  O5  UNL     1       4.320  20.203  49.339  1.00  0.00    -0.308 OA
BRANCH  20  21
HETATM   21  C5  UNL     1       3.959  19.123  48.569  1.00  0.00     0.293 C 
HETATM   22  O6  UNL     1       4.689  18.098  48.535  1.00  0.00    -0.259 OA
BRANCH  21  23
HETATM   23  C6  UNL     1       2.738  19.143  47.786  1.00  0.00     0.040 A 
HETATM   24  C7  UNL     1       1.519  18.875  48.400  1.00  0.00     0.017 A 
HETATM   25  C8  UNL     1       0.324  18.875  47.737  1.00  0.00     0.002 A 
HETATM   26  C9  UNL     1       0.330  19.156  46.388  1.00  0.00     0.019 A 
HETATM   27  C10 UNL     1       1.519  19.433  45.715  1.00  0.00     0.011 A 
HETATM   28 BR1  UNL     1       1.460  19.812  43.854  1.00  0.00    -0.051 Br
HETATM   29  C11 UNL     1       2.707  19.420  46.438  1.00  0.00     0.036 A 
ENDBRANCH  21  23
ENDBRANCH  20  21
ENDBRANCH  19  20
ENDBRANCH   2  19
TORSDOF 9
ENDMDL
MODEL 4
REMARK VINA RESULT: -8.536846449      2.298      4.064
REMARK  9 active torsions:
REMARK  status: ('A' for Active; 'I' for Inactive)
REMARK    1  A    between atoms: C1_2  and  C2_4 
REMARK    2  A    between atoms: C2_4  and  O3_5 
REMARK    3  A    between atoms: C2_4  and  N1_7 
REMARK       I    between atoms: N1_7  and  C3_8 
REMARK    4  A    between atoms: N1_7  and  S1_21 
REMARK    5  A    between atoms: C3_8  and  C4_10 
REMARK    6  A    between atoms: C4_10  and  O5_11 
REMARK    7  A    between atoms: O5_11  and  C5_12 
REMARK    8  A    between atoms: C5_12  and  C6_14 
REMARK    9  A    between atoms: S1_21  and  C12_24 
ROOT
HETATM    1  N1  UNL     1       8.356  20.522  50.900  1.00  0.00    -0.175 N 
HETATM    2  C3  UNL     1       7.755  20.391  52.172  1.00  0.00     0.264 C 
HETATM    3  O4  UNL     1       7.466  19.274  52.640  1.00  0.00    -0.269 OA
ENDROOT
BRANCH   1   4
HETATM    4  C2  UNL     1       8.702  19.434  50.101  1.00  0.00     0.238 C 
BRANCH   4   5
HETATM    5  C1  UNL     1       9.751  18.471  50.127  1.00  0.00     0.253 C 
HETATM    6  O1  UNL     1      10.026  17.603  49.305  1.00  0.00    -0.641 OA
HETATM    7  O2  UNL     1      10.634  18.477  51.251  1.00  0.00    -0.641 OA
ENDBRANCH   4   5
BRANCH   4   8
HETATM    8  O3  UNL     1       7.848  19.281  49.094  1.00  0.00    -0.340 OA
ATOM      9  H3  UNL     1       8.020  19.844  48.349  1.00  0.00     0.219 HD
ENDBRANCH   4   8
ENDBRANCH   1   4
BRANCH   1  10
HETATM   10  S1  UNL     1       8.646  22.166  50.403  1.00  0.00     0.273 S 
HETATM   11  O7  UNL     1       7.283  22.795  50.156  1.00  0.00    -0.200 OA
HETATM   12  O8  UNL     1       9.270  22.882  51.557  1.00  0.00    -0.200 OA
BRANCH  10  13
HETATM   13  C12 UNL     1       9.677  22.350  49.042  1.00  0.00     0.080 A 
HETATM   14  C13 UNL     1      10.604  21.409  48.652  1.00  0.00     0.025 A 
HETATM   15  C14 UNL     1      11.418  21.640  47.567  1.00  0.00     0.002 A 
HETATM   16  C15 UNL     1      11.330  22.808  46.845  1.00  0.00     0.000 A 
HETATM   17  C16 UNL     1      10.411  23.764  47.216  1.00  0.00     0.002 A 
HETATM   18  C17 UNL     1       9.604  23.521  48.302  1.00  0.00     0.025 A 
ENDBRANCH  10  13
ENDBRANCH   1  10
BRANCH   2  19
HETATM   19  C4  UNL     1       7.424  21.575  53.047  1.00  0.00     0.283 C 
BRANCH  19  20
HETATM   20  O5  UNL     1       6.073  21.980  52.802  1.00  0.00    -0.308 OA
BRANCH  20  21
HETATM   21  C5  UNL     1       4.969  21.294  53.246  1.00  0.00     0.293 C 
HETATM   22  O6  UNL     1       4.833  21.040  54.472  1.00  0.00    -0.259 OA
BRANCH  21  23
HETATM   23  C6  UNL     1       3.945  20.852  52.319  1.00  0.00     0.040 A 
HETATM   24  C7  UNL     1       2.604  20.932  52.680  1.00  0.00     0.017 A 
HETATM   25  C8  UNL     1       1.578  20.539  51.867  1.00  0.00     0.002 A 
HETATM   26  C9  UNL     1       1.892  20.039  50.622  1.00  0.00     0.019 A 
HETATM   27  C10 UNL     1       3.217  19.933  50.201  1.00  0.00     0.011 A 
HETATM   28 BR1  UNL     1       3.583  19.233  48.472  1.00  0.00    -0.051 Br
HETATM   29  C11 UNL     1       4.222  20.347  51.068  1.00  0.00     0.036 A 
ENDBRANCH  21  23
ENDBRANCH  20  21
ENDBRANCH  19  20
ENDBRANCH   2  19
TORSDOF 9
ENDMDL
MODEL 5
REMARK VINA RESULT: -8.512289030      2.072      4.371
REMARK  9 active torsions:
REMARK  status: ('A' for Active; 'I' for Inactive)
REMARK    1  A    between atoms: C1_2  and  C2_4 
REMARK    2  A    between atoms: C2_4  and  O3_5 
REMARK    3  A    between atoms: C2_4  and  N1_7 
REMARK       I    between atoms: N1_7  and  C3_8 
REMARK    4  A    between atoms: N1_7  and  S1_21 
REMARK    5  A    between atoms: C3_8  and  C4_10 
REMARK    6  A    between atoms: C4_10  and  O5_11 
REMARK    7  A    between atoms: O5_11  and  C5_12 
REMARK    8  A    between atoms: C5_12  and  C6_14 
REMARK    9  A    between atoms: S1_21  and  C12_24 
ROOT
HETATM    1  N1  UNL     1       8.178  21.309  50.932  1.00  0.00    -0.175 N 
HETATM    2  C3  UNL     1       8.247  20.206  50.053  1.00  0.00     0.264 C 
HETATM    3  O4  UNL     1       8.988  20.219  49.053  1.00  0.00    -0.269 OA
ENDROOT
BRANCH   1   4
HETATM    4  C2  UNL     1       8.947  22.461  50.778  1.00  0.00     0.238 C 
BRANCH   4   5
HETATM    5  C1  UNL     1       9.365  23.239  49.661  1.00  0.00     0.253 C 
HETATM    6  O1  UNL     1       8.684  23.846  48.842  1.00  0.00    -0.641 OA
HETATM    7  O2  UNL     1      10.769  23.359  49.419  1.00  0.00    -0.641 OA
ENDBRANCH   4   5
BRANCH   4   8
HETATM    8  O3  UNL     1       9.376  22.917  51.950  1.00  0.00    -0.340 OA
ATOM      9  H3  UNL     1       8.718  23.385  52.450  1.00  0.00     0.219 HD
ENDBRANCH   4   8
ENDBRANCH   1   4
BRANCH   1  10
HETATM   10  S1  UNL     1       7.053  21.115  52.249  1.00  0.00     0.273 S 
HETATM   11  O7  UNL     1       7.411  19.809  52.941  1.00  0.00    -0.200 OA
HETATM   12  O8  UNL     1       7.302  22.224  53.220  1.00  0.00    -0.200 OA
BRANCH  10  13
HETATM   13  C12 UNL     1       5.394  21.157  51.808  1.00  0.00     0.080 A 
HETATM   14  C13 UNL     1       4.374  20.722  52.626  1.00  0.00     0.025 A 
HETATM   15  C14 UNL     1       3.069  20.758  52.191  1.00  0.00     0.002 A 
HETATM   16  C15 UNL     1       2.747  21.225  50.937  1.00  0.00     0.000 A 
HETATM   17  C16 UNL     1       3.750  21.665  50.102  1.00  0.00     0.002 A 
HETATM   18  C17 UNL     1       5.049  21.624  50.548  1.00  0.00     0.025 A 
ENDBRANCH  10  13
ENDBRANCH   1  10
BRANCH   2  19
HETATM   19  C4  UNL     1       7.440  18.946  50.255  1.00  0.00     0.283 C 
BRANCH  19  20
HETATM   20  O5  UNL     1       6.440  18.858  49.235  1.00  0.00    -0.308 OA
BRANCH  20  21
HETATM   21  C5  UNL     1       5.476  17.880  49.182  1.00  0.00     0.293 C 
HETATM   22  O6  UNL     1       5.765  16.690  49.474  1.00  0.00    -0.259 OA
BRANCH  21  23
HETATM   23  C6  UNL     1       4.116  18.197  48.790  1.00  0.00     0.040 A 
HETATM   24  C7  UNL     1       3.067  17.947  49.669  1.00  0.00     0.017 A 
HETATM   25  C8  UNL     1       1.759  18.217  49.380  1.00  0.00     0.002 A 
HETATM   26  C9  UNL     1       1.466  18.767  48.152  1.00  0.00     0.019 A 
HETATM   27  C10 UNL     1       2.472  19.040  47.226  1.00  0.00     0.011 A 
HETATM   28 BR1  UNL     1       2.001  19.797  45.548  1.00  0.00    -0.051 Br
HETATM   29  C11 UNL     1       3.786  18.747  47.571  1.00  0.00     0.036 A 
ENDBRANCH  21  23
ENDBRANCH  20  21
ENDBRANCH  19  20
ENDBRANCH   2  19
TORSDOF 9
ENDMDL
