MODEL 1
REMARK VINA RESULT: -8.849918515      0.000      0.000
REMARK  7 active torsions:
REMARK  status: ('A' for Active; 'I' for Inactive)
REMARK    1  A    between atoms: C2_2  and  N1_3 
REMARK    2  A    between atoms: N1_3  and  C3_4 
REMARK    3  A    between atoms: N1_3  and  S1_6 
REMARK    4  A    between atoms: S1_6  and  C5_9 
REMARK    5  A    between atoms: C7_11  and  S2_12 
REMARK    6  A    between atoms: S2_12  and  N2_15 
REMARK    7  A    between atoms: N2_15  and  C8_17 
ROOT
HETATM    1  S2  UNL     1       6.174  21.126  51.943  1.00  0.00     0.264 S 
HETATM    2  O3  UNL     1       5.843  22.229  52.874  1.00  0.00    -0.200 OA
HETATM    3  O4  UNL     1       6.691  19.976  52.800  1.00  0.00    -0.200 OA
ENDROOT
BRANCH   1   4
HETATM    4  C7  UNL     1       4.689  20.567  51.187  1.00  0.00     0.081 A 
HETATM    5  C6  UNL     1       4.736  19.719  50.124  1.00  0.00     0.050 A 
HETATM    6  C5  UNL     1       3.590  19.226  49.463  1.00  0.00     0.082 A 
HETATM    7  C17 UNL     1       2.415  19.674  49.980  1.00  0.00    -0.039 A 
HETATM    8  C16 UNL     1       2.350  20.542  51.068  1.00  0.00     0.010 A 
HETATM    9  C18 UNL     1       1.139  19.284  49.386  1.00  0.00     0.050 C 
HETATM   10  C15 UNL     1       3.481  21.001  51.686  1.00  0.00     0.026 A 
BRANCH   6  11
HETATM   11  S1  UNL     1       3.830  18.129  48.163  1.00  0.00     0.244 S 
HETATM   12  O1  UNL     1       5.229  17.488  48.252  1.00  0.00    -0.206 OA
HETATM   13  O2  UNL     1       2.899  16.933  48.373  1.00  0.00    -0.206 OA
BRANCH  11  14
HETATM   14  N1  UNL     1       3.579  18.669  46.595  1.00  0.00    -0.207 NA
BRANCH  14  15
HETATM   15  C2  UNL     1       4.347  18.095  45.534  1.00  0.00     0.103 C 
HETATM   16  C1  UNL     1       3.763  16.861  44.906  1.00  0.00     0.021 C 
ENDBRANCH  14  15
BRANCH  14  17
HETATM   17  C3  UNL     1       2.209  18.771  46.182  1.00  0.00     0.103 C 
HETATM   18  C4  UNL     1       1.908  19.965  45.335  1.00  0.00     0.021 C 
ENDBRANCH  14  17
ENDBRANCH  11  14
ENDBRANCH   6  11
ENDBRANCH   1   4
BRANCH   1  19
HETATM   19  N2  UNL     1       7.371  21.481  50.798  1.00  0.00    -0.265 N 
ATOM     20  H2  UNL     1       7.383  22.443  50.461  1.00  0.00     0.180 HD
BRANCH  19  21
HETATM   21  C8  UNL     1       8.252  20.719  50.304  1.00  0.00     0.133 A 
HETATM   22  N3  UNL     1       8.405  19.421  50.564  1.00  0.00    -0.337 N 
HETATM   23  C9  UNL     1       9.381  18.690  49.983  1.00  0.00     0.182 A 
ATOM     24  H3  UNL     1       7.767  18.967  51.219  1.00  0.00     0.168 HD
HETATM   25  N4  UNL     1      10.259  19.229  49.106  1.00  0.00    -0.350 N 
HETATM   26  C10 UNL     1      10.144  20.538  48.811  1.00  0.00     0.067 A 
ATOM     27  H4  UNL     1      10.989  18.660  48.680  1.00  0.00     0.166 HD
HETATM   28  C11 UNL     1      10.834  21.419  47.985  1.00  0.00     0.123 A 
HETATM   29  C14 UNL     1       9.148  21.291  49.401  1.00  0.00     0.093 A 
HETATM   30  N5  UNL     1      10.291  22.641  48.067  1.00  0.00    -0.335 N 
HETATM   31  C12 UNL     1      10.712  23.839  47.366  1.00  0.00     0.158 C 
HETATM   32  C13 UNL     1       9.252  22.596  48.929  1.00  0.00     0.206 A 
HETATM   33  F1  UNL     1       8.470  23.657  49.253  1.00  0.00    -0.185 F 
ENDBRANCH  19  21
ENDBRANCH   1  19
TORSDOF 7
ENDMDL
MODEL 2
REMARK VINA RESULT: -8.800592807      0.719      1.255
REMARK  7 active torsions:
REMARK  status: ('A' for Active; 'I' for Inactive)
REMARK    1  A    between atoms: C2_2  and  N1_3 
REMARK    2  A    between atoms: N1_3  and  C3_4 
REMARK    3  A    between atoms: N1_3  and  S1_6 
REMARK    4  A    between atoms: S1_6  and  C5_9 
REMARK    5  A    between atoms: C7_11  and  S2_12 
REMARK    6  A    between atoms: S2_12  and  N2_15 
REMARK    7  A    between atoms: N2_15  and  C8_17 
ROOT
HETATM    1  S2  UNL     1       6.372  21.200  52.099  1.00  0.00     0.264 S 
HETATM    2  O3  UNL     1       5.958  22.275  53.030  1.00  0.00    -0.200 OA
HETATM    3  O4  UNL     1       6.970  20.091  52.956  1.00  0.00    -0.200 OA
ENDROOT
BRANCH   1   4
HETATM    4  C7  UNL     1       4.934  20.536  51.338  1.00  0.00     0.081 A 
HETATM    5  C6  UNL     1       5.033  19.476  50.490  1.00  0.00     0.050 A 
HETATM    6  C5  UNL     1       3.927  18.886  49.840  1.00  0.00     0.082 A 
HETATM    7  C17 UNL     1       2.735  19.469  50.134  1.00  0.00    -0.039 A 
HETATM    8  C16 UNL     1       2.616  20.554  51.000  1.00  0.00     0.010 A 
HETATM    9  C18 UNL     1       1.498  18.998  49.514  1.00  0.00     0.050 C 
HETATM   10  C15 UNL     1       3.710  21.102  51.613  1.00  0.00     0.026 A 
BRANCH   6  11
HETATM   11  S1  UNL     1       4.227  17.526  48.834  1.00  0.00     0.244 S 
HETATM   12  O1  UNL     1       5.720  17.146  48.874  1.00  0.00    -0.206 OA
HETATM   13  O2  UNL     1       3.553  16.308  49.469  1.00  0.00    -0.206 OA
BRANCH  11  14
HETATM   14  N1  UNL     1       3.722  17.580  47.235  1.00  0.00    -0.207 NA
BRANCH  14  15
HETATM   15  C2  UNL     1       3.885  18.795  46.499  1.00  0.00     0.103 C 
HETATM   16  C1  UNL     1       2.611  19.465  46.067  1.00  0.00     0.021 C 
ENDBRANCH  14  15
BRANCH  14  17
HETATM   17  C3  UNL     1       4.129  16.475  46.416  1.00  0.00     0.103 C 
HETATM   18  C4  UNL     1       3.006  15.783  45.713  1.00  0.00     0.021 C 
ENDBRANCH  14  17
ENDBRANCH  11  14
ENDBRANCH   6  11
ENDBRANCH   1   4
BRANCH   1  19
HETATM   19  N2  UNL     1       7.542  21.644  50.958  1.00  0.00    -0.265 N 
ATOM     20  H2  UNL     1       7.514  22.618  50.656  1.00  0.00     0.180 HD
BRANCH  19  21
HETATM   21  C8  UNL     1       8.449  20.937  50.428  1.00  0.00     0.133 A 
HETATM   22  N3  UNL     1       8.725  19.666  50.721  1.00  0.00    -0.337 N 
HETATM   23  C9  UNL     1       9.716  18.993  50.098  1.00  0.00     0.182 A 
ATOM     24  H3  UNL     1       8.173  19.189  51.434  1.00  0.00     0.168 HD
HETATM   25  N4  UNL     1      10.486  19.566  49.144  1.00  0.00    -0.350 N 
HETATM   26  C10 UNL     1      10.244  20.849  48.813  1.00  0.00     0.067 A 
ATOM     27  H4  UNL     1      11.230  19.040  48.686  1.00  0.00     0.166 HD
HETATM   28  C11 UNL     1      10.801  21.749  47.912  1.00  0.00     0.123 A 
HETATM   29  C14 UNL     1       9.232  21.542  49.446  1.00  0.00     0.093 A 
HETATM   30  N5  UNL     1      10.167  22.926  47.990  1.00  0.00    -0.335 N 
HETATM   31  C12 UNL     1      10.439  24.126  47.222  1.00  0.00     0.158 C 
HETATM   32  C13 UNL     1       9.196  22.832  48.925  1.00  0.00     0.206 A 
HETATM   33  F1  UNL     1       8.352  23.838  49.267  1.00  0.00    -0.185 F 
ENDBRANCH  19  21
ENDBRANCH   1  19
TORSDOF 7
ENDMDL
MODEL 3
REMARK VINA RESULT: -8.685140137      1.230      1.702
REMARK  7 active torsions:
REMARK  status: ('A' for Active; 'I' for Inactive)
REMARK    1  A    between atoms: C2_2  and  N1_3 
REMARK    2  A    between atoms: N1_3  and  C3_4 
REMARK    3  A    between atoms: N1_3  and  S1_6 
REMARK    4  A    between atoms: S1_6  and  C5_9 
REMARK    5  A    between atoms: C7_11  and  S2_12 
REMARK    6  A    between atoms: S2_12  and  N2_15 
REMARK    7  A    between atoms: N2_15  and  C8_17 
ROOT
HETATM    1  S2  UNL     1       6.256  21.207  51.977  1.00  0.00     0.264 S 
HETATM    2  O3  UNL     1       5.938  22.311  52.913  1.00  0.00    -0.200 OA
HETATM    3  O4  UNL     1       6.791  20.060  52.827  1.00  0.00    -0.200 OA
ENDROOT
BRANCH   1   4
HETATM    4  C7  UNL     1       4.760  20.644  51.248  1.00  0.00     0.081 A 
HETATM    5  C6  UNL     1       4.767  20.096  50.001  1.00  0.00     0.050 A 
HETATM    6  C5  UNL     1       3.609  19.621  49.348  1.00  0.00     0.082 A 
HETATM    7  C17 UNL     1       2.467  19.757  50.072  1.00  0.00    -0.039 A 
HETATM    8  C16 UNL     1       2.443  20.316  51.348  1.00  0.00     0.010 A 
HETATM    9  C18 UNL     1       1.178  19.347  49.521  1.00  0.00     0.050 C 
HETATM   10  C15 UNL     1       3.584  20.766  51.953  1.00  0.00     0.026 A 
BRANCH   6  11
HETATM   11  S1  UNL     1       3.805  18.919  47.792  1.00  0.00     0.244 S 
HETATM   12  O1  UNL     1       2.893  19.620  46.766  1.00  0.00    -0.206 OA
HETATM   13  O2  UNL     1       5.207  19.267  47.287  1.00  0.00    -0.206 OA
BRANCH  11  14
HETATM   14  N1  UNL     1       3.630  17.259  47.629  1.00  0.00    -0.207 NA
BRANCH  14  15
HETATM   15  C2  UNL     1       4.435  16.569  46.669  1.00  0.00     0.103 C 
HETATM   16  C1  UNL     1       3.913  16.581  45.259  1.00  0.00     0.021 C 
ENDBRANCH  14  15
BRANCH  14  17
HETATM   17  C3  UNL     1       3.613  16.510  48.853  1.00  0.00     0.103 C 
HETATM   18  C4  UNL     1       4.966  16.218  49.416  1.00  0.00     0.021 C 
ENDBRANCH  14  17
ENDBRANCH  11  14
ENDBRANCH   6  11
ENDBRANCH   1   4
BRANCH   1  19
HETATM   19  N2  UNL     1       7.432  21.565  50.813  1.00  0.00    -0.265 N 
ATOM     20  H2  UNL     1       7.437  22.527  50.474  1.00  0.00     0.180 HD
BRANCH  19  21
HETATM   21  C8  UNL     1       8.307  20.805  50.303  1.00  0.00     0.133 A 
HETATM   22  N3  UNL     1       8.470  19.508  50.566  1.00  0.00    -0.337 N 
HETATM   23  C9  UNL     1       9.437  18.779  49.968  1.00  0.00     0.182 A 
ATOM     24  H3  UNL     1       7.848  19.054  51.235  1.00  0.00     0.168 HD
HETATM   25  N4  UNL     1      10.295  19.318  49.071  1.00  0.00    -0.350 N 
HETATM   26  C10 UNL     1      10.169  20.625  48.773  1.00  0.00     0.067 A 
ATOM     27  H4  UNL     1      11.019  18.750  48.632  1.00  0.00     0.166 HD
HETATM   28  C11 UNL     1      10.838  21.505  47.930  1.00  0.00     0.123 A 
HETATM   29  C14 UNL     1       9.182  21.377  49.380  1.00  0.00     0.093 A 
HETATM   30  N5  UNL     1      10.292  22.726  48.018  1.00  0.00    -0.335 N 
HETATM   31  C12 UNL     1      10.694  23.923  47.304  1.00  0.00     0.158 C 
HETATM   32  C13 UNL     1       9.271  22.680  48.901  1.00  0.00     0.206 A 
HETATM   33  F1  UNL     1       8.491  23.739  49.237  1.00  0.00    -0.185 F 
ENDBRANCH  19  21
ENDBRANCH   1  19
TORSDOF 7
ENDMDL
MODEL 4
REMARK VINA RESULT: -8.650336526      1.319      1.786
REMARK  7 active torsions:
REMARK  status: ('A' for Active; 'I' for Inactive)
REMARK    1  A    between atoms: C2_2  and  N1_3 
REMARK    2  A    between atoms: N1_3  and  C3_4 
REMARK    3  A    between atoms: N1_3  and  S1_6 
REMARK    4  A    between atoms: S1_6  and  C5_9 
REMARK    5  A    between atoms: C7_11  and  S2_12 
REMARK    6  A    between atoms: S2_12  and  N2_15 
REMARK    7  A    between atoms: N2_15  and  C8_17 
ROOT
HETATM    1  S2  UNL     1       6.285  21.201  52.076  1.00  0.00     0.264 S 
HETATM    2  O3  UNL     1       6.012  22.304  53.026  1.00  0.00    -0.200 OA
HETATM    3  O4  UNL     1       6.818  20.038  52.904  1.00  0.00    -0.200 OA
ENDROOT
BRANCH   1   4
HETATM    4  C7  UNL     1       4.760  20.673  51.380  1.00  0.00     0.081 A 
HETATM    5  C6  UNL     1       4.735  20.051  50.170  1.00  0.00     0.050 A 
HETATM    6  C5  UNL     1       3.553  19.598  49.545  1.00  0.00     0.082 A 
HETATM    7  C17 UNL     1       2.421  19.837  50.259  1.00  0.00    -0.039 A 
HETATM    8  C16 UNL     1       2.429  20.472  51.499  1.00  0.00     0.010 A 
HETATM    9  C18 UNL     1       1.112  19.460  49.733  1.00  0.00     0.050 C 
HETATM   10  C15 UNL     1       3.594  20.898  52.077  1.00  0.00     0.026 A 
BRANCH   6  11
HETATM   11  S1  UNL     1       3.709  18.794  48.035  1.00  0.00     0.244 S 
HETATM   12  O1  UNL     1       2.854  19.497  46.961  1.00  0.00    -0.206 OA
HETATM   13  O2  UNL     1       5.135  19.014  47.525  1.00  0.00    -0.206 OA
BRANCH  11  14
HETATM   14  N1  UNL     1       3.418  17.144  47.966  1.00  0.00    -0.207 NA
BRANCH  14  15
HETATM   15  C2  UNL     1       3.381  16.397  49.185  1.00  0.00     0.103 C 
HETATM   16  C1  UNL     1       4.719  16.074  49.788  1.00  0.00     0.021 C 
ENDBRANCH  14  15
BRANCH  14  17
HETATM   17  C3  UNL     1       2.325  16.737  47.131  1.00  0.00     0.103 C 
HETATM   18  C4  UNL     1       1.127  16.248  47.878  1.00  0.00     0.021 C 
ENDBRANCH  14  17
ENDBRANCH  11  14
ENDBRANCH   6  11
ENDBRANCH   1   4
BRANCH   1  19
HETATM   19  N2  UNL     1       7.438  21.543  50.884  1.00  0.00    -0.265 N 
ATOM     20  H2  UNL     1       7.428  22.498  50.524  1.00  0.00     0.180 HD
BRANCH  19  21
HETATM   21  C8  UNL     1       8.312  20.781  50.378  1.00  0.00     0.133 A 
HETATM   22  N3  UNL     1       8.480  19.487  50.652  1.00  0.00    -0.337 N 
HETATM   23  C9  UNL     1       9.446  18.754  50.057  1.00  0.00     0.182 A 
ATOM     24  H3  UNL     1       7.863  19.038  51.329  1.00  0.00     0.168 HD
HETATM   25  N4  UNL     1      10.298  19.287  49.150  1.00  0.00    -0.350 N 
HETATM   26  C10 UNL     1      10.167  20.590  48.840  1.00  0.00     0.067 A 
ATOM     27  H4  UNL     1      11.021  18.716  48.714  1.00  0.00     0.166 HD
HETATM   28  C11 UNL     1      10.829  21.464  47.985  1.00  0.00     0.123 A 
HETATM   29  C14 UNL     1       9.181  21.345  49.445  1.00  0.00     0.093 A 
HETATM   30  N5  UNL     1      10.281  22.683  48.063  1.00  0.00    -0.335 N 
HETATM   31  C12 UNL     1      10.676  23.875  47.335  1.00  0.00     0.158 C 
HETATM   32  C13 UNL     1       9.265  22.644  48.952  1.00  0.00     0.206 A 
HETATM   33  F1  UNL     1       8.484  23.704  49.281  1.00  0.00    -0.185 F 
ENDBRANCH  19  21
ENDBRANCH   1  19
TORSDOF 7
ENDMDL
MODEL 5
REMARK VINA RESULT: -8.424237156      2.828      5.649
REMARK  7 active torsions:
REMARK  status: ('A' for Active; 'I' for Inactive)
REMARK    1  A    between atoms: C2_2  and  N1_3 
REMARK    2  A    between atoms: N1_3  and  C3_4 
REMARK    3  A    between atoms: N1_3  and  S1_6 
REMARK    4  A    between atoms: S1_6  and  C5_9 
REMARK    5  A    between atoms: C7_11  and  S2_12 
REMARK    6  A    between atoms: S2_12  and  N2_15 
REMARK    7  A    between atoms: N2_15  and  C8_17 
ROOT
HETATM    1  S2  UNL     1       4.755  19.728  49.875  1.00  0.00     0.264 S 
HETATM    2  O3  UNL     1       4.566  18.270  49.691  1.00  0.00    -0.200 OA
HETATM    3  O4  UNL     1       4.151  20.400  48.647  1.00  0.00    -0.200 OA
ENDROOT
BRANCH   1   4
HETATM    4  C7  UNL     1       3.801  20.245  51.257  1.00  0.00     0.081 A 
HETATM    5  C6  UNL     1       4.415  20.693  52.387  1.00  0.00     0.050 A 
HETATM    6  C5  UNL     1       3.720  21.124  53.537  1.00  0.00     0.082 A 
HETATM    7  C17 UNL     1       2.367  21.057  53.427  1.00  0.00    -0.039 A 
HETATM    8  C16 UNL     1       1.723  20.601  52.279  1.00  0.00     0.010 A 
HETATM    9  C18 UNL     1       1.506  21.434  54.545  1.00  0.00     0.050 C 
HETATM   10  C15 UNL     1       2.428  20.190  51.180  1.00  0.00     0.026 A 
BRANCH   6  11
HETATM   11  S1  UNL     1       4.653  21.699  54.861  1.00  0.00     0.244 S 
HETATM   12  O1  UNL     1       3.936  22.875  55.554  1.00  0.00    -0.206 OA
HETATM   13  O2  UNL     1       4.653  20.619  55.946  1.00  0.00    -0.206 OA
BRANCH  11  14
HETATM   14  N1  UNL     1       6.255  22.119  54.596  1.00  0.00    -0.207 NA
BRANCH  14  15
HETATM   15  C2  UNL     1       6.961  22.831  55.616  1.00  0.00     0.103 C 
HETATM   16  C1  UNL     1       7.469  21.994  56.757  1.00  0.00     0.021 C 
ENDBRANCH  14  15
BRANCH  14  17
HETATM   17  C3  UNL     1       7.096  21.078  54.080  1.00  0.00     0.103 C 
HETATM   18  C4  UNL     1       8.029  21.519  52.999  1.00  0.00     0.021 C 
ENDBRANCH  14  17
ENDBRANCH  11  14
ENDBRANCH   6  11
ENDBRANCH   1   4
BRANCH   1  19
HETATM   19  N2  UNL     1       6.365  20.238  49.991  1.00  0.00    -0.265 N 
ATOM     20  H2  UNL     1       6.501  21.182  50.353  1.00  0.00     0.180 HD
BRANCH  19  21
HETATM   21  C8  UNL     1       7.424  19.612  49.691  1.00  0.00     0.133 A 
HETATM   22  N3  UNL     1       7.565  18.288  49.638  1.00  0.00    -0.337 N 
HETATM   23  C9  UNL     1       8.741  17.712  49.307  1.00  0.00     0.182 A 
ATOM     24  H3  UNL     1       6.765  17.693  49.854  1.00  0.00     0.168 HD
HETATM   25  N4  UNL     1       9.841  18.442  49.009  1.00  0.00    -0.350 N 
HETATM   26  C10 UNL     1       9.747  19.784  49.048  1.00  0.00     0.067 A 
ATOM     27  H4  UNL     1      10.719  17.986  48.762  1.00  0.00     0.166 HD
HETATM   28  C11 UNL     1      10.628  20.834  48.814  1.00  0.00     0.123 A 
HETATM   29  C14 UNL     1       8.548  20.379  49.386  1.00  0.00     0.093 A 
HETATM   30  N5  UNL     1      10.003  22.004  48.999  1.00  0.00    -0.335 N 
HETATM   31  C12 UNL     1      10.565  23.334  48.856  1.00  0.00     0.158 C 
HETATM   32  C13 UNL     1       8.722  21.759  49.352  1.00  0.00     0.206 A 
HETATM   33  F1  UNL     1       7.797  22.716  49.617  1.00  0.00    -0.185 F 
ENDBRANCH  19  21
ENDBRANCH   1  19
TORSDOF 7
ENDMDL
