MODEL 1
REMARK VINA RESULT: -6.389113516      0.000      0.000
REMARK  4 active torsions:
REMARK  status: ('A' for Active; 'I' for Inactive)
REMARK    1  A    between atoms: N1_1  and  N2_4 
REMARK    2  A    between atoms: N2_4  and  N5_18 
REMARK    3  A    between atoms: C1_5  and  C2_6 
REMARK    4  A    between atoms: C5_15  and  O3_16 
ROOT
HETATM    1  C2  UNL     1       5.567 -12.716   3.552  1.00  0.00     0.094 A 
HETATM    2  N3  UNL     1       4.704 -12.061   2.757  1.00  0.00    -0.305 N 
ATOM      3  H3  UNL     1       4.494 -11.085   2.969  1.00  0.00     0.171 HD
HETATM    4  C3  UNL     1       4.104 -12.627   1.696  1.00  0.00     0.327 A 
HETATM    5  O1  UNL     1       3.289 -11.961   0.969  1.00  0.00    -0.247 OA
HETATM    6  N4  UNL     1       4.333 -13.904   1.357  1.00  0.00    -0.273 N 
ATOM      7  H4  UNL     1       3.876 -14.331   0.551  1.00  0.00     0.173 HD
HETATM    8  C4  UNL     1       5.186 -14.594   2.122  1.00  0.00     0.284 A 
HETATM    9  O2  UNL     1       5.404 -15.789   1.811  1.00  0.00    -0.265 OA
HETATM   10  C5  UNL     1       5.826 -14.044   3.227  1.00  0.00     0.163 A 
ENDROOT
BRANCH   1  11
HETATM   11  C1  UNL     1       6.213 -12.092   4.701  1.00  0.00     0.169 C 
HETATM   12  N2  UNL     1       7.341 -11.559   4.836  1.00  0.00    -0.206 N 
BRANCH  12  13
HETATM   13  N1  UNL     1       7.611 -11.048   6.159  1.00  0.00    -0.324 N 
ATOM     14  H12 UNL     1       6.834 -11.123   6.815  1.00  0.00     0.178 HD
ATOM     15  H11 UNL     1       8.550 -10.669   6.285  1.00  0.00     0.178 HD
ENDBRANCH  12  13
BRANCH  12  16
HETATM   16  N5  UNL     1       8.358 -11.383   3.927  1.00  0.00    -0.242 N 
HETATM   17  S1  UNL     1       8.060 -10.659   2.500  1.00  0.00     0.061 SA
ATOM     18  H5  UNL     1       9.300 -11.706   4.148  1.00  0.00     0.198 HD
ENDBRANCH  12  16
ENDBRANCH   1  11
BRANCH  10  19
HETATM   19  O3  UNL     1       6.677 -14.818   3.948  1.00  0.00    -0.354 OA
ATOM     20  H3  UNL     1       7.064 -15.613   3.598  1.00  0.00     0.218 HD
ENDBRANCH  10  19
TORSDOF 4
ENDMDL
MODEL 2
REMARK VINA RESULT: -6.300846333      2.606      4.576
REMARK  4 active torsions:
REMARK  status: ('A' for Active; 'I' for Inactive)
REMARK    1  A    between atoms: N1_1  and  N2_4 
REMARK    2  A    between atoms: N2_4  and  N5_18 
REMARK    3  A    between atoms: C1_5  and  C2_6 
REMARK    4  A    between atoms: C5_15  and  O3_16 
ROOT
HETATM    1  C2  UNL     1       5.602 -14.049   1.870  1.00  0.00     0.094 A 
HETATM    2  N3  UNL     1       5.132 -12.918   1.315  1.00  0.00    -0.305 N 
ATOM      3  H3  UNL     1       4.670 -12.980   0.408  1.00  0.00     0.171 HD
HETATM    4  C3  UNL     1       5.242 -11.711   1.896  1.00  0.00     0.327 A 
HETATM    5  O1  UNL     1       4.779 -10.663   1.327  1.00  0.00    -0.247 OA
HETATM    6  N4  UNL     1       5.837 -11.555   3.087  1.00  0.00    -0.273 N 
ATOM      7  H4  UNL     1       5.919 -10.637   3.525  1.00  0.00     0.173 HD
HETATM    8  C4  UNL     1       6.319 -12.656   3.676  1.00  0.00     0.284 A 
HETATM    9  O2  UNL     1       6.878 -12.517   4.790  1.00  0.00    -0.265 OA
HETATM   10  C5  UNL     1       6.226 -13.920   3.107  1.00  0.00     0.163 A 
ENDROOT
BRANCH   1  11
HETATM   11  C1  UNL     1       5.478 -15.353   1.231  1.00  0.00     0.169 C 
HETATM   12  N2  UNL     1       5.612 -15.712   0.036  1.00  0.00    -0.206 N 
BRANCH  12  13
HETATM   13  N1  UNL     1       5.403 -17.122  -0.197  1.00  0.00    -0.324 N 
ATOM     14  H12 UNL     1       4.721 -17.562   0.421  1.00  0.00     0.178 HD
ATOM     15  H11 UNL     1       5.961 -17.515  -0.954  1.00  0.00     0.178 HD
ENDBRANCH  12  13
BRANCH  12  16
HETATM   16  N5  UNL     1       5.925 -14.980  -1.086  1.00  0.00    -0.242 N 
HETATM   17  S1  UNL     1       7.026 -15.542  -2.144  1.00  0.00     0.061 SA
ATOM     18  H5  UNL     1       5.468 -14.084  -1.254  1.00  0.00     0.198 HD
ENDBRANCH  12  16
ENDBRANCH   1  11
BRANCH  10  19
HETATM   19  O3  UNL     1       6.744 -14.983   3.776  1.00  0.00    -0.354 OA
ATOM     20  H3  UNL     1       6.999 -14.935   4.690  1.00  0.00     0.218 HD
ENDBRANCH  10  19
TORSDOF 4
ENDMDL
MODEL 3
REMARK VINA RESULT: -6.161415502      2.974      4.677
REMARK  4 active torsions:
REMARK  status: ('A' for Active; 'I' for Inactive)
REMARK    1  A    between atoms: N1_1  and  N2_4 
REMARK    2  A    between atoms: N2_4  and  N5_18 
REMARK    3  A    between atoms: C1_5  and  C2_6 
REMARK    4  A    between atoms: C5_15  and  O3_16 
ROOT
HETATM    1  C2  UNL     1       5.971 -13.919   2.888  1.00  0.00     0.094 A 
HETATM    2  N3  UNL     1       6.629 -13.529   3.993  1.00  0.00    -0.305 N 
ATOM      3  H3  UNL     1       7.001 -14.247   4.614  1.00  0.00     0.171 HD
HETATM    4  C3  UNL     1       6.820 -12.239   4.320  1.00  0.00     0.327 A 
HETATM    5  O1  UNL     1       7.454 -11.918   5.385  1.00  0.00    -0.247 OA
HETATM    6  N4  UNL     1       6.360 -11.242   3.551  1.00  0.00    -0.273 N 
ATOM      7  H4  UNL     1       6.507 -10.264   3.803  1.00  0.00     0.173 HD
HETATM    8  C4  UNL     1       5.698 -11.586   2.440  1.00  0.00     0.284 A 
HETATM    9  O2  UNL     1       5.263 -10.658   1.717  1.00  0.00    -0.265 OA
HETATM   10  C5  UNL     1       5.480 -12.907   2.068  1.00  0.00     0.163 A 
ENDROOT
BRANCH   1  11
HETATM   11  C1  UNL     1       5.768 -15.320   2.542  1.00  0.00     0.169 C 
HETATM   12  N2  UNL     1       6.578 -16.228   2.235  1.00  0.00    -0.206 N 
BRANCH  12  13
HETATM   13  N1  UNL     1       5.971 -17.508   1.957  1.00  0.00    -0.324 N 
ATOM     14  H12 UNL     1       4.968 -17.557   2.142  1.00  0.00     0.178 HD
ATOM     15  H11 UNL     1       6.614 -18.218   1.606  1.00  0.00     0.178 HD
ENDBRANCH  12  13
BRANCH  12  16
HETATM   16  N5  UNL     1       7.949 -16.201   2.123  1.00  0.00    -0.242 N 
HETATM   17  S1  UNL     1       8.678 -16.939   0.869  1.00  0.00     0.061 SA
ATOM     18  H5  UNL     1       8.508 -15.718   2.826  1.00  0.00     0.198 HD
ENDBRANCH  12  16
ENDBRANCH   1  11
BRANCH  10  19
HETATM   19  O3  UNL     1       4.797 -13.164   0.922  1.00  0.00    -0.354 OA
ATOM     20  H3  UNL     1       4.059 -12.637   0.639  1.00  0.00     0.218 HD
ENDBRANCH  10  19
TORSDOF 4
ENDMDL
MODEL 4
REMARK VINA RESULT: -6.155752013      3.056      3.767
REMARK  4 active torsions:
REMARK  status: ('A' for Active; 'I' for Inactive)
REMARK    1  A    between atoms: N1_1  and  N2_4 
REMARK    2  A    between atoms: N2_4  and  N5_18 
REMARK    3  A    between atoms: C1_5  and  C2_6 
REMARK    4  A    between atoms: C5_15  and  O3_16 
ROOT
HETATM    1  C2  UNL     1       5.778 -13.296   2.941  1.00  0.00     0.094 A 
HETATM    2  N3  UNL     1       4.676 -13.160   2.183  1.00  0.00    -0.305 N 
ATOM      3  H3  UNL     1       4.110 -13.989   1.998  1.00  0.00     0.171 HD
HETATM    4  C3  UNL     1       4.282 -11.987   1.659  1.00  0.00     0.327 A 
HETATM    5  O1  UNL     1       3.224 -11.909   0.943  1.00  0.00    -0.247 OA
HETATM    6  N4  UNL     1       4.975 -10.858   1.861  1.00  0.00    -0.273 N 
ATOM      7  H4  UNL     1       4.673  -9.969   1.461  1.00  0.00     0.173 HD
HETATM    8  C4  UNL     1       6.080 -10.947   2.610  1.00  0.00     0.284 A 
HETATM    9  O2  UNL     1       6.734  -9.895   2.802  1.00  0.00    -0.265 OA
HETATM   10  C5  UNL     1       6.520 -12.141   3.169  1.00  0.00     0.163 A 
ENDROOT
BRANCH   1  11
HETATM   11  C1  UNL     1       6.197 -14.573   3.505  1.00  0.00     0.169 C 
HETATM   12  N2  UNL     1       6.899 -15.501   3.035  1.00  0.00    -0.206 N 
BRANCH  12  13
HETATM   13  N1  UNL     1       7.088 -16.623   3.926  1.00  0.00    -0.324 N 
ATOM     14  H12 UNL     1       7.981 -16.633   4.419  1.00  0.00     0.178 HD
ATOM     15  H11 UNL     1       6.306 -17.276   3.959  1.00  0.00     0.178 HD
ENDBRANCH  12  13
BRANCH  12  16
HETATM   16  N5  UNL     1       7.517 -15.622   1.812  1.00  0.00    -0.242 N 
HETATM   17  S1  UNL     1       6.673 -16.142   0.522  1.00  0.00     0.061 SA
ATOM     18  H5  UNL     1       8.504 -15.385   1.714  1.00  0.00     0.198 HD
ENDBRANCH  12  16
ENDBRANCH   1  11
BRANCH  10  19
HETATM   19  O3  UNL     1       7.654 -12.140   3.917  1.00  0.00    -0.354 OA
ATOM     20  H3  UNL     1       8.461 -11.735   3.619  1.00  0.00     0.218 HD
ENDBRANCH  10  19
TORSDOF 4
ENDMDL
MODEL 5
REMARK VINA RESULT: -6.141578241      2.778      4.771
REMARK  4 active torsions:
REMARK  status: ('A' for Active; 'I' for Inactive)
REMARK    1  A    between atoms: N1_1  and  N2_4 
REMARK    2  A    between atoms: N2_4  and  N5_18 
REMARK    3  A    between atoms: C1_5  and  C2_6 
REMARK    4  A    between atoms: C5_15  and  O3_16 
ROOT
HETATM    1  C2  UNL     1       5.921 -13.933   2.757  1.00  0.00     0.094 A 
HETATM    2  N3  UNL     1       6.616 -13.538   3.837  1.00  0.00    -0.305 N 
ATOM      3  H3  UNL     1       7.048 -14.252   4.423  1.00  0.00     0.171 HD
HETATM    4  C3  UNL     1       6.770 -12.248   4.182  1.00  0.00     0.327 A 
HETATM    5  O1  UNL     1       7.442 -11.921   5.221  1.00  0.00    -0.247 OA
HETATM    6  N4  UNL     1       6.231 -11.257   3.459  1.00  0.00    -0.273 N 
ATOM      7  H4  UNL     1       6.350 -10.278   3.723  1.00  0.00     0.173 HD
HETATM    8  C4  UNL     1       5.530 -11.606   2.374  1.00  0.00     0.284 A 
HETATM    9  O2  UNL     1       5.022 -10.684   1.693  1.00  0.00    -0.265 OA
HETATM   10  C5  UNL     1       5.348 -12.927   1.985  1.00  0.00     0.163 A 
ENDROOT
BRANCH   1  11
HETATM   11  C1  UNL     1       5.759 -15.336   2.391  1.00  0.00     0.169 C 
HETATM   12  N2  UNL     1       6.126 -15.980   1.379  1.00  0.00    -0.206 N 
BRANCH  12  13
HETATM   13  N1  UNL     1       5.767 -17.379   1.393  1.00  0.00    -0.324 N 
ATOM     14  H12 UNL     1       4.814 -17.574   1.699  1.00  0.00     0.178 HD
ATOM     15  H11 UNL     1       6.509 -18.012   1.095  1.00  0.00     0.178 HD
ENDBRANCH  12  13
BRANCH  12  16
HETATM   16  N5  UNL     1       6.815 -15.570   0.261  1.00  0.00    -0.242 N 
HETATM   17  S1  UNL     1       6.111 -15.647  -1.203  1.00  0.00     0.061 SA
ATOM     18  H5  UNL     1       7.768 -15.217   0.351  1.00  0.00     0.198 HD
ENDBRANCH  12  16
ENDBRANCH   1  11
BRANCH  10  19
HETATM   19  O3  UNL     1       4.621 -13.191   0.868  1.00  0.00    -0.354 OA
ATOM     20  H3  UNL     1       4.969 -13.071  -0.008  1.00  0.00     0.218 HD
ENDBRANCH  10  19
TORSDOF 4
ENDMDL
