MODEL 1
REMARK VINA RESULT: -6.484198261      0.000      0.000
REMARK  2 active torsions:
REMARK  status: ('A' for Active; 'I' for Inactive)
REMARK    1  A    between atoms: C2_5  and  N3_6 
REMARK    2  A    between atoms: N3_6  and  N4_8 
ROOT
HETATM    1  C1  UNL     1      25.551  47.218  67.426  1.00  0.00     0.183 C 
HETATM    2  N1  UNL     1      24.200  47.715  67.612  1.00  0.00    -0.232 N 
HETATM    3  N2  UNL     1      23.670  48.843  67.135  1.00  0.00    -0.125 N 
ATOM      4  H2  UNL     1      24.163  49.525  66.558  1.00  0.00     0.206 HD
HETATM    5  C2  UNL     1      22.393  48.946  67.526  1.00  0.00     0.715 A 
HETATM    6  N7  UNL     1      22.119  47.861  68.262  1.00  0.00    -0.137 N 
ATOM      7  H7  UNL     1      21.225  47.648  68.704  1.00  0.00     0.189 HD
HETATM    8  C4  UNL     1      23.235  47.097  68.317  1.00  0.00     0.355 A 
HETATM    9  O1  UNL     1      23.387  45.992  68.915  1.00  0.00    -0.244 OA
ENDROOT
BRANCH   5  10
HETATM   10  N3  UNL     1      21.564  49.889  67.264  1.00  0.00    -0.128 N 
ATOM     11  H3  UNL     1      21.921  50.820  67.051  1.00  0.00     0.205 HD
BRANCH  10  12
HETATM   12  N4  UNL     1      20.184  49.673  67.263  1.00  0.00    -0.262 N 
HETATM   13  C3  UNL     1      19.497  49.622  66.171  1.00  0.00     0.216 C 
HETATM   14  N5  UNL     1      20.185  49.792  64.949  1.00  0.00    -0.065 NA
HETATM   15  N6  UNL     1      18.092  49.402  66.172  1.00  0.00    -0.065 NA
ATOM     16  H4  UNL     1      19.703  49.553  68.155  1.00  0.00     0.190 HD
ENDBRANCH  10  12
ENDBRANCH   5  10
TORSDOF 2
ENDMDL
MODEL 2
REMARK VINA RESULT: -6.266417677      2.554      5.166
REMARK  2 active torsions:
REMARK  status: ('A' for Active; 'I' for Inactive)
REMARK    1  A    between atoms: C2_5  and  N3_6 
REMARK    2  A    between atoms: N3_6  and  N4_8 
ROOT
HETATM    1  C1  UNL     1      17.919  49.472  67.514  1.00  0.00     0.183 C 
HETATM    2  N1  UNL     1      19.227  49.600  66.898  1.00  0.00    -0.232 N 
HETATM    3  N2  UNL     1      20.404  49.765  67.505  1.00  0.00    -0.125 N 
ATOM      4  H2  UNL     1      20.540  49.825  68.515  1.00  0.00     0.206 HD
HETATM    5  C2  UNL     1      21.381  49.840  66.591  1.00  0.00     0.715 A 
HETATM    6  N7  UNL     1      20.802  49.720  65.389  1.00  0.00    -0.137 N 
ATOM      7  H7  UNL     1      21.282  49.737  64.489  1.00  0.00     0.189 HD
HETATM    8  C4  UNL     1      19.470  49.570  65.575  1.00  0.00     0.355 A 
HETATM    9  O1  UNL     1      18.576  49.427  64.690  1.00  0.00    -0.244 OA
ENDROOT
BRANCH   5  10
HETATM   10  N3  UNL     1      22.637  49.998  66.793  1.00  0.00    -0.128 N 
ATOM     11  H3  UNL     1      23.255  50.143  65.995  1.00  0.00     0.205 HD
BRANCH  10  12
HETATM   12  N4  UNL     1      23.181  49.976  68.079  1.00  0.00    -0.262 N 
HETATM   13  C3  UNL     1      24.035  49.082  68.450  1.00  0.00     0.216 C 
HETATM   14  N5  UNL     1      24.416  48.101  67.507  1.00  0.00    -0.065 NA
HETATM   15  N6  UNL     1      24.588  49.061  69.760  1.00  0.00    -0.065 NA
ATOM     16  H4  UNL     1      22.894  50.692  68.747  1.00  0.00     0.190 HD
ENDBRANCH  10  12
ENDBRANCH   5  10
TORSDOF 2
ENDMDL
MODEL 3
REMARK VINA RESULT: -6.255793588      2.115      2.779
REMARK  2 active torsions:
REMARK  status: ('A' for Active; 'I' for Inactive)
REMARK    1  A    between atoms: C2_5  and  N3_6 
REMARK    2  A    between atoms: N3_6  and  N4_8 
ROOT
HETATM    1  C1  UNL     1      23.817  47.584  68.167  1.00  0.00     0.183 C 
HETATM    2  N1  UNL     1      22.816  48.493  67.641  1.00  0.00    -0.232 N 
HETATM    3  N2  UNL     1      21.502  48.490  67.878  1.00  0.00    -0.125 N 
ATOM      4  H2  UNL     1      21.016  47.824  68.479  1.00  0.00     0.206 HD
HETATM    5  C2  UNL     1      20.916  49.491  67.207  1.00  0.00     0.715 A 
HETATM    6  N7  UNL     1      21.883  50.133  66.539  1.00  0.00    -0.137 N 
ATOM      7  H7  UNL     1      21.755  50.945  65.934  1.00  0.00     0.189 HD
HETATM    8  C4  UNL     1      23.059  49.519  66.805  1.00  0.00     0.355 A 
HETATM    9  O1  UNL     1      24.207  49.822  66.366  1.00  0.00    -0.244 OA
ENDROOT
BRANCH   5  10
HETATM   10  N3  UNL     1      19.673  49.802  67.187  1.00  0.00    -0.128 N 
ATOM     11  H3  UNL     1      19.266  50.171  66.328  1.00  0.00     0.205 HD
BRANCH  10  12
HETATM   12  N4  UNL     1      18.860  49.649  68.312  1.00  0.00    -0.262 N 
HETATM   13  C3  UNL     1      17.615  49.318  68.222  1.00  0.00     0.216 C 
HETATM   14  N5  UNL     1      17.079  49.110  66.931  1.00  0.00    -0.065 NA
HETATM   15  N6  UNL     1      16.789  49.162  69.369  1.00  0.00    -0.065 NA
ATOM     16  H4  UNL     1      19.263  49.803  69.237  1.00  0.00     0.190 HD
ENDBRANCH  10  12
ENDBRANCH   5  10
TORSDOF 2
ENDMDL
MODEL 4
REMARK VINA RESULT: -6.205487816      1.345      1.686
REMARK  2 active torsions:
REMARK  status: ('A' for Active; 'I' for Inactive)
REMARK    1  A    between atoms: C2_5  and  N3_6 
REMARK    2  A    between atoms: N3_6  and  N4_8 
ROOT
HETATM    1  C1  UNL     1      24.874  48.855  66.910  1.00  0.00     0.183 C 
HETATM    2  N1  UNL     1      23.453  48.833  67.203  1.00  0.00    -0.232 N 
HETATM    3  N2  UNL     1      22.519  49.693  66.790  1.00  0.00    -0.125 N 
ATOM      4  H2  UNL     1      22.690  50.504  66.196  1.00  0.00     0.206 HD
HETATM    5  C2  UNL     1      21.323  49.331  67.273  1.00  0.00     0.715 A 
HETATM    6  N7  UNL     1      21.513  48.223  68.002  1.00  0.00    -0.137 N 
ATOM      7  H7  UNL     1      20.790  47.704  68.501  1.00  0.00     0.189 HD
HETATM    8  C4  UNL     1      22.829  47.912  67.960  1.00  0.00     0.355 A 
HETATM    9  O1  UNL     1      23.412  46.938  68.520  1.00  0.00    -0.244 OA
ENDROOT
BRANCH   5  10
HETATM   10  N3  UNL     1      20.193  49.911  67.093  1.00  0.00    -0.128 N 
ATOM     11  H3  UNL     1      20.070  50.517  66.282  1.00  0.00     0.205 HD
BRANCH  10  12
HETATM   12  N4  UNL     1      19.128  49.735  67.978  1.00  0.00    -0.262 N 
HETATM   13  C3  UNL     1      17.934  49.458  67.572  1.00  0.00     0.216 C 
HETATM   14  N5  UNL     1      17.722  49.335  66.180  1.00  0.00    -0.065 NA
HETATM   15  N6  UNL     1      16.850  49.278  68.475  1.00  0.00    -0.065 NA
ATOM     16  H4  UNL     1      19.299  49.827  68.980  1.00  0.00     0.190 HD
ENDBRANCH  10  12
ENDBRANCH   5  10
TORSDOF 2
ENDMDL
MODEL 5
REMARK VINA RESULT: -6.200583005      3.575      5.026
REMARK  2 active torsions:
REMARK  status: ('A' for Active; 'I' for Inactive)
REMARK    1  A    between atoms: C2_5  and  N3_6 
REMARK    2  A    between atoms: N3_6  and  N4_8 
ROOT
HETATM    1  C1  UNL     1      25.834  42.003  67.028  1.00  0.00     0.183 C 
HETATM    2  N1  UNL     1      25.104  42.885  67.920  1.00  0.00    -0.232 N 
HETATM    3  N2  UNL     1      24.535  44.056  67.629  1.00  0.00    -0.125 N 
ATOM      4  H2  UNL     1      24.540  44.498  66.708  1.00  0.00     0.206 HD
HETATM    5  C2  UNL     1      23.956  44.567  68.724  1.00  0.00     0.715 A 
HETATM    6  N7  UNL     1      24.168  43.697  69.720  1.00  0.00    -0.137 N 
ATOM      7  H7  UNL     1      23.850  43.801  70.684  1.00  0.00     0.189 HD
HETATM    8  C4  UNL     1      24.878  42.656  69.227  1.00  0.00     0.355 A 
HETATM    9  O1  UNL     1      25.278  41.628  69.849  1.00  0.00    -0.244 OA
ENDROOT
BRANCH   5  10
HETATM   10  N3  UNL     1      23.316  45.672  68.832  1.00  0.00    -0.128 N 
ATOM     11  H3  UNL     1      22.298  45.665  68.769  1.00  0.00     0.205 HD
BRANCH  10  12
HETATM   12  N4  UNL     1      23.976  46.885  69.036  1.00  0.00    -0.262 N 
HETATM   13  C3  UNL     1      23.468  48.015  68.671  1.00  0.00     0.216 C 
HETATM   14  N5  UNL     1      22.201  47.999  68.048  1.00  0.00    -0.065 NA
HETATM   15  N6  UNL     1      24.142  49.250  68.880  1.00  0.00    -0.065 NA
ATOM     16  H4  UNL     1      24.891  46.879  69.488  1.00  0.00     0.190 HD
ENDBRANCH  10  12
ENDBRANCH   5  10
TORSDOF 2
ENDMDL
