MODEL 1
REMARK VINA RESULT: -8.542798577      0.000      0.000
REMARK  6 active torsions:
REMARK  status: ('A' for Active; 'I' for Inactive)
REMARK    1  A    between atoms: N1_2  and  S1_4 
REMARK    2  A    between atoms: S1_4  and  C3_7 
REMARK    3  A    between atoms: C7_11  and  N2_12 
REMARK       I    between atoms: N2_12  and  C8_14 
REMARK    4  A    between atoms: C8_14  and  C9_16 
REMARK    5  A    between atoms: C10_17  and  S2_18 
REMARK    6  A    between atoms: S2_18  and  C11_21 
ROOT
HETATM    1  N2  UNL     1      -3.698   9.893  20.193  1.00  0.00    -0.324 N 
ATOM      2  H2  UNL     1      -2.680   9.946  20.214  1.00  0.00     0.169 HD
HETATM    3  C8  UNL     1      -4.405  10.389  21.298  1.00  0.00     0.246 C 
HETATM    4  O3  UNL     1      -5.656  10.356  21.317  1.00  0.00    -0.268 OA
ENDROOT
BRANCH   1   5
HETATM    5  C7  UNL     1      -4.309   9.323  19.051  1.00  0.00     0.036 A 
HETATM    6  C6  UNL     1      -4.524   7.944  19.019  1.00  0.00     0.029 A 
HETATM    7  C5  UNL     1      -5.132   7.370  17.956  1.00  0.00     0.004 A 
HETATM    8  C4  UNL     1      -5.547   8.138  16.892  1.00  0.00     0.025 A 
HETATM    9  C3  UNL     1      -5.346   9.491  16.904  1.00  0.00     0.076 A 
HETATM   10  C17 UNL     1      -4.722  10.067  18.000  1.00  0.00     0.054 A 
BRANCH   9  11
HETATM   11  S1  UNL     1      -5.878  10.478  15.537  1.00  0.00     0.243 S 
HETATM   12  O1  UNL     1      -6.307  11.804  16.053  1.00  0.00    -0.206 OA
HETATM   13  O2  UNL     1      -7.009   9.753  14.841  1.00  0.00    -0.206 OA
BRANCH  11  14
HETATM   14  N1  UNL     1      -4.568  10.556  14.440  1.00  0.00    -0.215 NA
HETATM   15  C1  UNL     1      -3.487  11.387  14.917  1.00  0.00     0.129 C 
HETATM   16  C2  UNL     1      -4.972  10.886  13.095  1.00  0.00     0.129 C 
ENDBRANCH  11  14
ENDBRANCH   9  11
ENDBRANCH   1   5
BRANCH   3  17
HETATM   17  C9  UNL     1      -3.733  10.952  22.446  1.00  0.00     0.086 C 
HETATM   18  C10 UNL     1      -2.472  11.279  22.416  1.00  0.00     0.120 C 
BRANCH  18  19
HETATM   19  S2  UNL     1      -1.652  11.967  23.820  1.00  0.00     0.197 S 
HETATM   20  O4  UNL     1      -0.251  12.363  23.503  1.00  0.00    -0.218 OA
HETATM   21  O5  UNL     1      -2.407  13.173  24.327  1.00  0.00    -0.218 OA
BRANCH  19  22
HETATM   22  C11 UNL     1      -1.599  10.712  25.035  1.00  0.00     0.063 A 
HETATM   23  C12 UNL     1      -0.580   9.792  24.973  1.00  0.00     0.025 A 
HETATM   24  C13 UNL     1      -0.501   8.782  25.915  1.00  0.00     0.020 A 
HETATM   25  C14 UNL     1      -1.451   8.705  26.918  1.00  0.00     0.011 A 
HETATM   26 BR1  UNL     1      -1.323   7.305  28.209  1.00  0.00    -0.051 Br
HETATM   27  C15 UNL     1      -2.468   9.626  26.978  1.00  0.00     0.020 A 
HETATM   28  C16 UNL     1      -2.538  10.627  26.035  1.00  0.00     0.025 A 
ENDBRANCH  19  22
ENDBRANCH  18  19
ENDBRANCH   3  17
TORSDOF 6
ENDMDL
MODEL 2
REMARK VINA RESULT: -8.514535831      1.037      1.364
REMARK  6 active torsions:
REMARK  status: ('A' for Active; 'I' for Inactive)
REMARK    1  A    between atoms: N1_2  and  S1_4 
REMARK    2  A    between atoms: S1_4  and  C3_7 
REMARK    3  A    between atoms: C7_11  and  N2_12 
REMARK       I    between atoms: N2_12  and  C8_14 
REMARK    4  A    between atoms: C8_14  and  C9_16 
REMARK    5  A    between atoms: C10_17  and  S2_18 
REMARK    6  A    between atoms: S2_18  and  C11_21 
ROOT
HETATM    1  N2  UNL     1      -3.691   9.868  20.183  1.00  0.00    -0.324 N 
ATOM      2  H2  UNL     1      -2.673   9.928  20.210  1.00  0.00     0.169 HD
HETATM    3  C8  UNL     1      -4.407  10.366  21.282  1.00  0.00     0.246 C 
HETATM    4  O3  UNL     1      -5.657  10.326  21.294  1.00  0.00    -0.268 OA
ENDROOT
BRANCH   1   5
HETATM    5  C7  UNL     1      -4.291   9.289  19.041  1.00  0.00     0.036 A 
HETATM    6  C6  UNL     1      -4.579   7.923  19.050  1.00  0.00     0.029 A 
HETATM    7  C5  UNL     1      -5.180   7.342  17.987  1.00  0.00     0.004 A 
HETATM    8  C4  UNL     1      -5.516   8.090  16.882  1.00  0.00     0.025 A 
HETATM    9  C3  UNL     1      -5.244   9.430  16.853  1.00  0.00     0.076 A 
HETATM   10  C17 UNL     1      -4.628  10.014  17.950  1.00  0.00     0.054 A 
BRANCH   9  11
HETATM   11  S1  UNL     1      -5.676  10.392  15.434  1.00  0.00     0.243 S 
HETATM   12  O1  UNL     1      -4.435  10.695  14.675  1.00  0.00    -0.206 OA
HETATM   13  O2  UNL     1      -6.367  11.652  15.908  1.00  0.00    -0.206 OA
BRANCH  11  14
HETATM   14  N1  UNL     1      -6.822   9.483  14.547  1.00  0.00    -0.215 NA
HETATM   15  C1  UNL     1      -6.716   9.687  13.121  1.00  0.00     0.129 C 
HETATM   16  C2  UNL     1      -8.171   9.641  15.033  1.00  0.00     0.129 C 
ENDBRANCH  11  14
ENDBRANCH   9  11
ENDBRANCH   1   5
BRANCH   3  17
HETATM   17  C9  UNL     1      -3.745  10.939  22.431  1.00  0.00     0.086 C 
HETATM   18  C10 UNL     1      -2.480  11.254  22.412  1.00  0.00     0.120 C 
BRANCH  18  19
HETATM   19  S2  UNL     1      -1.673  11.954  23.817  1.00  0.00     0.197 S 
HETATM   20  O4  UNL     1      -0.275  12.365  23.504  1.00  0.00    -0.218 OA
HETATM   21  O5  UNL     1      -2.443  13.154  24.319  1.00  0.00    -0.218 OA
BRANCH  19  22
HETATM   22  C11 UNL     1      -1.610  10.703  25.036  1.00  0.00     0.063 A 
HETATM   23  C12 UNL     1      -0.588   9.787  24.973  1.00  0.00     0.025 A 
HETATM   24  C13 UNL     1      -0.501   8.780  25.918  1.00  0.00     0.020 A 
HETATM   25  C14 UNL     1      -1.448   8.702  26.924  1.00  0.00     0.011 A 
HETATM   26 BR1  UNL     1      -1.310   7.307  28.218  1.00  0.00    -0.051 Br
HETATM   27  C15 UNL     1      -2.469   9.619  26.985  1.00  0.00     0.020 A 
HETATM   28  C16 UNL     1      -2.546  10.618  26.039  1.00  0.00     0.025 A 
ENDBRANCH  19  22
ENDBRANCH  18  19
ENDBRANCH   3  17
TORSDOF 6
ENDMDL
MODEL 3
REMARK VINA RESULT: -8.483566632      1.134      1.423
REMARK  6 active torsions:
REMARK  status: ('A' for Active; 'I' for Inactive)
REMARK    1  A    between atoms: N1_2  and  S1_4 
REMARK    2  A    between atoms: S1_4  and  C3_7 
REMARK    3  A    between atoms: C7_11  and  N2_12 
REMARK       I    between atoms: N2_12  and  C8_14 
REMARK    4  A    between atoms: C8_14  and  C9_16 
REMARK    5  A    between atoms: C10_17  and  S2_18 
REMARK    6  A    between atoms: S2_18  and  C11_21 
ROOT
HETATM    1  N2  UNL     1      -3.724   9.851  20.164  1.00  0.00    -0.324 N 
ATOM      2  H2  UNL     1      -2.706   9.896  20.205  1.00  0.00     0.169 HD
HETATM    3  C8  UNL     1      -4.448  10.390  21.238  1.00  0.00     0.246 C 
HETATM    4  O3  UNL     1      -5.699  10.368  21.232  1.00  0.00    -0.268 OA
ENDROOT
BRANCH   1   5
HETATM    5  C7  UNL     1      -4.316   9.248  19.030  1.00  0.00     0.036 A 
HETATM    6  C6  UNL     1      -4.624   7.887  19.073  1.00  0.00     0.029 A 
HETATM    7  C5  UNL     1      -5.218   7.286  18.017  1.00  0.00     0.004 A 
HETATM    8  C4  UNL     1      -5.528   8.008  16.887  1.00  0.00     0.025 A 
HETATM    9  C3  UNL     1      -5.235   9.342  16.825  1.00  0.00     0.076 A 
HETATM   10  C17 UNL     1      -4.626   9.947  17.914  1.00  0.00     0.054 A 
BRANCH   9  11
HETATM   11  S1  UNL     1      -5.632  10.270  15.373  1.00  0.00     0.243 S 
HETATM   12  O1  UNL     1      -6.340   9.375  14.421  1.00  0.00    -0.206 OA
HETATM   13  O2  UNL     1      -4.344  10.808  14.789  1.00  0.00    -0.206 OA
BRANCH  11  14
HETATM   14  N1  UNL     1      -6.563  11.612  15.880  1.00  0.00    -0.215 NA
HETATM   15  C1  UNL     1      -7.838  11.230  16.441  1.00  0.00     0.129 C 
HETATM   16  C2  UNL     1      -6.683  12.634  14.869  1.00  0.00     0.129 C 
ENDBRANCH  11  14
ENDBRANCH   9  11
ENDBRANCH   1   5
BRANCH   3  17
HETATM   17  C9  UNL     1      -3.794  10.984  22.380  1.00  0.00     0.086 C 
HETATM   18  C10 UNL     1      -2.509  11.200  22.405  1.00  0.00     0.120 C 
BRANCH  18  19
HETATM   19  S2  UNL     1      -1.712  11.928  23.802  1.00  0.00     0.197 S 
HETATM   20  O4  UNL     1      -0.321  12.359  23.482  1.00  0.00    -0.218 OA
HETATM   21  O5  UNL     1      -2.501  13.119  24.293  1.00  0.00    -0.218 OA
BRANCH  19  22
HETATM   22  C11 UNL     1      -1.625  10.690  25.032  1.00  0.00     0.063 A 
HETATM   23  C12 UNL     1      -0.595   9.782  24.968  1.00  0.00     0.025 A 
HETATM   24  C13 UNL     1      -0.491   8.786  25.922  1.00  0.00     0.020 A 
HETATM   25  C14 UNL     1      -1.426   8.710  26.939  1.00  0.00     0.011 A 
HETATM   26 BR1  UNL     1      -1.263   7.329  28.246  1.00  0.00    -0.051 Br
HETATM   27  C15 UNL     1      -2.455   9.618  27.000  1.00  0.00     0.020 A 
HETATM   28  C16 UNL     1      -2.550  10.606  26.046  1.00  0.00     0.025 A 
ENDBRANCH  19  22
ENDBRANCH  18  19
ENDBRANCH   3  17
TORSDOF 6
ENDMDL
MODEL 4
REMARK VINA RESULT: -8.272043507      1.488      1.502
REMARK  6 active torsions:
REMARK  status: ('A' for Active; 'I' for Inactive)
REMARK    1  A    between atoms: N1_2  and  S1_4 
REMARK    2  A    between atoms: S1_4  and  C3_7 
REMARK    3  A    between atoms: C7_11  and  N2_12 
REMARK       I    between atoms: N2_12  and  C8_14 
REMARK    4  A    between atoms: C8_14  and  C9_16 
REMARK    5  A    between atoms: C10_17  and  S2_18 
REMARK    6  A    between atoms: S2_18  and  C11_21 
ROOT
HETATM    1  N2  UNL     1      -5.467   9.585  21.126  1.00  0.00    -0.324 N 
ATOM      2  H2  UNL     1      -5.988   9.610  22.002  1.00  0.00     0.169 HD
HETATM    3  C8  UNL     1      -4.187  10.160  21.108  1.00  0.00     0.246 C 
HETATM    4  O3  UNL     1      -3.502  10.146  20.061  1.00  0.00    -0.268 OA
ENDROOT
BRANCH   1   5
HETATM    5  C7  UNL     1      -6.079   8.974  20.007  1.00  0.00     0.036 A 
HETATM    6  C6  UNL     1      -6.371   7.610  20.060  1.00  0.00     0.029 A 
HETATM    7  C5  UNL     1      -6.984   7.000  19.020  1.00  0.00     0.004 A 
HETATM    8  C4  UNL     1      -7.327   7.716  17.896  1.00  0.00     0.025 A 
HETATM    9  C3  UNL     1      -7.050   9.054  17.824  1.00  0.00     0.076 A 
HETATM   10  C17 UNL     1      -6.422   9.667  18.897  1.00  0.00     0.054 A 
BRANCH   9  11
HETATM   11  S1  UNL     1      -7.490   9.974  16.380  1.00  0.00     0.243 S 
HETATM   12  O1  UNL     1      -7.488  11.420  16.725  1.00  0.00    -0.206 OA
HETATM   13  O2  UNL     1      -8.852   9.507  15.918  1.00  0.00    -0.206 OA
BRANCH  11  14
HETATM   14  N1  UNL     1      -6.365   9.555  15.162  1.00  0.00    -0.215 NA
HETATM   15  C1  UNL     1      -5.080  10.189  15.344  1.00  0.00     0.129 C 
HETATM   16  C2  UNL     1      -6.885   9.725  13.827  1.00  0.00     0.129 C 
ENDBRANCH  11  14
ENDBRANCH   9  11
ENDBRANCH   1   5
BRANCH   3  17
HETATM   17  C9  UNL     1      -3.611  10.783  22.276  1.00  0.00     0.086 C 
HETATM   18  C10 UNL     1      -2.355  11.129  22.325  1.00  0.00     0.120 C 
BRANCH  18  19
HETATM   19  S2  UNL     1      -1.652  11.891  23.754  1.00  0.00     0.197 S 
HETATM   20  O4  UNL     1      -0.260  12.360  23.502  1.00  0.00    -0.218 OA
HETATM   21  O5  UNL     1      -2.499  13.063  24.192  1.00  0.00    -0.218 OA
BRANCH  19  22
HETATM   22  C11 UNL     1      -1.595  10.667  25.000  1.00  0.00     0.063 A 
HETATM   23  C12 UNL     1      -0.565   9.758  24.969  1.00  0.00     0.025 A 
HETATM   24  C13 UNL     1      -0.483   8.772  25.936  1.00  0.00     0.020 A 
HETATM   25  C14 UNL     1      -1.440   8.708  26.933  1.00  0.00     0.011 A 
HETATM   26 BR1  UNL     1      -1.308   7.342  28.258  1.00  0.00    -0.051 Br
HETATM   27  C15 UNL     1      -2.469   9.619  26.961  1.00  0.00     0.020 A 
HETATM   28  C16 UNL     1      -2.541  10.596  25.994  1.00  0.00     0.025 A 
ENDBRANCH  19  22
ENDBRANCH  18  19
ENDBRANCH   3  17
TORSDOF 6
ENDMDL
MODEL 5
REMARK VINA RESULT: -8.017053933      1.767      2.308
REMARK  6 active torsions:
REMARK  status: ('A' for Active; 'I' for Inactive)
REMARK    1  A    between atoms: N1_2  and  S1_4 
REMARK    2  A    between atoms: S1_4  and  C3_7 
REMARK    3  A    between atoms: C7_11  and  N2_12 
REMARK       I    between atoms: N2_12  and  C8_14 
REMARK    4  A    between atoms: C8_14  and  C9_16 
REMARK    5  A    between atoms: C10_17  and  S2_18 
REMARK    6  A    between atoms: S2_18  and  C11_21 
ROOT
HETATM    1  N2  UNL     1      -4.217   9.269  19.876  1.00  0.00    -0.324 N 
ATOM      2  H2  UNL     1      -3.260   8.964  19.702  1.00  0.00     0.169 HD
HETATM    3  C8  UNL     1      -4.436  10.184  20.916  1.00  0.00     0.246 C 
HETATM    4  O3  UNL     1      -5.591  10.597  21.163  1.00  0.00    -0.268 OA
ENDROOT
BRANCH   1   5
HETATM    5  C7  UNL     1      -5.240   8.742  19.053  1.00  0.00     0.036 A 
HETATM    6  C6  UNL     1      -5.900   7.580  19.457  1.00  0.00     0.029 A 
HETATM    7  C5  UNL     1      -6.903   7.067  18.709  1.00  0.00     0.004 A 
HETATM    8  C4  UNL     1      -7.287   7.683  17.540  1.00  0.00     0.025 A 
HETATM    9  C3  UNL     1      -6.654   8.823  17.127  1.00  0.00     0.076 A 
HETATM   10  C17 UNL     1      -5.628   9.340  17.902  1.00  0.00     0.054 A 
BRANCH   9  11
HETATM   11  S1  UNL     1      -7.146   9.615  15.625  1.00  0.00     0.243 S 
HETATM   12  O1  UNL     1      -6.117   9.341  14.589  1.00  0.00    -0.206 OA
HETATM   13  O2  UNL     1      -7.291  11.097  15.896  1.00  0.00    -0.206 OA
BRANCH  11  14
HETATM   14  N1  UNL     1      -8.698   9.014  15.230  1.00  0.00    -0.215 NA
HETATM   15  C1  UNL     1      -8.828   8.671  13.833  1.00  0.00     0.129 C 
HETATM   16  C2  UNL     1      -9.770   9.858  15.699  1.00  0.00     0.129 C 
ENDBRANCH  11  14
ENDBRANCH   9  11
ENDBRANCH   1   5
BRANCH   3  17
HETATM   17  C9  UNL     1      -3.358  10.683  21.736  1.00  0.00     0.086 C 
HETATM   18  C10 UNL     1      -3.570  11.481  22.744  1.00  0.00     0.120 C 
BRANCH  18  19
HETATM   19  S2  UNL     1      -2.251  12.091  23.746  1.00  0.00     0.197 S 
HETATM   20  O4  UNL     1      -1.028  12.368  22.941  1.00  0.00    -0.218 OA
HETATM   21  O5  UNL     1      -2.675  13.354  24.458  1.00  0.00    -0.218 OA
BRANCH  19  22
HETATM   22  C11 UNL     1      -1.869  10.830  24.895  1.00  0.00     0.063 A 
HETATM   23  C12 UNL     1      -2.705  10.659  25.972  1.00  0.00     0.025 A 
HETATM   24  C13 UNL     1      -2.439   9.673  26.905  1.00  0.00     0.020 A 
HETATM   25  C14 UNL     1      -1.329   8.862  26.748  1.00  0.00     0.011 A 
HETATM   26 BR1  UNL     1      -0.980   7.508  28.046  1.00  0.00    -0.051 Br
HETATM   27  C15 UNL     1      -0.494   9.036  25.670  1.00  0.00     0.020 A 
HETATM   28  C16 UNL     1      -0.769  10.020  24.747  1.00  0.00     0.025 A 
ENDBRANCH  19  22
ENDBRANCH  18  19
ENDBRANCH   3  17
TORSDOF 6
ENDMDL
