MODEL 1
REMARK VINA RESULT: -9.122655388      0.000      0.000
REMARK  13 active torsions:
REMARK  status: ('A' for Active; 'I' for Inactive)
REMARK    1  A    between atoms: C2_2  and  C3_3 
REMARK    2  A    between atoms: C2_2  and  C21_29 
REMARK    3  A    between atoms: C4_4  and  C5_5 
REMARK    4  A    between atoms: N1_11  and  C9_12 
REMARK    5  A    between atoms: C9_12  and  C10_13 
REMARK    6  A    between atoms: C10_13  and  C11_14 
REMARK    7  A    between atoms: C11_14  and  O3_15 
REMARK    8  A    between atoms: C11_14  and  C12_17 
REMARK    9  A    between atoms: C12_17  and  C13_18 
REMARK   10  A    between atoms: C18_24  and  O5_25 
REMARK   11  A    between atoms: C22_30  and  O6_31 
REMARK   12  A    between atoms: C22_30  and  C23_33 
REMARK   13  A    between atoms: C23_33  and  O7_36 
ROOT
HETATM    1  C5  UNL     1      15.323  13.680  35.296  1.00  0.00     0.033 C 
HETATM    2  C6  UNL     1      15.216  14.578  34.314  1.00  0.00     0.064 C 
HETATM    3  O1  UNL     1      15.184  15.933  34.681  1.00  0.00    -0.281 OA
HETATM    4  C7  UNL     1      14.648  16.865  33.790  1.00  0.00     0.301 C 
HETATM    5  O2  UNL     1      14.394  18.008  34.195  1.00  0.00    -0.262 OA
HETATM    6  C8  UNL     1      14.422  16.422  32.433  1.00  0.00     0.364 C 
HETATM    7  N1  UNL     1      14.534  17.410  31.390  1.00  0.00     0.113 N 
HETATM    8  C16 UNL     1      14.643  16.546  30.199  1.00  0.00     0.355 C 
HETATM    9  C17 UNL     1      15.090  15.200  30.645  1.00  0.00     0.192 C 
HETATM   10  O4  UNL     1      15.161  14.179  30.010  1.00  0.00    -0.293 OA
HETATM   11  C18 UNL     1      15.441  15.374  32.067  1.00  0.00     0.169 C 
HETATM   12  C19 UNL     1      15.136  14.148  32.902  1.00  0.00     0.084 C 
HETATM   13  C20 UNL     1      16.100  13.018  32.605  1.00  0.00     0.020 C 
ENDROOT
BRANCH   1  14
HETATM   14  C4  UNL     1      15.400  14.118  36.664  1.00  0.00    -0.001 C 
HETATM   15  C3  UNL     1      14.787  13.702  37.694  1.00  0.00    -0.018 C 
BRANCH  15  16
HETATM   16  C2  UNL     1      13.806  12.682  37.974  1.00  0.00     0.029 C 
HETATM   17  C1  UNL     1      12.438  12.836  37.420  1.00  0.00     0.018 C 
BRANCH  16  18
HETATM   18  C21 UNL     1      13.780  12.489  39.473  1.00  0.00     0.016 C 
HETATM   19  C22 UNL     1      13.834  11.292  40.011  1.00  0.00     0.073 C 
BRANCH  19  20
HETATM   20  O6  UNL     1      13.917  10.185  39.164  1.00  0.00    -0.362 OA
ATOM     21  H6  UNL     1      13.292  10.110  38.452  1.00  0.00     0.217 HD
ENDBRANCH  19  20
BRANCH  19  22
HETATM   22  C23 UNL     1      13.805  11.149  41.476  1.00  0.00     0.098 C 
HETATM   23  C24 UNL     1      12.461  10.692  41.982  1.00  0.00     0.053 C 
HETATM   24  C25 UNL     1      14.098  12.493  42.125  1.00  0.00     0.053 C 
BRANCH  22  25
HETATM   25  O7  UNL     1      14.760  10.242  41.924  1.00  0.00    -0.384 OA
ATOM     26  H7  UNL     1      14.896   9.539  41.300  1.00  0.00     0.211 HD
ENDBRANCH  22  25
ENDBRANCH  19  22
ENDBRANCH  16  18
ENDBRANCH  15  16
ENDBRANCH   1  14
BRANCH  11  27
HETATM   27  O5  UNL     1      16.747  15.751  32.209  1.00  0.00    -0.378 OA
ATOM     28  H5  UNL     1      17.037  16.443  31.627  1.00  0.00     0.211 HD
ENDBRANCH  11  27
BRANCH   7  29
HETATM   29  C9  UNL     1      15.655  18.262  31.503  1.00  0.00     0.277 C 
BRANCH  29  30
HETATM   30  C10 UNL     1      15.440  19.744  31.531  1.00  0.00     0.062 C 
BRANCH  30  31
HETATM   31  C11 UNL     1      14.121  20.281  31.156  1.00  0.00     0.120 C 
BRANCH  31  32
HETATM   32  O3  UNL     1      13.228  20.259  32.267  1.00  0.00    -0.396 OA
ATOM     33  H3  UNL     1      12.496  20.848  32.125  1.00  0.00     0.210 HD
ENDBRANCH  31  32
BRANCH  31  34
HETATM   34  C12 UNL     1      14.161  21.667  30.607  1.00  0.00     0.035 C 
BRANCH  34  35
HETATM   35  C13 UNL     1      14.173  21.859  29.140  1.00  0.00    -0.020 C 
HETATM   36  C14 UNL     1      14.067  20.552  28.373  1.00  0.00     0.009 C 
HETATM   37  C15 UNL     1      15.164  22.827  28.587  1.00  0.00     0.009 C 
ENDBRANCH  34  35
ENDBRANCH  31  34
ENDBRANCH  30  31
ENDBRANCH  29  30
ENDBRANCH   7  29
TORSDOF 13
ENDMDL
MODEL 2
REMARK VINA RESULT: -9.063046318      1.047      1.416
REMARK  13 active torsions:
REMARK  status: ('A' for Active; 'I' for Inactive)
REMARK    1  A    between atoms: C2_2  and  C3_3 
REMARK    2  A    between atoms: C2_2  and  C21_29 
REMARK    3  A    between atoms: C4_4  and  C5_5 
REMARK    4  A    between atoms: N1_11  and  C9_12 
REMARK    5  A    between atoms: C9_12  and  C10_13 
REMARK    6  A    between atoms: C10_13  and  C11_14 
REMARK    7  A    between atoms: C11_14  and  O3_15 
REMARK    8  A    between atoms: C11_14  and  C12_17 
REMARK    9  A    between atoms: C12_17  and  C13_18 
REMARK   10  A    between atoms: C18_24  and  O5_25 
REMARK   11  A    between atoms: C22_30  and  O6_31 
REMARK   12  A    between atoms: C22_30  and  C23_33 
REMARK   13  A    between atoms: C23_33  and  O7_36 
ROOT
HETATM    1  C5  UNL     1      15.403  13.567  35.195  1.00  0.00     0.033 C 
HETATM    2  C6  UNL     1      15.285  14.508  34.256  1.00  0.00     0.064 C 
HETATM    3  O1  UNL     1      15.267  15.845  34.682  1.00  0.00    -0.281 OA
HETATM    4  C7  UNL     1      14.722  16.818  33.841  1.00  0.00     0.301 C 
HETATM    5  O2  UNL     1      14.482  17.944  34.300  1.00  0.00    -0.262 OA
HETATM    6  C8  UNL     1      14.471  16.436  32.470  1.00  0.00     0.364 C 
HETATM    7  N1  UNL     1      14.573  17.468  31.470  1.00  0.00     0.113 N 
HETATM    8  C16 UNL     1      14.657  16.656  30.240  1.00  0.00     0.355 C 
HETATM    9  C17 UNL     1      15.102  15.290  30.619  1.00  0.00     0.192 C 
HETATM   10  O4  UNL     1      15.157  14.297  29.940  1.00  0.00    -0.293 OA
HETATM   11  C18 UNL     1      15.478  15.399  32.042  1.00  0.00     0.169 C 
HETATM   12  C19 UNL     1      15.179  14.140  32.828  1.00  0.00     0.084 C 
HETATM   13  C20 UNL     1      16.131  13.019  32.465  1.00  0.00     0.020 C 
ENDROOT
BRANCH   1  14
HETATM   14  C4  UNL     1      15.505  13.944  36.579  1.00  0.00    -0.001 C 
HETATM   15  C3  UNL     1      14.813  13.584  37.581  1.00  0.00    -0.018 C 
BRANCH  15  16
HETATM   16  C2  UNL     1      13.693  12.703  37.803  1.00  0.00     0.029 C 
HETATM   17  C1  UNL     1      12.446  12.923  37.029  1.00  0.00     0.018 C 
BRANCH  16  18
HETATM   18  C21 UNL     1      13.427  12.687  39.291  1.00  0.00     0.016 C 
HETATM   19  C22 UNL     1      13.502  11.576  39.989  1.00  0.00     0.073 C 
BRANCH  19  20
HETATM   20  O6  UNL     1      13.835  10.394  39.325  1.00  0.00    -0.362 OA
ATOM     21  H6  UNL     1      13.900   9.592  39.831  1.00  0.00     0.217 HD
ENDBRANCH  19  20
BRANCH  19  22
HETATM   22  C23 UNL     1      13.235  11.606  41.437  1.00  0.00     0.098 C 
HETATM   23  C24 UNL     1      13.289  13.003  42.001  1.00  0.00     0.053 C 
HETATM   24  C25 UNL     1      14.286  10.783  42.166  1.00  0.00     0.053 C 
BRANCH  22  25
HETATM   25  O7  UNL     1      11.987  11.071  41.741  1.00  0.00    -0.384 OA
ATOM     26  H7  UNL     1      11.875  10.206  41.366  1.00  0.00     0.211 HD
ENDBRANCH  22  25
ENDBRANCH  19  22
ENDBRANCH  16  18
ENDBRANCH  15  16
ENDBRANCH   1  14
BRANCH  11  27
HETATM   27  O5  UNL     1      16.788  15.763  32.179  1.00  0.00    -0.378 OA
ATOM     28  H5  UNL     1      17.421  15.069  32.033  1.00  0.00     0.211 HD
ENDBRANCH  11  27
BRANCH   7  29
HETATM   29  C9  UNL     1      15.701  18.309  31.601  1.00  0.00     0.277 C 
BRANCH  29  30
HETATM   30  C10 UNL     1      15.762  19.571  30.797  1.00  0.00     0.062 C 
BRANCH  30  31
HETATM   31  C11 UNL     1      15.104  20.781  31.317  1.00  0.00     0.120 C 
BRANCH  31  32
HETATM   32  O3  UNL     1      16.067  21.779  31.651  1.00  0.00    -0.396 OA
ATOM     33  H3  UNL     1      15.673  22.644  31.649  1.00  0.00     0.210 HD
ENDBRANCH  31  32
BRANCH  31  34
HETATM   34  C12 UNL     1      14.104  21.380  30.387  1.00  0.00     0.035 C 
BRANCH  34  35
HETATM   35  C13 UNL     1      12.779  20.738  30.248  1.00  0.00    -0.020 C 
HETATM   36  C14 UNL     1      12.193  20.298  31.578  1.00  0.00     0.009 C 
HETATM   37  C15 UNL     1      12.610  19.755  29.138  1.00  0.00     0.009 C 
ENDBRANCH  34  35
ENDBRANCH  31  34
ENDBRANCH  30  31
ENDBRANCH  29  30
ENDBRANCH   7  29
TORSDOF 13
ENDMDL
MODEL 3
REMARK VINA RESULT: -8.807797489      3.570      4.269
REMARK  13 active torsions:
REMARK  status: ('A' for Active; 'I' for Inactive)
REMARK    1  A    between atoms: C2_2  and  C3_3 
REMARK    2  A    between atoms: C2_2  and  C21_29 
REMARK    3  A    between atoms: C4_4  and  C5_5 
REMARK    4  A    between atoms: N1_11  and  C9_12 
REMARK    5  A    between atoms: C9_12  and  C10_13 
REMARK    6  A    between atoms: C10_13  and  C11_14 
REMARK    7  A    between atoms: C11_14  and  O3_15 
REMARK    8  A    between atoms: C11_14  and  C12_17 
REMARK    9  A    between atoms: C12_17  and  C13_18 
REMARK   10  A    between atoms: C18_24  and  O5_25 
REMARK   11  A    between atoms: C22_30  and  O6_31 
REMARK   12  A    between atoms: C22_30  and  C23_33 
REMARK   13  A    between atoms: C23_33  and  O7_36 
ROOT
HETATM    1  C5  UNL     1      16.696  13.295  34.664  1.00  0.00     0.033 C 
HETATM    2  C6  UNL     1      16.926  14.358  33.891  1.00  0.00     0.064 C 
HETATM    3  O1  UNL     1      16.058  15.453  34.027  1.00  0.00    -0.281 OA
HETATM    4  C7  UNL     1      15.967  16.380  32.987  1.00  0.00     0.301 C 
HETATM    5  O2  UNL     1      15.039  17.202  32.993  1.00  0.00    -0.262 OA
HETATM    6  C8  UNL     1      16.979  16.314  31.956  1.00  0.00     0.364 C 
HETATM    7  N1  UNL     1      17.336  17.548  31.305  1.00  0.00     0.113 N 
HETATM    8  C16 UNL     1      18.608  17.164  30.661  1.00  0.00     0.355 C 
HETATM    9  C17 UNL     1      19.140  15.970  31.367  1.00  0.00     0.192 C 
HETATM   10  O4  UNL     1      20.070  15.266  31.066  1.00  0.00    -0.293 OA
HETATM   11  C18 UNL     1      18.271  15.815  32.550  1.00  0.00     0.169 C 
HETATM   12  C19 UNL     1      18.053  14.367  32.935  1.00  0.00     0.084 C 
HETATM   13  C20 UNL     1      19.303  13.757  33.535  1.00  0.00     0.020 C 
ENDROOT
BRANCH   1  14
HETATM   14  C4  UNL     1      15.595  13.304  35.588  1.00  0.00    -0.001 C 
HETATM   15  C3  UNL     1      14.349  13.177  35.382  1.00  0.00    -0.018 C 
BRANCH  15  16
HETATM   16  C2  UNL     1      13.505  12.978  34.229  1.00  0.00     0.029 C 
HETATM   17  C1  UNL     1      12.903  14.164  33.571  1.00  0.00     0.018 C 
BRANCH  16  18
HETATM   18  C21 UNL     1      12.452  11.966  34.618  1.00  0.00     0.016 C 
HETATM   19  C22 UNL     1      11.532  11.572  33.766  1.00  0.00     0.073 C 
BRANCH  19  20
HETATM   20  O6  UNL     1      11.544  12.111  32.478  1.00  0.00    -0.362 OA
ATOM     21  H6  UNL     1      10.791  12.614  32.190  1.00  0.00     0.217 HD
ENDBRANCH  19  20
BRANCH  19  22
HETATM   22  C23 UNL     1      10.525  10.584  34.186  1.00  0.00     0.098 C 
HETATM   23  C24 UNL     1       9.216  11.226  34.568  1.00  0.00     0.053 C 
HETATM   24  C25 UNL     1      11.029   9.828  35.406  1.00  0.00     0.053 C 
BRANCH  22  25
HETATM   25  O7  UNL     1      10.267   9.654  33.184  1.00  0.00    -0.384 OA
ATOM     26  H7  UNL     1      10.684   8.819  33.364  1.00  0.00     0.211 HD
ENDBRANCH  22  25
ENDBRANCH  19  22
ENDBRANCH  16  18
ENDBRANCH  15  16
ENDBRANCH   1  14
BRANCH  11  27
HETATM   27  O5  UNL     1      18.748  16.537  33.608  1.00  0.00    -0.378 OA
ATOM     28  H5  UNL     1      19.688  16.677  33.616  1.00  0.00     0.211 HD
ENDBRANCH  11  27
BRANCH   7  29
HETATM   29  C9  UNL     1      17.521  18.645  32.177  1.00  0.00     0.277 C 
BRANCH  29  30
HETATM   30  C10 UNL     1      16.770  19.914  31.914  1.00  0.00     0.062 C 
BRANCH  30  31
HETATM   31  C11 UNL     1      15.462  19.844  31.243  1.00  0.00     0.120 C 
BRANCH  31  32
HETATM   32  O3  UNL     1      14.398  19.940  32.188  1.00  0.00    -0.396 OA
ATOM     33  H3  UNL     1      14.689  19.675  33.053  1.00  0.00     0.210 HD
ENDBRANCH  31  32
BRANCH  31  34
HETATM   34  C12 UNL     1      15.258  20.884  30.193  1.00  0.00     0.035 C 
BRANCH  34  35
HETATM   35  C13 UNL     1      14.763  20.473  28.861  1.00  0.00    -0.020 C 
HETATM   36  C14 UNL     1      15.113  21.468  27.769  1.00  0.00     0.009 C 
HETATM   37  C15 UNL     1      13.375  19.930  28.787  1.00  0.00     0.009 C 
ENDBRANCH  34  35
ENDBRANCH  31  34
ENDBRANCH  30  31
ENDBRANCH  29  30
ENDBRANCH   7  29
TORSDOF 13
ENDMDL
MODEL 4
REMARK VINA RESULT: -8.805057808      3.599      4.505
REMARK  13 active torsions:
REMARK  status: ('A' for Active; 'I' for Inactive)
REMARK    1  A    between atoms: C2_2  and  C3_3 
REMARK    2  A    between atoms: C2_2  and  C21_29 
REMARK    3  A    between atoms: C4_4  and  C5_5 
REMARK    4  A    between atoms: N1_11  and  C9_12 
REMARK    5  A    between atoms: C9_12  and  C10_13 
REMARK    6  A    between atoms: C10_13  and  C11_14 
REMARK    7  A    between atoms: C11_14  and  O3_15 
REMARK    8  A    between atoms: C11_14  and  C12_17 
REMARK    9  A    between atoms: C12_17  and  C13_18 
REMARK   10  A    between atoms: C18_24  and  O5_25 
REMARK   11  A    between atoms: C22_30  and  O6_31 
REMARK   12  A    between atoms: C22_30  and  C23_33 
REMARK   13  A    between atoms: C23_33  and  O7_36 
ROOT
HETATM    1  C5  UNL     1      16.243  13.084  34.558  1.00  0.00     0.033 C 
HETATM    2  C6  UNL     1      16.627  14.172  33.886  1.00  0.00     0.064 C 
HETATM    3  O1  UNL     1      15.912  15.357  34.118  1.00  0.00    -0.281 OA
HETATM    4  C7  UNL     1      15.964  16.378  33.166  1.00  0.00     0.301 C 
HETATM    5  O2  UNL     1      15.155  17.314  33.243  1.00  0.00    -0.262 OA
HETATM    6  C8  UNL     1      16.976  16.269  32.139  1.00  0.00     0.364 C 
HETATM    7  N1  UNL     1      17.506  17.497  31.605  1.00  0.00     0.113 N 
HETATM    8  C16 UNL     1      18.726  17.003  30.935  1.00  0.00     0.355 C 
HETATM    9  C17 UNL     1      19.081  15.689  31.531  1.00  0.00     0.192 C 
HETATM   10  O4  UNL     1      19.913  14.897  31.172  1.00  0.00    -0.293 OA
HETATM   11  C18 UNL     1      18.179  15.548  32.691  1.00  0.00     0.169 C 
HETATM   12  C19 UNL     1      17.762  14.114  32.941  1.00  0.00     0.084 C 
HETATM   13  C20 UNL     1      18.908  13.289  33.489  1.00  0.00     0.020 C 
ENDROOT
BRANCH   1  14
HETATM   14  C4  UNL     1      15.137  13.159  35.474  1.00  0.00    -0.001 C 
HETATM   15  C3  UNL     1      13.888  13.104  35.258  1.00  0.00    -0.018 C 
BRANCH  15  16
HETATM   16  C2  UNL     1      13.042  12.953  34.099  1.00  0.00     0.029 C 
HETATM   17  C1  UNL     1      12.937  14.080  33.139  1.00  0.00     0.018 C 
BRANCH  16  18
HETATM   18  C21 UNL     1      11.683  12.516  34.594  1.00  0.00     0.016 C 
HETATM   19  C22 UNL     1      10.848  11.863  33.816  1.00  0.00     0.073 C 
BRANCH  19  20
HETATM   20  O6  UNL     1      11.243  11.576  32.508  1.00  0.00    -0.362 OA
ATOM     21  H6  UNL     1      12.166  11.432  32.334  1.00  0.00     0.217 HD
ENDBRANCH  19  20
BRANCH  19  22
HETATM   22  C23 UNL     1       9.533  11.456  34.339  1.00  0.00     0.098 C 
HETATM   23  C24 UNL     1       8.493  11.350  33.253  1.00  0.00     0.053 C 
HETATM   24  C25 UNL     1       9.038  12.491  35.338  1.00  0.00     0.053 C 
BRANCH  22  25
HETATM   25  O7  UNL     1       9.595  10.229  34.991  1.00  0.00    -0.384 OA
ATOM     26  H7  UNL     1       9.664   9.508  34.376  1.00  0.00     0.211 HD
ENDBRANCH  22  25
ENDBRANCH  19  22
ENDBRANCH  16  18
ENDBRANCH  15  16
ENDBRANCH   1  14
BRANCH  11  27
HETATM   27  O5  UNL     1      18.730  16.100  33.813  1.00  0.00    -0.378 OA
ATOM     28  H5  UNL     1      18.786  15.524  34.565  1.00  0.00     0.211 HD
ENDBRANCH  11  27
BRANCH   7  29
HETATM   29  C9  UNL     1      17.821  18.475  32.574  1.00  0.00     0.277 C 
BRANCH  29  30
HETATM   30  C10 UNL     1      17.993  19.898  32.139  1.00  0.00     0.062 C 
BRANCH  30  31
HETATM   31  C11 UNL     1      16.797  20.739  31.960  1.00  0.00     0.120 C 
BRANCH  31  32
HETATM   32  O3  UNL     1      17.161  22.100  31.740  1.00  0.00    -0.396 OA
ATOM     33  H3  UNL     1      17.087  22.604  32.542  1.00  0.00     0.210 HD
ENDBRANCH  31  32
BRANCH  31  34
HETATM   34  C12 UNL     1      15.905  20.302  30.848  1.00  0.00     0.035 C 
BRANCH  34  35
HETATM   35  C13 UNL     1      14.505  19.932  31.154  1.00  0.00    -0.020 C 
HETATM   36  C14 UNL     1      13.971  18.840  30.244  1.00  0.00     0.009 C 
HETATM   37  C15 UNL     1      13.548  21.045  31.418  1.00  0.00     0.009 C 
ENDBRANCH  34  35
ENDBRANCH  31  34
ENDBRANCH  30  31
ENDBRANCH  29  30
ENDBRANCH   7  29
TORSDOF 13
ENDMDL
MODEL 5
REMARK VINA RESULT: -8.776164732      1.991      3.338
REMARK  13 active torsions:
REMARK  status: ('A' for Active; 'I' for Inactive)
REMARK    1  A    between atoms: C2_2  and  C3_3 
REMARK    2  A    between atoms: C2_2  and  C21_29 
REMARK    3  A    between atoms: C4_4  and  C5_5 
REMARK    4  A    between atoms: N1_11  and  C9_12 
REMARK    5  A    between atoms: C9_12  and  C10_13 
REMARK    6  A    between atoms: C10_13  and  C11_14 
REMARK    7  A    between atoms: C11_14  and  O3_15 
REMARK    8  A    between atoms: C11_14  and  C12_17 
REMARK    9  A    between atoms: C12_17  and  C13_18 
REMARK   10  A    between atoms: C18_24  and  O5_25 
REMARK   11  A    between atoms: C22_30  and  O6_31 
REMARK   12  A    between atoms: C22_30  and  C23_33 
REMARK   13  A    between atoms: C23_33  and  O7_36 
ROOT
HETATM    1  C5  UNL     1      15.389  13.585  35.276  1.00  0.00     0.033 C 
HETATM    2  C6  UNL     1      15.283  14.510  34.320  1.00  0.00     0.064 C 
HETATM    3  O1  UNL     1      15.257  15.853  34.724  1.00  0.00    -0.281 OA
HETATM    4  C7  UNL     1      14.722  16.812  33.859  1.00  0.00     0.301 C 
HETATM    5  O2  UNL     1      14.474  17.945  34.297  1.00  0.00    -0.262 OA
HETATM    6  C8  UNL     1      14.491  16.407  32.491  1.00  0.00     0.364 C 
HETATM    7  N1  UNL     1      14.605  17.423  31.476  1.00  0.00     0.113 N 
HETATM    8  C16 UNL     1      14.708  16.591  30.261  1.00  0.00     0.355 C 
HETATM    9  C17 UNL     1      15.150  15.233  30.669  1.00  0.00     0.192 C 
HETATM   10  O4  UNL     1      15.216  14.229  30.006  1.00  0.00    -0.293 OA
HETATM   11  C18 UNL     1      15.506  15.365  32.095  1.00  0.00     0.169 C 
HETATM   12  C19 UNL     1      15.198  14.118  32.897  1.00  0.00     0.084 C 
HETATM   13  C20 UNL     1      16.157  12.994  32.565  1.00  0.00     0.020 C 
ENDROOT
BRANCH   1  14
HETATM   14  C4  UNL     1      15.471  13.984  36.655  1.00  0.00    -0.001 C 
HETATM   15  C3  UNL     1      14.737  13.677  37.643  1.00  0.00    -0.018 C 
BRANCH  15  16
HETATM   16  C2  UNL     1      13.571  12.852  37.851  1.00  0.00     0.029 C 
HETATM   17  C1  UNL     1      13.706  11.614  38.658  1.00  0.00     0.018 C 
BRANCH  16  18
HETATM   18  C21 UNL     1      12.980  12.566  36.490  1.00  0.00     0.016 C 
HETATM   19  C22 UNL     1      11.699  12.733  36.251  1.00  0.00     0.073 C 
BRANCH  19  20
HETATM   20  O6  UNL     1      10.881  13.186  37.288  1.00  0.00    -0.362 OA
ATOM     21  H6  UNL     1      10.902  12.722  38.117  1.00  0.00     0.217 HD
ENDBRANCH  19  20
BRANCH  19  22
HETATM   22  C23 UNL     1      11.164  12.441  34.910  1.00  0.00     0.098 C 
HETATM   23  C24 UNL     1      11.492  11.043  34.453  1.00  0.00     0.053 C 
HETATM   24  C25 UNL     1      11.772  13.401  33.898  1.00  0.00     0.053 C 
BRANCH  22  25
HETATM   25  O7  UNL     1       9.782  12.591  34.863  1.00  0.00    -0.384 OA
ATOM     26  H7  UNL     1       9.434  12.382  34.004  1.00  0.00     0.211 HD
ENDBRANCH  22  25
ENDBRANCH  19  22
ENDBRANCH  16  18
ENDBRANCH  15  16
ENDBRANCH   1  14
BRANCH  11  27
HETATM   27  O5  UNL     1      16.813  15.733  32.244  1.00  0.00    -0.378 OA
ATOM     28  H5  UNL     1      16.975  16.413  32.887  1.00  0.00     0.211 HD
ENDBRANCH  11  27
BRANCH   7  29
HETATM   29  C9  UNL     1      15.730  18.268  31.609  1.00  0.00     0.277 C 
BRANCH  29  30
HETATM   30  C10 UNL     1      15.791  19.526  30.800  1.00  0.00     0.062 C 
BRANCH  30  31
HETATM   31  C11 UNL     1      15.134  20.739  31.314  1.00  0.00     0.120 C 
BRANCH  31  32
HETATM   32  O3  UNL     1      16.097  21.730  31.664  1.00  0.00    -0.396 OA
ATOM     33  H3  UNL     1      16.116  22.427  31.019  1.00  0.00     0.210 HD
ENDBRANCH  31  32
BRANCH  31  34
HETATM   34  C12 UNL     1      14.151  21.346  30.371  1.00  0.00     0.035 C 
BRANCH  34  35
HETATM   35  C13 UNL     1      12.810  20.735  30.239  1.00  0.00    -0.020 C 
HETATM   36  C14 UNL     1      12.221  20.311  31.572  1.00  0.00     0.009 C 
HETATM   37  C15 UNL     1      12.613  19.754  29.131  1.00  0.00     0.009 C 
ENDBRANCH  34  35
ENDBRANCH  31  34
ENDBRANCH  30  31
ENDBRANCH  29  30
ENDBRANCH   7  29
TORSDOF 13
ENDMDL
