MODEL 1
REMARK VINA RESULT: -5.900400549      0.000      0.000
REMARK  4 active torsions:
REMARK  status: ('A' for Active; 'I' for Inactive)
REMARK    1  A    between atoms: N1_2  and  C2_4 
REMARK    2  A    between atoms: C2_4  and  N2_6 
REMARK    3  A    between atoms: N2_6  and  N3_8 
REMARK       I    between atoms: N3_8  and  C3_10 
REMARK       I    between atoms: C3_10  and  N5_14 
REMARK    4  A    between atoms: N5_14  and  N6_16 
ROOT
HETATM    1  N3  UNL     1     108.735  36.869  81.291  1.00  0.00    -0.129 N 
ATOM      2  H3  UNL     1     109.506  36.410  81.776  1.00  0.00     0.205 HD
HETATM    3  C3  UNL     1     107.484  36.994  81.954  1.00  0.00     0.705 C 
HETATM    4  N4  UNL     1     107.432  37.451  83.144  1.00  0.00    -0.232 N 
ATOM      5  H41 UNL     1     106.534  37.540  83.620  1.00  0.00     0.174 HD
ATOM      6  H42 UNL     1     108.306  37.721  83.594  1.00  0.00     0.174 HD
HETATM    7  N5  UNL     1     106.263  36.617  81.326  1.00  0.00    -0.126 N 
ATOM      8  H5  UNL     1     106.193  36.720  80.313  1.00  0.00     0.206 HD
ENDROOT
BRANCH   1   9
HETATM    9  N2  UNL     1     108.945  37.353  80.001  1.00  0.00    -0.262 N 
ATOM     10  H2  UNL     1     109.315  38.295  79.874  1.00  0.00     0.190 HD
BRANCH   9  11
HETATM   11  C2  UNL     1     108.657  36.566  78.865  1.00  0.00     0.186 C 
HETATM   12  S1  UNL     1     108.357  37.251  77.422  1.00  0.00    -0.040 SA
BRANCH  11  13
HETATM   13  N1  UNL     1     108.631  35.156  78.990  1.00  0.00    -0.370 N 
HETATM   14  C1  UNL     1     107.411  34.432  78.700  1.00  0.00     0.148 C 
ATOM     15  H1  UNL     1     109.467  34.653  79.285  1.00  0.00     0.161 HD
ENDBRANCH  11  13
ENDBRANCH   9  11
ENDBRANCH   1   9
BRANCH   7  16
HETATM   16  N6  UNL     1     105.179  36.124  81.996  1.00  0.00    -0.265 N 
HETATM   17  C4  UNL     1     105.389  35.067  82.888  1.00  0.00     0.108 C 
HETATM   18  C5  UNL     1     104.405  34.931  83.993  1.00  0.00     0.165 C 
HETATM   19  N7  UNL     1     103.836  36.131  84.471  1.00  0.00    -0.393 N 
HETATM   20  C6  UNL     1     103.512  37.120  83.526  1.00  0.00     0.102 C 
ATOM     21  H7  UNL     1     103.665  36.275  85.466  1.00  0.00     0.159 HD
HETATM   22  C7  UNL     1     104.075  36.966  82.160  1.00  0.00     0.132 C 
ENDBRANCH   7  16
TORSDOF 4
ENDMDL
MODEL 2
REMARK VINA RESULT: -5.537504016      1.195      1.485
REMARK  4 active torsions:
REMARK  status: ('A' for Active; 'I' for Inactive)
REMARK    1  A    between atoms: N1_2  and  C2_4 
REMARK    2  A    between atoms: C2_4  and  N2_6 
REMARK    3  A    between atoms: N2_6  and  N3_8 
REMARK       I    between atoms: N3_8  and  C3_10 
REMARK       I    between atoms: C3_10  and  N5_14 
REMARK    4  A    between atoms: N5_14  and  N6_16 
ROOT
HETATM    1  N3  UNL     1     108.614  36.798  80.964  1.00  0.00    -0.129 N 
ATOM      2  H3  UNL     1     109.421  36.387  81.434  1.00  0.00     0.205 HD
HETATM    3  C3  UNL     1     107.404  36.960  81.692  1.00  0.00     0.705 C 
HETATM    4  N4  UNL     1     107.418  37.509  82.843  1.00  0.00    -0.232 N 
ATOM      5  H41 UNL     1     106.549  37.626  83.366  1.00  0.00     0.174 HD
ATOM      6  H42 UNL     1     108.313  37.823  83.216  1.00  0.00     0.174 HD
HETATM    7  N5  UNL     1     106.153  36.522  81.172  1.00  0.00    -0.126 N 
ATOM      8  H5  UNL     1     106.019  36.545  80.160  1.00  0.00     0.206 HD
ENDROOT
BRANCH   1   9
HETATM    9  N2  UNL     1     108.736  37.181  79.629  1.00  0.00    -0.262 N 
ATOM     10  H2  UNL     1     109.049  38.126  79.408  1.00  0.00     0.190 HD
BRANCH   9  11
HETATM   11  C2  UNL     1     108.438  36.288  78.577  1.00  0.00     0.186 C 
HETATM   12  S1  UNL     1     108.287  34.692  78.847  1.00  0.00    -0.040 SA
BRANCH  11  13
HETATM   13  N1  UNL     1     108.268  36.797  77.268  1.00  0.00    -0.370 N 
HETATM   14  C1  UNL     1     108.275  38.228  77.048  1.00  0.00     0.148 C 
ATOM     15  H1  UNL     1     108.140  36.158  76.483  1.00  0.00     0.161 HD
ENDBRANCH  11  13
ENDBRANCH   9  11
ENDBRANCH   1   9
BRANCH   7  16
HETATM   16  N6  UNL     1     105.120  36.071  81.945  1.00  0.00    -0.265 N 
HETATM   17  C4  UNL     1     105.392  35.062  82.875  1.00  0.00     0.108 C 
HETATM   18  C5  UNL     1     104.492  34.991  84.054  1.00  0.00     0.165 C 
HETATM   19  N7  UNL     1     103.961  36.218  84.507  1.00  0.00    -0.393 N 
HETATM   20  C6  UNL     1     103.570  37.157  83.536  1.00  0.00     0.102 C 
ATOM     21  H7  UNL     1     103.863  36.416  85.503  1.00  0.00     0.159 HD
HETATM   22  C7  UNL     1     104.032  36.927  82.143  1.00  0.00     0.132 C 
ENDBRANCH   7  16
TORSDOF 4
ENDMDL
MODEL 3
REMARK VINA RESULT: -5.399841257      1.518      1.970
REMARK  4 active torsions:
REMARK  status: ('A' for Active; 'I' for Inactive)
REMARK    1  A    between atoms: N1_2  and  C2_4 
REMARK    2  A    between atoms: C2_4  and  N2_6 
REMARK    3  A    between atoms: N2_6  and  N3_8 
REMARK       I    between atoms: N3_8  and  C3_10 
REMARK       I    between atoms: C3_10  and  N5_14 
REMARK    4  A    between atoms: N5_14  and  N6_16 
ROOT
HETATM    1  N3  UNL     1     108.276  34.420  81.246  1.00  0.00    -0.129 N 
ATOM      2  H3  UNL     1     109.022  34.317  81.934  1.00  0.00     0.205 HD
HETATM    3  C3  UNL     1     107.136  35.200  81.580  1.00  0.00     0.705 C 
HETATM    4  N4  UNL     1     107.281  36.369  82.072  1.00  0.00    -0.232 N 
ATOM      5  H41 UNL     1     106.463  36.929  82.312  1.00  0.00     0.174 HD
ATOM      6  H42 UNL     1     108.229  36.717  82.213  1.00  0.00     0.174 HD
HETATM    7  N5  UNL     1     105.812  34.714  81.383  1.00  0.00    -0.126 N 
ATOM      8  H5  UNL     1     105.647  34.074  80.606  1.00  0.00     0.206 HD
ENDROOT
BRANCH   1   9
HETATM    9  N2  UNL     1     108.410  33.789  80.010  1.00  0.00    -0.262 N 
ATOM     10  H2  UNL     1     108.656  32.800  79.979  1.00  0.00     0.190 HD
BRANCH   9  11
HETATM   11  C2  UNL     1     108.211  34.490  78.801  1.00  0.00     0.186 C 
HETATM   12  S1  UNL     1     107.085  34.016  77.730  1.00  0.00    -0.040 SA
BRANCH  11  13
HETATM   13  N1  UNL     1     109.010  35.625  78.523  1.00  0.00    -0.370 N 
HETATM   14  C1  UNL     1     108.418  36.946  78.561  1.00  0.00     0.148 C 
ATOM     15  H1  UNL     1     109.998  35.513  78.296  1.00  0.00     0.161 HD
ENDBRANCH  11  13
ENDBRANCH   9  11
ENDBRANCH   1   9
BRANCH   7  16
HETATM   16  N6  UNL     1     104.749  35.052  82.173  1.00  0.00    -0.265 N 
HETATM   17  C4  UNL     1     104.756  34.612  83.501  1.00  0.00     0.108 C 
HETATM   18  C5  UNL     1     103.968  35.419  84.467  1.00  0.00     0.165 C 
HETATM   19  N7  UNL     1     103.885  36.803  84.202  1.00  0.00    -0.393 N 
HETATM   20  C6  UNL     1     103.741  37.202  82.861  1.00  0.00     0.102 C 
ATOM     21  H7  UNL     1     103.927  37.489  84.955  1.00  0.00     0.159 HD
HETATM   22  C7  UNL     1     104.004  36.180  81.816  1.00  0.00     0.132 C 
ENDBRANCH   7  16
TORSDOF 4
ENDMDL
MODEL 4
REMARK VINA RESULT: -5.162977102      2.141      5.237
REMARK  4 active torsions:
REMARK  status: ('A' for Active; 'I' for Inactive)
REMARK    1  A    between atoms: N1_2  and  C2_4 
REMARK    2  A    between atoms: C2_4  and  N2_6 
REMARK    3  A    between atoms: N2_6  and  N3_8 
REMARK       I    between atoms: N3_8  and  C3_10 
REMARK       I    between atoms: C3_10  and  N5_14 
REMARK    4  A    between atoms: N5_14  and  N6_16 
ROOT
HETATM    1  N3  UNL     1     106.360  37.614  82.990  1.00  0.00    -0.129 N 
ATOM      2  H3  UNL     1     106.353  38.618  82.813  1.00  0.00     0.205 HD
HETATM    3  C3  UNL     1     107.410  36.827  82.442  1.00  0.00     0.705 C 
HETATM    4  N4  UNL     1     108.625  37.187  82.591  1.00  0.00    -0.232 N 
ATOM      5  H41 UNL     1     109.378  36.623  82.197  1.00  0.00     0.174 HD
ATOM      6  H42 UNL     1     108.812  38.045  83.109  1.00  0.00     0.174 HD
HETATM    7  N5  UNL     1     107.148  35.629  81.718  1.00  0.00    -0.126 N 
ATOM      8  H5  UNL     1     106.329  35.079  81.981  1.00  0.00     0.206 HD
ENDROOT
BRANCH   1   9
HETATM    9  N2  UNL     1     105.339  37.060  83.761  1.00  0.00    -0.262 N 
ATOM     10  H2  UNL     1     105.421  37.068  84.777  1.00  0.00     0.190 HD
BRANCH   9  11
HETATM   11  C2  UNL     1     104.194  36.489  83.164  1.00  0.00     0.186 C 
HETATM   12  S1  UNL     1     103.627  37.035  81.742  1.00  0.00    -0.040 SA
BRANCH  11  13
HETATM   13  N1  UNL     1     103.533  35.424  83.821  1.00  0.00    -0.370 N 
HETATM   14  C1  UNL     1     104.256  34.205  84.118  1.00  0.00     0.148 C 
ATOM     15  H1  UNL     1     102.551  35.514  84.083  1.00  0.00     0.161 HD
ENDBRANCH  11  13
ENDBRANCH   9  11
ENDBRANCH   1   9
BRANCH   7  16
HETATM   16  N6  UNL     1     107.927  35.170  80.693  1.00  0.00    -0.265 N 
HETATM   17  C4  UNL     1     107.848  33.811  80.372  1.00  0.00     0.108 C 
HETATM   18  C5  UNL     1     108.201  33.442  78.977  1.00  0.00     0.165 C 
HETATM   19  N7  UNL     1     107.904  34.401  77.985  1.00  0.00    -0.393 N 
HETATM   20  C6  UNL     1     108.126  35.753  78.299  1.00  0.00     0.102 C 
ATOM     21  H7  UNL     1     107.543  34.123  77.072  1.00  0.00     0.159 HD
HETATM   22  C7  UNL     1     108.344  36.092  79.728  1.00  0.00     0.132 C 
ENDBRANCH   7  16
TORSDOF 4
ENDMDL
MODEL 5
REMARK VINA RESULT: -5.142776766      3.242      4.205
REMARK  4 active torsions:
REMARK  status: ('A' for Active; 'I' for Inactive)
REMARK    1  A    between atoms: N1_2  and  C2_4 
REMARK    2  A    between atoms: C2_4  and  N2_6 
REMARK    3  A    between atoms: N2_6  and  N3_8 
REMARK       I    between atoms: N3_8  and  C3_10 
REMARK       I    between atoms: C3_10  and  N5_14 
REMARK    4  A    between atoms: N5_14  and  N6_16 
ROOT
HETATM    1  N3  UNL     1     108.433  37.770  77.093  1.00  0.00    -0.129 N 
ATOM      2  H3  UNL     1     108.777  37.131  76.376  1.00  0.00     0.205 HD
HETATM    3  C3  UNL     1     108.562  37.401  78.460  1.00  0.00     0.705 C 
HETATM    4  N4  UNL     1     109.682  36.988  78.909  1.00  0.00    -0.232 N 
ATOM      5  H41 UNL     1     109.775  36.723  79.890  1.00  0.00     0.174 HD
ATOM      6  H42 UNL     1     110.469  36.933  78.263  1.00  0.00     0.174 HD
HETATM    7  N5  UNL     1     107.463  37.477  79.363  1.00  0.00    -0.126 N 
ATOM      8  H5  UNL     1     106.763  38.203  79.207  1.00  0.00     0.206 HD
ENDROOT
BRANCH   1   9
HETATM    9  N2  UNL     1     107.853  38.974  76.699  1.00  0.00    -0.262 N 
ATOM     10  H2  UNL     1     107.226  39.460  77.340  1.00  0.00     0.190 HD
BRANCH   9  11
HETATM   11  C2  UNL     1     108.115  39.536  75.431  1.00  0.00     0.186 C 
HETATM   12  S1  UNL     1     108.343  41.135  75.251  1.00  0.00    -0.040 SA
BRANCH  11  13
HETATM   13  N1  UNL     1     108.179  38.687  74.300  1.00  0.00    -0.370 N 
HETATM   14  C1  UNL     1     107.903  39.223  72.984  1.00  0.00     0.148 C 
ATOM     15  H1  UNL     1     108.418  37.702  74.412  1.00  0.00     0.161 HD
ENDBRANCH  11  13
ENDBRANCH   9  11
ENDBRANCH   1   9
BRANCH   7  16
HETATM   16  N6  UNL     1     107.288  36.635  80.425  1.00  0.00    -0.265 N 
HETATM   17  C4  UNL     1     107.406  37.173  81.711  1.00  0.00     0.108 C 
HETATM   18  C5  UNL     1     106.676  36.464  82.793  1.00  0.00     0.165 C 
HETATM   19  N7  UNL     1     105.469  35.833  82.420  1.00  0.00    -0.393 N 
HETATM   20  C6  UNL     1     105.432  35.183  81.174  1.00  0.00     0.102 C 
ATOM     21  H7  UNL     1     104.654  35.848  83.033  1.00  0.00     0.159 HD
HETATM   22  C7  UNL     1     106.534  35.475  80.221  1.00  0.00     0.132 C 
ENDBRANCH   7  16
TORSDOF 4
ENDMDL
