MODEL 1
REMARK VINA RESULT: -5.753111285      0.000      0.000
REMARK  4 active torsions:
REMARK  status: ('A' for Active; 'I' for Inactive)
REMARK    1  A    between atoms: C3_3  and  C4_4 
REMARK    2  A    between atoms: C4_4  and  N1_5 
REMARK    3  A    between atoms: N1_5  and  C5_7 
REMARK    4  A    between atoms: C5_7  and  C6_8 
ROOT
HETATM    1  C6  UNL     1     -18.998   1.188 -17.955  1.00  0.00     0.064 C 
HETATM    2  C7  UNL     1     -18.004   0.273 -17.399  1.00  0.00     0.042 C 
HETATM    3  C8  UNL     1     -18.858  -0.329 -16.231  1.00  0.00     0.274 C 
HETATM    4  N2  UNL     1     -19.860   0.647 -15.944  1.00  0.00     0.103 N 
HETATM    5  C9  UNL     1     -20.065   0.914 -14.539  1.00  0.00     0.318 C 
HETATM    6  C10 UNL     1     -18.791   1.349 -13.879  1.00  0.00     0.090 C 
HETATM    7  N3  UNL     1     -17.901   2.061 -14.703  1.00  0.00    -0.379 N 
ATOM      8  H3  UNL     1     -16.937   2.206 -14.405  1.00  0.00     0.164 HD
HETATM    9  C11 UNL     1     -18.339   2.573 -15.941  1.00  0.00     0.096 C 
HETATM   10  C12 UNL     1     -19.446   1.876 -16.634  1.00  0.00     0.270 C 
ENDROOT
BRANCH   1  11
HETATM   11  C5  UNL     1     -18.753   2.148 -19.003  1.00  0.00     0.062 C 
BRANCH  11  12
HETATM   12  N1  UNL     1     -18.501   1.646 -20.292  1.00  0.00    -0.401 N 
ATOM     13  H1  UNL     1     -19.260   1.266 -20.857  1.00  0.00     0.158 HD
BRANCH  12  14
HETATM   14  C4  UNL     1     -17.176   1.678 -20.795  1.00  0.00     0.123 C 
BRANCH  14  15
HETATM   15  C3  UNL     1     -16.847   0.387 -21.555  1.00  0.00     0.003 C 
HETATM   16  C2  UNL     1     -18.042  -0.532 -21.677  1.00  0.00     0.006 C 
HETATM   17  C1  UNL     1     -17.214  -1.625 -21.049  1.00  0.00     0.001 C 
HETATM   18  C13 UNL     1     -16.210  -0.595 -20.618  1.00  0.00     0.006 C 
ENDBRANCH  14  15
ENDBRANCH  12  14
ENDBRANCH  11  12
ENDBRANCH   1  11
TORSDOF 4
ENDMDL
MODEL 2
REMARK VINA RESULT: -5.740974100      1.142      2.018
REMARK  4 active torsions:
REMARK  status: ('A' for Active; 'I' for Inactive)
REMARK    1  A    between atoms: C3_3  and  C4_4 
REMARK    2  A    between atoms: C4_4  and  N1_5 
REMARK    3  A    between atoms: N1_5  and  C5_7 
REMARK    4  A    between atoms: C5_7  and  C6_8 
ROOT
HETATM    1  C6  UNL     1     -18.395   2.442 -17.078  1.00  0.00     0.064 C 
HETATM    2  C7  UNL     1     -19.776   2.388 -16.606  1.00  0.00     0.042 C 
HETATM    3  C8  UNL     1     -19.502   2.330 -15.064  1.00  0.00     0.274 C 
HETATM    4  N2  UNL     1     -18.183   1.802 -14.927  1.00  0.00     0.103 N 
HETATM    5  C9  UNL     1     -18.038   0.779 -13.917  1.00  0.00     0.318 C 
HETATM    6  C10 UNL     1     -18.972  -0.366 -14.169  1.00  0.00     0.090 C 
HETATM    7  N3  UNL     1     -19.261  -0.618 -15.521  1.00  0.00    -0.379 N 
ATOM      8  H3  UNL     1     -20.040  -1.228 -15.771  1.00  0.00     0.164 HD
HETATM    9  C11 UNL     1     -18.478  -0.028 -16.534  1.00  0.00     0.096 C 
HETATM   10  C12 UNL     1     -17.816   1.263 -16.243  1.00  0.00     0.270 C 
ENDROOT
BRANCH   1  11
HETATM   11  C5  UNL     1     -17.982   2.376 -18.458  1.00  0.00     0.062 C 
BRANCH  11  12
HETATM   12  N1  UNL     1     -18.966   2.063 -19.412  1.00  0.00    -0.401 N 
ATOM     13  H1  UNL     1     -19.895   2.479 -19.353  1.00  0.00     0.158 HD
BRANCH  12  14
HETATM   14  C4  UNL     1     -18.647   1.159 -20.456  1.00  0.00     0.123 C 
BRANCH  14  15
HETATM   15  C3  UNL     1     -17.273   0.517 -20.225  1.00  0.00     0.003 C 
HETATM   16  C2  UNL     1     -16.501   0.327 -21.512  1.00  0.00     0.006 C 
HETATM   17  C1  UNL     1     -16.363  -1.134 -21.166  1.00  0.00     0.001 C 
HETATM   18  C13 UNL     1     -17.428  -0.971 -20.120  1.00  0.00     0.006 C 
ENDBRANCH  14  15
ENDBRANCH  12  14
ENDBRANCH  11  12
ENDBRANCH   1  11
TORSDOF 4
ENDMDL
MODEL 3
REMARK VINA RESULT: -5.662054709      1.338      2.211
REMARK  4 active torsions:
REMARK  status: ('A' for Active; 'I' for Inactive)
REMARK    1  A    between atoms: C3_3  and  C4_4 
REMARK    2  A    between atoms: C4_4  and  N1_5 
REMARK    3  A    between atoms: N1_5  and  C5_7 
REMARK    4  A    between atoms: C5_7  and  C6_8 
ROOT
HETATM    1  C6  UNL     1     -18.509   2.027 -16.781  1.00  0.00     0.064 C 
HETATM    2  C7  UNL     1     -18.902   2.965 -15.733  1.00  0.00     0.042 C 
HETATM    3  C8  UNL     1     -19.459   1.940 -14.687  1.00  0.00     0.274 C 
HETATM    4  N2  UNL     1     -19.827   0.784 -15.439  1.00  0.00     0.103 N 
HETATM    5  C9  UNL     1     -21.111   0.217 -15.096  1.00  0.00     0.318 C 
HETATM    6  C10 UNL     1     -22.206   1.231 -15.237  1.00  0.00     0.090 C 
HETATM    7  N3  UNL     1     -22.004   2.195 -16.240  1.00  0.00    -0.379 N 
ATOM      8  H3  UNL     1     -22.584   3.034 -16.264  1.00  0.00     0.164 HD
HETATM    9  C11 UNL     1     -21.003   2.005 -17.214  1.00  0.00     0.096 C 
HETATM   10  C12 UNL     1     -19.820   1.193 -16.851  1.00  0.00     0.270 C 
ENDROOT
BRANCH   1  11
HETATM   11  C5  UNL     1     -18.036   2.393 -18.093  1.00  0.00     0.062 C 
BRANCH  11  12
HETATM   12  N1  UNL     1     -17.712   1.348 -18.977  1.00  0.00    -0.401 N 
ATOM     13  H1  UNL     1     -17.139   0.565 -18.665  1.00  0.00     0.158 HD
BRANCH  12  14
HETATM   14  C4  UNL     1     -18.196   1.402 -20.309  1.00  0.00     0.123 C 
BRANCH  14  15
HETATM   15  C3  UNL     1     -17.901   0.093 -21.052  1.00  0.00     0.003 C 
HETATM   16  C2  UNL     1     -17.437  -1.006 -20.123  1.00  0.00     0.006 C 
HETATM   17  C1  UNL     1     -16.210  -1.162 -20.984  1.00  0.00     0.001 C 
HETATM   18  C13 UNL     1     -16.522   0.153 -21.639  1.00  0.00     0.006 C 
ENDBRANCH  14  15
ENDBRANCH  12  14
ENDBRANCH  11  12
ENDBRANCH   1  11
TORSDOF 4
ENDMDL
MODEL 4
REMARK VINA RESULT: -5.660191536      1.451      2.488
REMARK  4 active torsions:
REMARK  status: ('A' for Active; 'I' for Inactive)
REMARK    1  A    between atoms: C3_3  and  C4_4 
REMARK    2  A    between atoms: C4_4  and  N1_5 
REMARK    3  A    between atoms: N1_5  and  C5_7 
REMARK    4  A    between atoms: C5_7  and  C6_8 
ROOT
HETATM    1  C6  UNL     1     -17.958   0.256 -17.429  1.00  0.00     0.064 C 
HETATM    2  C7  UNL     1     -18.804   1.224 -18.123  1.00  0.00     0.042 C 
HETATM    3  C8  UNL     1     -18.380   2.517 -17.345  1.00  0.00     0.274 C 
HETATM    4  N2  UNL     1     -17.890   2.063 -16.083  1.00  0.00     0.103 N 
HETATM    5  C9  UNL     1     -18.363   2.812 -14.941  1.00  0.00     0.318 C 
HETATM    6  C10 UNL     1     -19.860   2.821 -14.882  1.00  0.00     0.090 C 
HETATM    7  N3  UNL     1     -20.487   1.672 -15.395  1.00  0.00    -0.379 N 
ATOM      8  H3  UNL     1     -21.489   1.681 -15.588  1.00  0.00     0.164 HD
HETATM    9  C11 UNL     1     -19.735   0.506 -15.644  1.00  0.00     0.096 C 
HETATM   10  C12 UNL     1     -18.298   0.657 -15.964  1.00  0.00     0.270 C 
ENDROOT
BRANCH   1  11
HETATM   11  C5  UNL     1     -17.999  -1.173 -17.617  1.00  0.00     0.062 C 
BRANCH  11  12
HETATM   12  N1  UNL     1     -17.255  -1.705 -18.685  1.00  0.00    -0.401 N 
ATOM     13  H1  UNL     1     -17.493  -2.614 -19.080  1.00  0.00     0.158 HD
BRANCH  12  14
HETATM   14  C4  UNL     1     -16.169  -0.957 -19.204  1.00  0.00     0.123 C 
BRANCH  14  15
HETATM   15  C3  UNL     1     -16.319  -0.749 -20.717  1.00  0.00     0.003 C 
HETATM   16  C2  UNL     1     -16.825   0.633 -21.062  1.00  0.00     0.006 C 
HETATM   17  C1  UNL     1     -17.944  -0.014 -21.837  1.00  0.00     0.001 C 
HETATM   18  C13 UNL     1     -17.628  -1.322 -21.171  1.00  0.00     0.006 C 
ENDBRANCH  14  15
ENDBRANCH  12  14
ENDBRANCH  11  12
ENDBRANCH   1  11
TORSDOF 4
ENDMDL
MODEL 5
REMARK VINA RESULT: -5.612377683      1.592      2.428
REMARK  4 active torsions:
REMARK  status: ('A' for Active; 'I' for Inactive)
REMARK    1  A    between atoms: C3_3  and  C4_4 
REMARK    2  A    between atoms: C4_4  and  N1_5 
REMARK    3  A    between atoms: N1_5  and  C5_7 
REMARK    4  A    between atoms: C5_7  and  C6_8 
ROOT
HETATM    1  C6  UNL     1     -20.048   2.060 -17.016  1.00  0.00     0.064 C 
HETATM    2  C7  UNL     1     -21.426   1.651 -17.275  1.00  0.00     0.042 C 
HETATM    3  C8  UNL     1     -22.115   2.320 -16.037  1.00  0.00     0.274 C 
HETATM    4  N2  UNL     1     -21.087   2.464 -15.056  1.00  0.00     0.103 N 
HETATM    5  C9  UNL     1     -21.464   2.072 -13.717  1.00  0.00     0.318 C 
HETATM    6  C10 UNL     1     -21.943   0.653 -13.683  1.00  0.00     0.090 C 
HETATM    7  N3  UNL     1     -21.347  -0.205 -14.624  1.00  0.00    -0.379 N 
ATOM      8  H3  UNL     1     -21.759  -1.119 -14.813  1.00  0.00     0.164 HD
HETATM    9  C11 UNL     1     -20.183   0.197 -15.309  1.00  0.00     0.096 C 
HETATM   10  C12 UNL     1     -19.959   1.644 -15.520  1.00  0.00     0.270 C 
ENDROOT
BRANCH   1  11
HETATM   11  C5  UNL     1     -18.894   1.626 -17.763  1.00  0.00     0.062 C 
BRANCH  11  12
HETATM   12  N1  UNL     1     -18.932   1.786 -19.160  1.00  0.00    -0.401 N 
ATOM     13  H1  UNL     1     -19.803   2.031 -19.630  1.00  0.00     0.158 HD
BRANCH  12  14
HETATM   14  C4  UNL     1     -17.739   1.601 -19.904  1.00  0.00     0.123 C 
BRANCH  14  15
HETATM   15  C3  UNL     1     -17.816   0.327 -20.756  1.00  0.00     0.003 C 
HETATM   16  C2  UNL     1     -17.339  -0.897 -20.007  1.00  0.00     0.006 C 
HETATM   17  C1  UNL     1     -16.365  -1.153 -21.128  1.00  0.00     0.001 C 
HETATM   18  C13 UNL     1     -16.604   0.241 -21.634  1.00  0.00     0.006 C 
ENDBRANCH  14  15
ENDBRANCH  12  14
ENDBRANCH  11  12
ENDBRANCH   1  11
TORSDOF 4
ENDMDL
