MODEL 1
REMARK VINA RESULT: -8.670862477      0.000      0.000
REMARK  5 active torsions:
REMARK  status: ('A' for Active; 'I' for Inactive)
REMARK       I    between atoms: C1_2  and  N1_3 
REMARK    1  A    between atoms: C1_2  and  C6_9 
REMARK    2  A    between atoms: N1_3  and  C2_5 
REMARK    3  A    between atoms: C8_13  and  N3_14 
REMARK    4  A    between atoms: C13_21  and  C14_22 
REMARK    5  A    between atoms: C17_26  and  C18_27 
ROOT
HETATM    1  C6  UNL     1      47.496  14.722 -24.295  1.00  0.00     0.076 A 
HETATM    2  C7  UNL     1      46.950  13.424 -24.279  1.00  0.00     0.125 A 
HETATM    3  N2  UNL     1      46.567  12.868 -25.397  1.00  0.00    -0.201 N 
ATOM      4  H2  UNL     1      46.173  11.929 -25.358  1.00  0.00     0.183 HD
HETATM    5  C8  UNL     1      46.663  13.467 -26.595  1.00  0.00     0.680 A 
HETATM    6  N4  UNL     1      47.181  14.698 -26.595  1.00  0.00    -0.189 N 
ATOM      7  H4  UNL     1      47.260  15.169 -27.497  1.00  0.00     0.184 HD
HETATM    8  C13 UNL     1      47.603  15.362 -25.524  1.00  0.00     0.084 A 
ENDROOT
BRANCH   8   9
HETATM    9  C14 UNL     1      48.090  16.762 -25.557  1.00  0.00     0.048 A 
HETATM   10  S1  UNL     1      47.159  18.185 -25.347  1.00  0.00    -0.099 SA
HETATM   11  C15 UNL     1      48.364  19.358 -25.490  1.00  0.00     0.051 A 
HETATM   12  C16 UNL     1      49.484  18.612 -25.702  1.00  0.00     0.025 A 
HETATM   13  C17 UNL     1      49.355  17.262 -25.738  1.00  0.00     0.067 A 
BRANCH  13  14
HETATM   14  C18 UNL     1      50.593  16.392 -25.956  1.00  0.00     0.418 C 
HETATM   15  F1  UNL     1      51.693  17.198 -26.235  1.00  0.00    -0.166 F 
HETATM   16  F2  UNL     1      50.458  15.561 -27.032  1.00  0.00    -0.166 F 
HETATM   17  F3  UNL     1      50.870  15.687 -24.832  1.00  0.00    -0.166 F 
ENDBRANCH  13  14
ENDBRANCH   8   9
BRANCH   1  18
HETATM   18  C1  UNL     1      47.978  15.223 -23.039  1.00  0.00     0.255 C 
HETATM   19  O1  UNL     1      47.559  16.319 -22.581  1.00  0.00    -0.268 OA
HETATM   20  N1  UNL     1      48.928  14.536 -22.231  1.00  0.00    -0.352 N 
ATOM     21  H1  UNL     1      49.294  13.646 -22.570  1.00  0.00     0.163 HD
BRANCH  20  22
HETATM   22  C2  UNL     1      49.399  15.023 -20.966  1.00  0.00     0.084 C 
HETATM   23  C3  UNL     1      48.525  14.608 -19.764  1.00  0.00     0.025 C 
HETATM   24  C4  UNL     1      49.442  13.413 -19.599  1.00  0.00     0.004 C 
HETATM   25  C5  UNL     1      50.487  14.163 -20.400  1.00  0.00     0.025 C 
ENDBRANCH  20  22
ENDBRANCH   1  18
BRANCH   5  26
HETATM   26  N3  UNL     1      46.227  12.791 -27.759  1.00  0.00    -0.218 N 
HETATM   27  C9  UNL     1      45.907  13.271 -29.087  1.00  0.00     0.141 C 
HETATM   28  C10 UNL     1      46.338  12.136 -30.013  1.00  0.00     0.022 C 
HETATM   29  C11 UNL     1      46.844  11.041 -29.090  1.00  0.00     0.022 C 
HETATM   30  C12 UNL     1      46.015  11.345 -27.842  1.00  0.00     0.141 C 
ENDBRANCH   5  26
TORSDOF 5
ENDMDL
MODEL 2
REMARK VINA RESULT: -8.410416286      1.941      2.209
REMARK  5 active torsions:
REMARK  status: ('A' for Active; 'I' for Inactive)
REMARK       I    between atoms: C1_2  and  N1_3 
REMARK    1  A    between atoms: C1_2  and  C6_9 
REMARK    2  A    between atoms: N1_3  and  C2_5 
REMARK    3  A    between atoms: C8_13  and  N3_14 
REMARK    4  A    between atoms: C13_21  and  C14_22 
REMARK    5  A    between atoms: C17_26  and  C18_27 
ROOT
HETATM    1  C6  UNL     1      47.806  14.304 -24.118  1.00  0.00     0.076 A 
HETATM    2  C7  UNL     1      47.013  13.141 -24.103  1.00  0.00     0.125 A 
HETATM    3  N2  UNL     1      46.576  12.639 -25.227  1.00  0.00    -0.201 N 
ATOM      4  H2  UNL     1      46.003  11.797 -25.188  1.00  0.00     0.183 HD
HETATM    5  C8  UNL     1      46.842  13.172 -26.430  1.00  0.00     0.680 A 
HETATM    6  N4  UNL     1      47.594  14.275 -26.430  1.00  0.00    -0.189 N 
ATOM      7  H4  UNL     1      47.805  14.695 -27.336  1.00  0.00     0.184 HD
HETATM    8  C13 UNL     1      48.092  14.875 -25.353  1.00  0.00     0.084 A 
ENDROOT
BRANCH   8   9
HETATM    9  C14 UNL     1      48.848  16.150 -25.390  1.00  0.00     0.048 A 
HETATM   10  S1  UNL     1      50.544  16.341 -25.534  1.00  0.00    -0.099 SA
HETATM   11  C15 UNL     1      50.659  18.025 -25.528  1.00  0.00     0.051 A 
HETATM   12  C16 UNL     1      49.359  18.413 -25.411  1.00  0.00     0.025 A 
HETATM   13  C17 UNL     1      48.408  17.448 -25.340  1.00  0.00     0.067 A 
BRANCH  13  14
HETATM   14  C18 UNL     1      46.937  17.847 -25.228  1.00  0.00     0.418 C 
HETATM   15  F1  UNL     1      46.800  19.215 -25.442  1.00  0.00    -0.166 F 
HETATM   16  F2  UNL     1      46.432  17.614 -23.979  1.00  0.00    -0.166 F 
HETATM   17  F3  UNL     1      46.206  17.204 -26.172  1.00  0.00    -0.166 F 
ENDBRANCH  13  14
ENDBRANCH   8   9
BRANCH   1  18
HETATM   18  C1  UNL     1      48.322  14.737 -22.850  1.00  0.00     0.255 C 
HETATM   19  O1  UNL     1      47.802  15.710 -22.243  1.00  0.00    -0.268 OA
HETATM   20  N1  UNL     1      49.419  14.111 -22.193  1.00  0.00    -0.352 N 
ATOM     21  H1  UNL     1      49.870  13.321 -22.656  1.00  0.00     0.163 HD
BRANCH  20  22
HETATM   22  C2  UNL     1      49.928  14.527 -20.918  1.00  0.00     0.084 C 
HETATM   23  C3  UNL     1      49.320  13.771 -19.718  1.00  0.00     0.025 C 
HETATM   24  C4  UNL     1      50.486  12.809 -19.822  1.00  0.00     0.004 C 
HETATM   25  C5  UNL     1      51.237  13.877 -20.592  1.00  0.00     0.025 C 
ENDBRANCH  20  22
ENDBRANCH   1  18
BRANCH   5  26
HETATM   26  N3  UNL     1      46.333  12.561 -27.601  1.00  0.00    -0.218 N 
HETATM   27  C9  UNL     1      46.054  13.091 -28.919  1.00  0.00     0.141 C 
HETATM   28  C10 UNL     1      46.362  11.933 -29.865  1.00  0.00     0.022 C 
HETATM   29  C11 UNL     1      46.761  10.779 -28.962  1.00  0.00     0.022 C 
HETATM   30  C12 UNL     1      45.974  11.146 -27.703  1.00  0.00     0.141 C 
ENDBRANCH   5  26
TORSDOF 5
ENDMDL
MODEL 3
REMARK VINA RESULT: -8.295085862      2.248      2.581
REMARK  5 active torsions:
REMARK  status: ('A' for Active; 'I' for Inactive)
REMARK       I    between atoms: C1_2  and  N1_3 
REMARK    1  A    between atoms: C1_2  and  C6_9 
REMARK    2  A    between atoms: N1_3  and  C2_5 
REMARK    3  A    between atoms: C8_13  and  N3_14 
REMARK    4  A    between atoms: C13_21  and  C14_22 
REMARK    5  A    between atoms: C17_26  and  C18_27 
ROOT
HETATM    1  C6  UNL     1      47.839  13.823 -24.950  1.00  0.00     0.076 A 
HETATM    2  C7  UNL     1      47.158  12.594 -25.053  1.00  0.00     0.125 A 
HETATM    3  N2  UNL     1      46.672  12.217 -26.205  1.00  0.00    -0.201 N 
ATOM      4  H2  UNL     1      46.182  11.324 -26.253  1.00  0.00     0.183 HD
HETATM    5  C8  UNL     1      46.782  12.942 -27.330  1.00  0.00     0.680 A 
HETATM    6  N4  UNL     1      47.428  14.105 -27.218  1.00  0.00    -0.189 N 
ATOM      7  H4  UNL     1      47.520  14.670 -28.062  1.00  0.00     0.184 HD
HETATM    8  C13 UNL     1      47.963  14.591 -26.101  1.00  0.00     0.084 A 
ENDROOT
BRANCH   8   9
HETATM    9  C14 UNL     1      48.594  15.928 -26.000  1.00  0.00     0.048 A 
HETATM   10  S1  UNL     1      50.246  16.312 -26.246  1.00  0.00    -0.099 SA
HETATM   11  C15 UNL     1      50.209  17.979 -25.988  1.00  0.00     0.051 A 
HETATM   12  C16 UNL     1      48.896  18.210 -25.710  1.00  0.00     0.025 A 
HETATM   13  C17 UNL     1      48.047  17.153 -25.714  1.00  0.00     0.067 A 
BRANCH  13  14
HETATM   14  C18 UNL     1      46.562  17.378 -25.425  1.00  0.00     0.418 C 
HETATM   15  F1  UNL     1      46.302  18.741 -25.323  1.00  0.00    -0.166 F 
HETATM   16  F2  UNL     1      46.181  16.835 -24.230  1.00  0.00    -0.166 F 
HETATM   17  F3  UNL     1      45.811  16.887 -26.441  1.00  0.00    -0.166 F 
ENDBRANCH  13  14
ENDBRANCH   8   9
BRANCH   1  18
HETATM   18  C1  UNL     1      48.423  14.119 -23.672  1.00  0.00     0.255 C 
HETATM   19  O1  UNL     1      47.740  14.661 -22.764  1.00  0.00    -0.268 OA
HETATM   20  N1  UNL     1      49.774  13.819 -23.337  1.00  0.00    -0.352 N 
ATOM     21  H1  UNL     1      50.360  13.382 -24.049  1.00  0.00     0.163 HD
BRANCH  20  22
HETATM   22  C2  UNL     1      50.358  14.096 -22.056  1.00  0.00     0.084 C 
HETATM   23  C3  UNL     1      50.817  12.840 -21.286  1.00  0.00     0.025 C 
HETATM   24  C4  UNL     1      52.184  13.045 -21.908  1.00  0.00     0.004 C 
HETATM   25  C5  UNL     1      51.799  14.487 -22.166  1.00  0.00     0.025 C 
ENDBRANCH  20  22
ENDBRANCH   1  18
BRANCH   5  26
HETATM   26  N3  UNL     1      46.229  12.457 -28.539  1.00  0.00    -0.218 N 
HETATM   27  C9  UNL     1      45.620  13.141 -29.661  1.00  0.00     0.141 C 
HETATM   28  C10 UNL     1      46.012  12.300 -30.874  1.00  0.00     0.022 C 
HETATM   29  C11 UNL     1      46.803  11.133 -30.309  1.00  0.00     0.022 C 
HETATM   30  C12 UNL     1      46.180  11.044 -28.915  1.00  0.00     0.141 C 
ENDBRANCH   5  26
TORSDOF 5
ENDMDL
MODEL 4
REMARK VINA RESULT: -8.244477466      3.508      7.130
REMARK  5 active torsions:
REMARK  status: ('A' for Active; 'I' for Inactive)
REMARK       I    between atoms: C1_2  and  N1_3 
REMARK    1  A    between atoms: C1_2  and  C6_9 
REMARK    2  A    between atoms: N1_3  and  C2_5 
REMARK    3  A    between atoms: C8_13  and  N3_14 
REMARK    4  A    between atoms: C13_21  and  C14_22 
REMARK    5  A    between atoms: C17_26  and  C18_27 
ROOT
HETATM    1  C6  UNL     1      46.920  13.383 -26.413  1.00  0.00     0.076 A 
HETATM    2  C7  UNL     1      46.322  14.577 -26.862  1.00  0.00     0.125 A 
HETATM    3  N2  UNL     1      46.790  15.728 -26.458  1.00  0.00    -0.201 N 
ATOM      4  H2  UNL     1      46.339  16.577 -26.797  1.00  0.00     0.183 HD
HETATM    5  C8  UNL     1      47.833  15.853 -25.622  1.00  0.00     0.680 A 
HETATM    6  N4  UNL     1      48.389  14.714 -25.203  1.00  0.00    -0.189 N 
ATOM      7  H4  UNL     1      49.181  14.790 -24.566  1.00  0.00     0.184 HD
HETATM    8  C13 UNL     1      48.000  13.489 -25.545  1.00  0.00     0.084 A 
ENDROOT
BRANCH   8   9
HETATM    9  C14 UNL     1      48.589  12.248 -24.987  1.00  0.00     0.048 A 
HETATM   10  S1  UNL     1      49.870  11.323 -25.649  1.00  0.00    -0.099 SA
HETATM   11  C15 UNL     1      49.997  10.108 -24.486  1.00  0.00     0.051 A 
HETATM   12  C16 UNL     1      49.027  10.446 -23.592  1.00  0.00     0.025 A 
HETATM   13  C17 UNL     1      48.289  11.557 -23.840  1.00  0.00     0.067 A 
BRANCH  13  14
HETATM   14  C18 UNL     1      47.205  11.978 -22.848  1.00  0.00     0.418 C 
HETATM   15  F1  UNL     1      47.072  11.013 -21.855  1.00  0.00    -0.166 F 
HETATM   16  F2  UNL     1      45.976  12.077 -23.438  1.00  0.00    -0.166 F 
HETATM   17  F3  UNL     1      47.549  13.145 -22.250  1.00  0.00    -0.166 F 
ENDBRANCH  13  14
ENDBRANCH   8   9
BRANCH   1  18
HETATM   18  C1  UNL     1      46.407  12.166 -26.977  1.00  0.00     0.255 C 
HETATM   19  O1  UNL     1      45.464  11.548 -26.418  1.00  0.00    -0.268 OA
HETATM   20  N1  UNL     1      46.900  11.589 -28.181  1.00  0.00    -0.352 N 
ATOM     21  H1  UNL     1      47.668  12.060 -28.661  1.00  0.00     0.163 HD
BRANCH  20  22
HETATM   22  C2  UNL     1      46.380  10.383 -28.758  1.00  0.00     0.084 C 
HETATM   23  C3  UNL     1      46.449  10.339 -30.299  1.00  0.00     0.025 C 
HETATM   24  C4  UNL     1      47.786   9.641 -30.149  1.00  0.00     0.004 C 
HETATM   25  C5  UNL     1      47.381   9.269 -28.737  1.00  0.00     0.025 C 
ENDBRANCH  20  22
ENDBRANCH   1  18
BRANCH   5  26
HETATM   26  N3  UNL     1      48.279  17.140 -25.237  1.00  0.00    -0.218 N 
HETATM   27  C9  UNL     1      49.497  17.864 -25.535  1.00  0.00     0.141 C 
HETATM   28  C10 UNL     1      49.059  19.326 -25.605  1.00  0.00     0.022 C 
HETATM   29  C11 UNL     1      47.576  19.312 -25.280  1.00  0.00     0.022 C 
HETATM   30  C12 UNL     1      47.511  18.063 -24.400  1.00  0.00     0.141 C 
ENDBRANCH   5  26
TORSDOF 5
ENDMDL
MODEL 5
REMARK VINA RESULT: -8.147453641      3.471      5.715
REMARK  5 active torsions:
REMARK  status: ('A' for Active; 'I' for Inactive)
REMARK       I    between atoms: C1_2  and  N1_3 
REMARK    1  A    between atoms: C1_2  and  C6_9 
REMARK    2  A    between atoms: N1_3  and  C2_5 
REMARK    3  A    between atoms: C8_13  and  N3_14 
REMARK    4  A    between atoms: C13_21  and  C14_22 
REMARK    5  A    between atoms: C17_26  and  C18_27 
ROOT
HETATM    1  C6  UNL     1      48.572  13.466 -24.191  1.00  0.00     0.076 A 
HETATM    2  C7  UNL     1      47.699  13.802 -25.243  1.00  0.00     0.125 A 
HETATM    3  N2  UNL     1      47.583  15.049 -25.616  1.00  0.00    -0.201 N 
ATOM      4  H2  UNL     1      46.943  15.266 -26.379  1.00  0.00     0.183 HD
HETATM    5  C8  UNL     1      48.260  16.059 -25.047  1.00  0.00     0.680 A 
HETATM    6  N4  UNL     1      49.083  15.726 -24.050  1.00  0.00    -0.189 N 
ATOM      7  H4  UNL     1      49.604  16.482 -23.605  1.00  0.00     0.184 HD
HETATM    8  C13 UNL     1      49.282  14.497 -23.586  1.00  0.00     0.084 A 
ENDROOT
BRANCH   8   9
HETATM    9  C14 UNL     1      50.137  14.181 -22.417  1.00  0.00     0.048 A 
HETATM   10  S1  UNL     1      51.711  13.505 -22.441  1.00  0.00    -0.099 SA
HETATM   11  C15 UNL     1      52.044  13.458 -20.787  1.00  0.00     0.051 A 
HETATM   12  C16 UNL     1      50.910  13.976 -20.239  1.00  0.00     0.025 A 
HETATM   13  C17 UNL     1      49.912  14.356 -21.075  1.00  0.00     0.067 A 
BRANCH  13  14
HETATM   14  C18 UNL     1      48.632  14.959 -20.496  1.00  0.00     0.418 C 
HETATM   15  F1  UNL     1      47.536  14.555 -21.251  1.00  0.00    -0.166 F 
HETATM   16  F2  UNL     1      48.636  16.325 -20.546  1.00  0.00    -0.166 F 
HETATM   17  F3  UNL     1      48.444  14.522 -19.226  1.00  0.00    -0.166 F 
ENDBRANCH  13  14
ENDBRANCH   8   9
BRANCH   1  18
HETATM   18  C1  UNL     1      48.712  12.065 -23.906  1.00  0.00     0.255 C 
HETATM   19  O1  UNL     1      49.370  11.316 -24.674  1.00  0.00    -0.268 OA
HETATM   20  N1  UNL     1      48.148  11.437 -22.760  1.00  0.00    -0.352 N 
ATOM     21  H1  UNL     1      47.604  12.011 -22.114  1.00  0.00     0.163 HD
BRANCH  20  22
HETATM   22  C2  UNL     1      48.300  10.042 -22.460  1.00  0.00     0.084 C 
HETATM   23  C3  UNL     1      49.521   9.715 -21.575  1.00  0.00     0.025 C 
HETATM   24  C4  UNL     1      48.596   9.828 -20.380  1.00  0.00     0.004 C 
HETATM   25  C5  UNL     1      47.429   9.611 -21.321  1.00  0.00     0.025 C 
ENDBRANCH  20  22
ENDBRANCH   1  18
BRANCH   5  26
HETATM   26  N3  UNL     1      48.078  17.382 -25.516  1.00  0.00    -0.218 N 
HETATM   27  C9  UNL     1      47.370  18.513 -24.953  1.00  0.00     0.141 C 
HETATM   28  C10 UNL     1      48.190  19.726 -25.386  1.00  0.00     0.022 C 
HETATM   29  C11 UNL     1      49.317  19.161 -26.234  1.00  0.00     0.022 C 
HETATM   30  C12 UNL     1      48.637  17.899 -26.766  1.00  0.00     0.141 C 
ENDBRANCH   5  26
TORSDOF 5
ENDMDL
