MODEL 1
REMARK VINA RESULT: -8.835347435      0.000      0.000
REMARK  8 active torsions:
REMARK  status: ('A' for Active; 'I' for Inactive)
REMARK    1  A    between atoms: C2_2  and  C3_3 
REMARK    2  A    between atoms: C3_3  and  C4_4 
REMARK    3  A    between atoms: C11_11  and  C12_12 
REMARK    4  A    between atoms: C12_12  and  O1_14 
REMARK    5  A    between atoms: C12_12  and  C14_16 
REMARK    6  A    between atoms: C14_16  and  O2_17 
REMARK    7  A    between atoms: O2_17  and  S1_18 
REMARK    8  A    between atoms: S1_18  and  O5_21 
ROOT
HETATM    1  C4  UNL     1       6.962   7.950  20.508  1.00  0.00    -0.006 C 
HETATM    2  C5  UNL     1       6.281   6.888  19.708  1.00  0.00     0.006 C 
HETATM    3  C6  UNL     1       5.840   7.316  18.312  1.00  0.00     0.011 C 
HETATM    4  C7  UNL     1       6.569   8.338  17.598  1.00  0.00    -0.029 C 
HETATM    5  C8  UNL     1       6.140   8.112  16.220  1.00  0.00     0.037 C 
HETATM    6  C9  UNL     1       4.809   8.847  15.997  1.00  0.00    -0.022 C 
HETATM    7  C10 UNL     1       4.398  10.170  16.268  1.00  0.00    -0.072 C 
HETATM    8  C11 UNL     1       4.407  11.097  15.052  1.00  0.00     0.051 C 
HETATM    9  C16 UNL     1       5.289  12.244  15.314  1.00  0.00     0.013 C 
HETATM   10  C17 UNL     1       5.487  12.300  16.819  1.00  0.00     0.010 C 
HETATM   11  C18 UNL     1       4.830  11.112  17.427  1.00  0.00     0.023 C 
HETATM   12  C19 UNL     1       5.495  10.263  18.380  1.00  0.00    -0.032 C 
HETATM   13  C20 UNL     1       4.289   9.626  18.895  1.00  0.00     0.016 C 
HETATM   14  C21 UNL     1       6.339  10.233  19.548  1.00  0.00     0.020 C 
HETATM   15  C22 UNL     1       7.385   9.160  19.653  1.00  0.00    -0.035 C 
HETATM   16  C23 UNL     1       8.578   9.704  20.398  1.00  0.00     0.016 C 
HETATM   17  C24 UNL     1       7.784   8.392  18.366  1.00  0.00     0.003 C 
HETATM   18  C25 UNL     1       8.767   9.182  17.598  1.00  0.00     0.006 C 
HETATM   19  C26 UNL     1       7.932  10.399  17.639  1.00  0.00     0.006 C 
HETATM   20  C27 UNL     1       6.536   9.790  17.472  1.00  0.00     0.004 C 
ENDROOT
BRANCH   8  21
HETATM   21  C12 UNL     1       3.042  11.476  14.567  1.00  0.00     0.084 C 
HETATM   22  C13 UNL     1       2.598  10.701  13.355  1.00  0.00     0.049 C 
BRANCH  21  23
HETATM   23  O1  UNL     1       3.124  12.835  14.177  1.00  0.00    -0.387 OA
ATOM     24  H1  UNL     1       2.685  12.898  13.337  1.00  0.00     0.210 HD
ENDBRANCH  21  23
BRANCH  21  25
HETATM   25  C14 UNL     1       2.018  11.384  15.623  1.00  0.00     0.230 C 
BRANCH  25  26
HETATM   26  O2  UNL     1       1.076  10.410  15.216  1.00  0.00    -0.251 OA
BRANCH  26  27
HETATM   27  S1  UNL     1       0.815   9.278  16.406  1.00  0.00     0.401 S 
HETATM   28  O3  UNL     1       1.187   9.869  17.737  1.00  0.00    -0.169 OA
HETATM   29  O4  UNL     1      -0.672   8.992  16.458  1.00  0.00    -0.169 OA
BRANCH  27  30
HETATM   30  O5  UNL     1       1.589   7.830  16.121  1.00  0.00    -0.259 OA
HETATM   31  C15 UNL     1       1.697   7.112  17.326  1.00  0.00     0.228 C 
ENDBRANCH  27  30
ENDBRANCH  26  27
ENDBRANCH  25  26
ENDBRANCH  21  25
ENDBRANCH   8  21
BRANCH   1  32
HETATM   32  C3  UNL     1       6.442   8.268  21.845  1.00  0.00     0.005 C 
BRANCH  32  33
HETATM   33  C2  UNL     1       6.551   7.035  22.730  1.00  0.00    -0.004 C 
HETATM   34  C1  UNL     1       7.553   7.339  23.800  1.00  0.00     0.005 C 
ENDBRANCH  32  33
ENDBRANCH   1  32
TORSDOF 8
ENDMDL
MODEL 2
REMARK VINA RESULT: -8.685403099      3.876      6.585
REMARK  8 active torsions:
REMARK  status: ('A' for Active; 'I' for Inactive)
REMARK    1  A    between atoms: C2_2  and  C3_3 
REMARK    2  A    between atoms: C3_3  and  C4_4 
REMARK    3  A    between atoms: C11_11  and  C12_12 
REMARK    4  A    between atoms: C12_12  and  O1_14 
REMARK    5  A    between atoms: C12_12  and  C14_16 
REMARK    6  A    between atoms: C14_16  and  O2_17 
REMARK    7  A    between atoms: O2_17  and  S1_18 
REMARK    8  A    between atoms: S1_18  and  O5_21 
ROOT
HETATM    1  C4  UNL     1       1.612   7.503  16.275  1.00  0.00    -0.006 C 
HETATM    2  C5  UNL     1       1.453   8.681  17.180  1.00  0.00     0.006 C 
HETATM    3  C6  UNL     1       2.755   9.368  17.577  1.00  0.00     0.011 C 
HETATM    4  C7  UNL     1       3.892   9.348  16.687  1.00  0.00    -0.029 C 
HETATM    5  C8  UNL     1       4.702  10.450  17.201  1.00  0.00     0.037 C 
HETATM    6  C9  UNL     1       5.554   9.926  18.368  1.00  0.00    -0.022 C 
HETATM    7  C10 UNL     1       6.393   8.799  18.500  1.00  0.00    -0.072 C 
HETATM    8  C11 UNL     1       7.884   9.099  18.351  1.00  0.00     0.051 C 
HETATM    9  C16 UNL     1       8.441   8.297  17.251  1.00  0.00     0.013 C 
HETATM   10  C17 UNL     1       7.449   7.174  16.993  1.00  0.00     0.010 C 
HETATM   11  C18 UNL     1       6.254   7.393  17.849  1.00  0.00     0.023 C 
HETATM   12  C19 UNL     1       4.911   7.344  17.332  1.00  0.00    -0.032 C 
HETATM   13  C20 UNL     1       4.249   7.185  18.620  1.00  0.00     0.016 C 
HETATM   14  C21 UNL     1       4.004   6.630  16.469  1.00  0.00     0.020 C 
HETATM   15  C22 UNL     1       3.018   7.417  15.652  1.00  0.00    -0.035 C 
HETATM   16  C23 UNL     1       2.771   6.698  14.349  1.00  0.00     0.016 C 
HETATM   17  C24 UNL     1       3.267   8.935  15.459  1.00  0.00     0.003 C 
HETATM   18  C25 UNL     1       4.240   9.146  14.368  1.00  0.00     0.006 C 
HETATM   19  C26 UNL     1       5.207   8.191  14.944  1.00  0.00     0.006 C 
HETATM   20  C27 UNL     1       5.044   8.491  16.437  1.00  0.00     0.004 C 
ENDROOT
BRANCH   8  21
HETATM   21  C12 UNL     1       8.655   8.996  19.631  1.00  0.00     0.084 C 
HETATM   22  C13 UNL     1       8.798  10.308  20.354  1.00  0.00     0.049 C 
BRANCH  21  23
HETATM   23  O1  UNL     1       9.961   8.579  19.274  1.00  0.00    -0.387 OA
ATOM     24  H1  UNL     1      10.051   7.687  19.588  1.00  0.00     0.210 HD
ENDBRANCH  21  23
BRANCH  21  25
HETATM   25  C14 UNL     1       8.105   7.978  20.545  1.00  0.00     0.230 C 
BRANCH  25  26
HETATM   26  O2  UNL     1       7.670   8.648  21.713  1.00  0.00    -0.251 OA
BRANCH  26  27
HETATM   27  S1  UNL     1       6.830   7.629  22.724  1.00  0.00     0.401 S 
HETATM   28  O3  UNL     1       7.356   6.231  22.560  1.00  0.00    -0.169 OA
HETATM   29  O4  UNL     1       7.127   8.042  24.150  1.00  0.00    -0.169 OA
BRANCH  27  30
HETATM   30  O5  UNL     1       5.179   7.709  22.518  1.00  0.00    -0.259 OA
HETATM   31  C15 UNL     1       4.647   6.407  22.492  1.00  0.00     0.228 C 
ENDBRANCH  27  30
ENDBRANCH  26  27
ENDBRANCH  25  26
ENDBRANCH  21  25
ENDBRANCH   8  21
BRANCH   1  32
HETATM   32  C3  UNL     1       1.014   6.222  16.674  1.00  0.00     0.005 C 
BRANCH  32  33
HETATM   33  C2  UNL     1       0.765   6.232  18.176  1.00  0.00    -0.004 C 
HETATM   34  C1  UNL     1       1.323   4.957  18.731  1.00  0.00     0.005 C 
ENDBRANCH  32  33
ENDBRANCH   1  32
TORSDOF 8
ENDMDL
MODEL 3
REMARK VINA RESULT: -8.548556476      3.761      7.124
REMARK  8 active torsions:
REMARK  status: ('A' for Active; 'I' for Inactive)
REMARK    1  A    between atoms: C2_2  and  C3_3 
REMARK    2  A    between atoms: C3_3  and  C4_4 
REMARK    3  A    between atoms: C11_11  and  C12_12 
REMARK    4  A    between atoms: C12_12  and  O1_14 
REMARK    5  A    between atoms: C12_12  and  C14_16 
REMARK    6  A    between atoms: C14_16  and  O2_17 
REMARK    7  A    between atoms: O2_17  and  S1_18 
REMARK    8  A    between atoms: S1_18  and  O5_21 
ROOT
HETATM    1  C4  UNL     1       4.638   8.161  14.076  1.00  0.00    -0.006 C 
HETATM    2  C5  UNL     1       6.081   8.335  14.417  1.00  0.00     0.006 C 
HETATM    3  C6  UNL     1       6.475   7.860  15.812  1.00  0.00     0.011 C 
HETATM    4  C7  UNL     1       5.756   6.780  16.445  1.00  0.00    -0.029 C 
HETATM    5  C8  UNL     1       6.694   6.355  17.481  1.00  0.00     0.037 C 
HETATM    6  C9  UNL     1       6.505   7.257  18.711  1.00  0.00    -0.022 C 
HETATM    7  C10 UNL     1       5.358   7.650  19.433  1.00  0.00    -0.072 C 
HETATM    8  C11 UNL     1       5.131   6.875  20.731  1.00  0.00     0.051 C 
HETATM    9  C16 UNL     1       3.815   6.221  20.691  1.00  0.00     0.013 C 
HETATM   10  C17 UNL     1       3.020   6.921  19.602  1.00  0.00     0.010 C 
HETATM   11  C18 UNL     1       3.911   7.893  18.917  1.00  0.00     0.023 C 
HETATM   12  C19 UNL     1       4.025   7.963  17.483  1.00  0.00    -0.032 C 
HETATM   13  C20 UNL     1       4.628   9.288  17.435  1.00  0.00     0.016 C 
HETATM   14  C21 UNL     1       3.298   7.948  16.239  1.00  0.00     0.020 C 
HETATM   15  C22 UNL     1       3.900   7.235  15.062  1.00  0.00    -0.035 C 
HETATM   16  C23 UNL     1       2.794   6.650  14.219  1.00  0.00     0.016 C 
HETATM   17  C24 UNL     1       5.051   6.227  15.320  1.00  0.00     0.003 C 
HETATM   18  C25 UNL     1       4.490   4.926  15.737  1.00  0.00     0.006 C 
HETATM   19  C26 UNL     1       3.645   5.540  16.780  1.00  0.00     0.006 C 
HETATM   20  C27 UNL     1       4.588   6.627  17.304  1.00  0.00     0.004 C 
ENDROOT
BRANCH   8  21
HETATM   21  C12 UNL     1       5.375   7.681  21.970  1.00  0.00     0.084 C 
HETATM   22  C13 UNL     1       6.018   6.895  23.081  1.00  0.00     0.049 C 
BRANCH  21  23
HETATM   23  O1  UNL     1       4.100   8.084  22.437  1.00  0.00    -0.387 OA
ATOM     24  H1  UNL     1       4.122   7.994  23.383  1.00  0.00     0.210 HD
ENDBRANCH  21  23
BRANCH  21  25
HETATM   25  C14 UNL     1       6.153   8.905  21.707  1.00  0.00     0.230 C 
BRANCH  25  26
HETATM   26  O2  UNL     1       7.523   8.555  21.757  1.00  0.00    -0.251 OA
BRANCH  26  27
HETATM   27  S1  UNL     1       8.450   9.588  20.841  1.00  0.00     0.401 S 
HETATM   28  O3  UNL     1       9.443  10.280  21.734  1.00  0.00    -0.169 OA
HETATM   29  O4  UNL     1       9.253   8.750  19.867  1.00  0.00    -0.169 OA
BRANCH  27  30
HETATM   30  O5  UNL     1       7.551  10.665  19.945  1.00  0.00    -0.259 OA
HETATM   31  C15 UNL     1       7.960  10.613  18.601  1.00  0.00     0.228 C 
ENDBRANCH  27  30
ENDBRANCH  26  27
ENDBRANCH  25  26
ENDBRANCH  21  25
ENDBRANCH   8  21
BRANCH   1  32
HETATM   32  C3  UNL     1       3.877   9.329  13.612  1.00  0.00     0.005 C 
BRANCH  32  33
HETATM   33  C2  UNL     1       4.664  10.595  13.923  1.00  0.00    -0.004 C 
HETATM   34  C1  UNL     1       3.728  11.549  14.598  1.00  0.00     0.005 C 
ENDBRANCH  32  33
ENDBRANCH   1  32
TORSDOF 8
ENDMDL
MODEL 4
REMARK VINA RESULT: -8.514210934      3.601      7.061
REMARK  8 active torsions:
REMARK  status: ('A' for Active; 'I' for Inactive)
REMARK    1  A    between atoms: C2_2  and  C3_3 
REMARK    2  A    between atoms: C3_3  and  C4_4 
REMARK    3  A    between atoms: C11_11  and  C12_12 
REMARK    4  A    between atoms: C12_12  and  O1_14 
REMARK    5  A    between atoms: C12_12  and  C14_16 
REMARK    6  A    between atoms: C14_16  and  O2_17 
REMARK    7  A    between atoms: O2_17  and  S1_18 
REMARK    8  A    between atoms: S1_18  and  O5_21 
ROOT
HETATM    1  C4  UNL     1       3.894  10.482  14.275  1.00  0.00    -0.006 C 
HETATM    2  C5  UNL     1       5.071  11.085  14.970  1.00  0.00     0.006 C 
HETATM    3  C6  UNL     1       5.567  10.310  16.186  1.00  0.00     0.011 C 
HETATM    4  C7  UNL     1       5.401   8.877  16.255  1.00  0.00    -0.029 C 
HETATM    5  C8  UNL     1       6.375   8.506  17.280  1.00  0.00     0.037 C 
HETATM    6  C9  UNL     1       5.723   8.690  18.660  1.00  0.00    -0.022 C 
HETATM    7  C10 UNL     1       4.489   8.259  19.192  1.00  0.00    -0.072 C 
HETATM    8  C11 UNL     1       4.583   7.020  20.082  1.00  0.00     0.051 C 
HETATM    9  C16 UNL     1       3.726   5.956  19.537  1.00  0.00     0.013 C 
HETATM   10  C17 UNL     1       2.754   6.632  18.585  1.00  0.00     0.010 C 
HETATM   11  C18 UNL     1       3.125   8.067  18.472  1.00  0.00     0.023 C 
HETATM   12  C19 UNL     1       3.268   8.733  17.203  1.00  0.00    -0.032 C 
HETATM   13  C20 UNL     1       3.186  10.091  17.724  1.00  0.00     0.016 C 
HETATM   14  C21 UNL     1       2.697   8.909  15.891  1.00  0.00     0.020 C 
HETATM   15  C22 UNL     1       3.622   9.031  14.714  1.00  0.00    -0.035 C 
HETATM   16  C23 UNL     1       2.961   8.425  13.501  1.00  0.00     0.016 C 
HETATM   17  C24 UNL     1       5.094   8.572  14.883  1.00  0.00     0.003 C 
HETATM   18  C25 UNL     1       5.183   7.108  14.717  1.00  0.00     0.006 C 
HETATM   19  C26 UNL     1       4.097   6.858  15.685  1.00  0.00     0.006 C 
HETATM   20  C27 UNL     1       4.397   7.935  16.732  1.00  0.00     0.004 C 
ENDROOT
BRANCH   8  21
HETATM   21  C12 UNL     1       4.358   7.298  21.537  1.00  0.00     0.084 C 
HETATM   22  C13 UNL     1       3.243   6.485  22.139  1.00  0.00     0.049 C 
BRANCH  21  23
HETATM   23  O1  UNL     1       3.970   8.656  21.625  1.00  0.00    -0.387 OA
ATOM     24  H1  UNL     1       4.557   9.138  21.054  1.00  0.00     0.210 HD
ENDBRANCH  21  23
BRANCH  21  25
HETATM   25  C14 UNL     1       5.584   7.139  22.341  1.00  0.00     0.230 C 
BRANCH  25  26
HETATM   26  O2  UNL     1       6.121   8.430  22.554  1.00  0.00    -0.251 OA
BRANCH  26  27
HETATM   27  S1  UNL     1       7.618   8.593  21.848  1.00  0.00     0.401 S 
HETATM   28  O3  UNL     1       8.674   8.531  22.916  1.00  0.00    -0.169 OA
HETATM   29  O4  UNL     1       7.839   7.396  20.947  1.00  0.00    -0.169 OA
BRANCH  27  30
HETATM   30  O5  UNL     1       7.758   9.957  20.903  1.00  0.00    -0.259 OA
HETATM   31  C15 UNL     1       8.894   9.844  20.082  1.00  0.00     0.228 C 
ENDBRANCH  27  30
ENDBRANCH  26  27
ENDBRANCH  25  26
ENDBRANCH  21  25
ENDBRANCH   8  21
BRANCH   1  32
HETATM   32  C3  UNL     1       2.702  11.314  14.057  1.00  0.00     0.005 C 
BRANCH  32  33
HETATM   33  C2  UNL     1       2.976  12.724  14.561  1.00  0.00    -0.004 C 
HETATM   34  C1  UNL     1       2.006  12.999  15.668  1.00  0.00     0.005 C 
ENDBRANCH  32  33
ENDBRANCH   1  32
TORSDOF 8
ENDMDL
MODEL 5
REMARK VINA RESULT: -8.455472129      2.100      5.174
REMARK  8 active torsions:
REMARK  status: ('A' for Active; 'I' for Inactive)
REMARK    1  A    between atoms: C2_2  and  C3_3 
REMARK    2  A    between atoms: C3_3  and  C4_4 
REMARK    3  A    between atoms: C11_11  and  C12_12 
REMARK    4  A    between atoms: C12_12  and  O1_14 
REMARK    5  A    between atoms: C12_12  and  C14_16 
REMARK    6  A    between atoms: C14_16  and  O2_17 
REMARK    7  A    between atoms: O2_17  and  S1_18 
REMARK    8  A    between atoms: S1_18  and  O5_21 
ROOT
HETATM    1  C4  UNL     1       7.192  10.797  18.442  1.00  0.00    -0.006 C 
HETATM    2  C5  UNL     1       6.369  10.990  19.674  1.00  0.00     0.006 C 
HETATM    3  C6  UNL     1       5.623   9.748  20.151  1.00  0.00     0.011 C 
HETATM    4  C7  UNL     1       6.158   8.432  19.895  1.00  0.00    -0.029 C 
HETATM    5  C8  UNL     1       5.439   7.615  20.869  1.00  0.00     0.037 C 
HETATM    6  C9  UNL     1       4.079   7.225  20.269  1.00  0.00    -0.022 C 
HETATM    7  C10 UNL     1       3.716   6.667  19.025  1.00  0.00    -0.072 C 
HETATM    8  C11 UNL     1       3.440   5.163  19.062  1.00  0.00     0.051 C 
HETATM    9  C16 UNL     1       4.339   4.475  18.123  1.00  0.00     0.013 C 
HETATM   10  C17 UNL     1       4.864   5.537  17.172  1.00  0.00     0.010 C 
HETATM   11  C18 UNL     1       4.378   6.865  17.632  1.00  0.00     0.023 C 
HETATM   12  C19 UNL     1       5.251   7.999  17.783  1.00  0.00    -0.032 C 
HETATM   13  C20 UNL     1       4.200   9.008  17.804  1.00  0.00     0.016 C 
HETATM   14  C21 UNL     1       6.333   8.744  17.189  1.00  0.00     0.020 C 
HETATM   15  C22 UNL     1       7.394   9.311  18.089  1.00  0.00    -0.035 C 
HETATM   16  C23 UNL     1       8.714   9.312  17.357  1.00  0.00     0.016 C 
HETATM   17  C24 UNL     1       7.512   8.756  19.532  1.00  0.00     0.003 C 
HETATM   18  C25 UNL     1       8.287   7.499  19.521  1.00  0.00     0.006 C 
HETATM   19  C26 UNL     1       7.461   6.912  18.447  1.00  0.00     0.006 C 
HETATM   20  C27 UNL     1       6.074   7.425  18.845  1.00  0.00     0.004 C 
ENDROOT
BRANCH   8  21
HETATM   21  C12 UNL     1       1.995   4.806  18.895  1.00  0.00     0.084 C 
HETATM   22  C13 UNL     1       1.539   3.705  19.814  1.00  0.00     0.049 C 
BRANCH  21  23
HETATM   23  O1  UNL     1       1.857   4.321  17.572  1.00  0.00    -0.387 OA
ATOM     24  H1  UNL     1       0.928   4.174  17.438  1.00  0.00     0.210 HD
ENDBRANCH  21  23
BRANCH  21  25
HETATM   25  C14 UNL     1       1.103   5.972  19.029  1.00  0.00     0.230 C 
BRANCH  25  26
HETATM   26  O2  UNL     1       0.025   5.787  18.132  1.00  0.00    -0.251 OA
BRANCH  26  27
HETATM   27  S1  UNL     1       0.020   6.943  16.937  1.00  0.00     0.401 S 
HETATM   28  O3  UNL     1       1.221   6.744  16.055  1.00  0.00    -0.169 OA
HETATM   29  O4  UNL     1      -1.200   6.709  16.069  1.00  0.00    -0.169 OA
BRANCH  27  30
HETATM   30  O5  UNL     1      -0.080   8.499  17.523  1.00  0.00    -0.259 OA
HETATM   31  C15 UNL     1       0.827   9.320  16.830  1.00  0.00     0.228 C 
ENDBRANCH  27  30
ENDBRANCH  26  27
ENDBRANCH  25  26
ENDBRANCH  21  25
ENDBRANCH   8  21
BRANCH   1  32
HETATM   32  C3  UNL     1       6.975  11.697  17.301  1.00  0.00     0.005 C 
BRANCH  32  33
HETATM   33  C2  UNL     1       5.513  12.121  17.268  1.00  0.00    -0.004 C 
HETATM   34  C1  UNL     1       5.124  12.275  15.830  1.00  0.00     0.005 C 
ENDBRANCH  32  33
ENDBRANCH   1  32
TORSDOF 8
ENDMDL
