MODEL 1
REMARK VINA RESULT: -8.888965600      0.000      0.000
REMARK  10 active torsions:
REMARK  status: ('A' for Active; 'I' for Inactive)
REMARK    1  A    between atoms: C2_2  and  C3_3 
REMARK    2  A    between atoms: C5_5  and  O1_6 
REMARK    3  A    between atoms: O1_6  and  C6_7 
REMARK    4  A    between atoms: C14_16  and  C15_17 
REMARK    5  A    between atoms: C15_17  and  C17_19 
REMARK    6  A    between atoms: C17_19  and  C18_20 
REMARK    7  A    between atoms: C18_20  and  C19_21 
REMARK    8  A    between atoms: C19_21  and  C20_22 
REMARK    9  A    between atoms: C26_28  and  C28_30 
REMARK   10  A    between atoms: C28_30  and  O3_31 
ROOT
HETATM    1  C3  UNL     1       2.524   6.711  17.236  1.00  0.00     0.008 C 
HETATM    2  C4  UNL     1       1.767   6.709  15.888  1.00  0.00     0.023 C 
HETATM    3  C5  UNL     1       3.196   5.389  17.318  1.00  0.00     0.144 C 
HETATM    4  C8  UNL     1       4.553   5.392  17.942  1.00  0.00     0.034 C 
HETATM    5  C9  UNL     1       5.356   6.634  18.046  1.00  0.00     0.013 C 
HETATM    6  C10 UNL     1       4.519   7.881  18.309  1.00  0.00    -0.028 C 
HETATM    7  C11 UNL     1       3.942   7.448  19.639  1.00  0.00     0.016 C 
HETATM    8  C12 UNL     1       5.222   9.161  18.477  1.00  0.00    -0.028 C 
HETATM    9  C13 UNL     1       4.724   9.756  19.810  1.00  0.00     0.016 C 
HETATM   10  C14 UNL     1       6.643   9.445  18.479  1.00  0.00    -0.002 C 
HETATM   11  C23 UNL     1       6.995  10.546  17.479  1.00  0.00     0.006 C 
HETATM   12  C24 UNL     1       5.688  11.379  17.596  1.00  0.00     0.007 C 
HETATM   13  C25 UNL     1       4.784  10.219  17.441  1.00  0.00     0.005 C 
HETATM   14  C26 UNL     1       3.396  10.375  17.096  1.00  0.00    -0.018 C 
HETATM   15  C27 UNL     1       2.508  11.172  18.062  1.00  0.00     0.018 C 
HETATM   16  C29 UNL     1       2.776   9.049  16.829  1.00  0.00     0.022 C 
HETATM   17  C30 UNL     1       3.568   7.814  17.125  1.00  0.00    -0.022 C 
HETATM   18  C31 UNL     1       4.285   7.440  15.836  1.00  0.00     0.017 C 
ENDROOT
BRANCH  10  19
HETATM   19  C15 UNL     1       7.804   8.590  18.677  1.00  0.00    -0.014 C 
HETATM   20  C16 UNL     1       8.790   8.955  17.507  1.00  0.00     0.010 C 
BRANCH  19  21
HETATM   21  C17 UNL     1       8.723   9.085  19.817  1.00  0.00     0.005 C 
BRANCH  21  22
HETATM   22  C18 UNL     1       8.133   9.102  21.156  1.00  0.00     0.001 C 
BRANCH  22  23
HETATM   23  C19 UNL     1       7.455   7.730  21.348  1.00  0.00     0.004 C 
BRANCH  23  24
HETATM   24  C20 UNL     1       6.697   7.707  22.656  1.00  0.00    -0.023 C 
HETATM   25  C21 UNL     1       7.653   7.303  23.758  1.00  0.00     0.009 C 
HETATM   26  C22 UNL     1       5.597   6.668  22.626  1.00  0.00     0.009 C 
ENDBRANCH  23  24
ENDBRANCH  22  23
ENDBRANCH  21  22
ENDBRANCH  19  21
ENDBRANCH  10  19
BRANCH  14  27
HETATM   27  C28 UNL     1       3.353  11.283  15.839  1.00  0.00     0.173 C 
BRANCH  27  28
HETATM   28  O3  UNL     1       3.168  10.641  14.666  1.00  0.00    -0.400 OA
ATOM     29  H3  UNL     1       3.951  10.277  14.270  1.00  0.00     0.209 HD
ENDBRANCH  27  28
ENDBRANCH  14  27
BRANCH   1  30
HETATM   30  C2  UNL     1       1.432   6.971  18.169  1.00  0.00    -0.024 C 
HETATM   31  C1  UNL     1       0.168   6.842  17.771  1.00  0.00     0.008 C 
ENDBRANCH   1  30
BRANCH   3  32
HETATM   32  O1  UNL     1       2.348   4.467  18.001  1.00  0.00    -0.315 OA
BRANCH  32  33
HETATM   33  C6  UNL     1       2.678   3.745  19.117  1.00  0.00     0.255 C 
HETATM   34  C7  UNL     1       2.514   4.327  20.488  1.00  0.00     0.126 C 
HETATM   35  O2  UNL     1       3.133   2.558  18.969  1.00  0.00    -0.266 OA
ENDBRANCH  32  33
ENDBRANCH   3  32
TORSDOF 10
ENDMDL
MODEL 2
REMARK VINA RESULT: -8.807498282      1.690      5.410
REMARK  10 active torsions:
REMARK  status: ('A' for Active; 'I' for Inactive)
REMARK    1  A    between atoms: C2_2  and  C3_3 
REMARK    2  A    between atoms: C5_5  and  O1_6 
REMARK    3  A    between atoms: O1_6  and  C6_7 
REMARK    4  A    between atoms: C14_16  and  C15_17 
REMARK    5  A    between atoms: C15_17  and  C17_19 
REMARK    6  A    between atoms: C17_19  and  C18_20 
REMARK    7  A    between atoms: C18_20  and  C19_21 
REMARK    8  A    between atoms: C19_21  and  C20_22 
REMARK    9  A    between atoms: C26_28  and  C28_30 
REMARK   10  A    between atoms: C28_30  and  O3_31 
ROOT
HETATM    1  C3  UNL     1       3.516   9.310  16.166  1.00  0.00     0.008 C 
HETATM    2  C4  UNL     1       2.185   9.914  15.662  1.00  0.00     0.023 C 
HETATM    3  C5  UNL     1       4.391  10.471  16.469  1.00  0.00     0.144 C 
HETATM    4  C8  UNL     1       5.274  10.320  17.664  1.00  0.00     0.034 C 
HETATM    5  C9  UNL     1       4.984   9.319  18.720  1.00  0.00     0.013 C 
HETATM    6  C10 UNL     1       4.390   8.021  18.184  1.00  0.00    -0.028 C 
HETATM    7  C11 UNL     1       5.559   7.623  17.309  1.00  0.00     0.016 C 
HETATM    8  C12 UNL     1       4.111   6.942  19.143  1.00  0.00    -0.028 C 
HETATM    9  C13 UNL     1       4.814   5.684  18.596  1.00  0.00     0.016 C 
HETATM   10  C14 UNL     1       4.355   6.885  20.571  1.00  0.00    -0.002 C 
HETATM   11  C23 UNL     1       3.086   6.519  21.341  1.00  0.00     0.006 C 
HETATM   12  C24 UNL     1       2.441   5.586  20.279  1.00  0.00     0.007 C 
HETATM   13  C25 UNL     1       2.622   6.531  19.154  1.00  0.00     0.005 C 
HETATM   14  C26 UNL     1       1.890   6.398  17.923  1.00  0.00    -0.018 C 
HETATM   15  C27 UNL     1       2.086   5.110  17.113  1.00  0.00     0.018 C 
HETATM   16  C29 UNL     1       2.131   7.578  17.048  1.00  0.00     0.022 C 
HETATM   17  C30 UNL     1       3.177   8.570  17.453  1.00  0.00    -0.022 C 
HETATM   18  C31 UNL     1       2.463   9.647  18.256  1.00  0.00     0.017 C 
ENDROOT
BRANCH  10  19
HETATM   19  C15 UNL     1       5.236   7.654  21.437  1.00  0.00    -0.014 C 
HETATM   20  C16 UNL     1       4.981   7.093  22.885  1.00  0.00     0.010 C 
BRANCH  19  21
HETATM   21  C17 UNL     1       6.709   7.196  21.348  1.00  0.00     0.005 C 
BRANCH  21  22
HETATM   22  C18 UNL     1       7.678   8.223  20.963  1.00  0.00     0.001 C 
BRANCH  22  23
HETATM   23  C19 UNL     1       8.292   7.758  19.625  1.00  0.00     0.004 C 
BRANCH  23  24
HETATM   24  C20 UNL     1       9.008   8.911  18.959  1.00  0.00    -0.023 C 
HETATM   25  C21 UNL     1       8.518  10.203  19.577  1.00  0.00     0.009 C 
HETATM   26  C22 UNL     1       8.672   8.975  17.484  1.00  0.00     0.009 C 
ENDBRANCH  23  24
ENDBRANCH  22  23
ENDBRANCH  21  22
ENDBRANCH  19  21
ENDBRANCH  10  19
BRANCH  14  27
HETATM   27  C28 UNL     1       0.393   6.278  18.310  1.00  0.00     0.173 C 
BRANCH  27  28
HETATM   28  O3  UNL     1      -0.485   6.684  17.368  1.00  0.00    -0.400 OA
ATOM     29  H3  UNL     1      -1.371   6.358  17.467  1.00  0.00     0.209 HD
ENDBRANCH  27  28
ENDBRANCH  14  27
BRANCH   1  30
HETATM   30  C2  UNL     1       3.885   8.465  15.034  1.00  0.00    -0.024 C 
HETATM   31  C1  UNL     1       3.341   8.677  13.837  1.00  0.00     0.008 C 
ENDBRANCH   1  30
BRANCH   3  32
HETATM   32  O1  UNL     1       5.177  10.786  15.321  1.00  0.00    -0.315 OA
BRANCH  32  33
HETATM   33  C6  UNL     1       5.048  11.903  14.538  1.00  0.00     0.255 C 
HETATM   34  C7  UNL     1       3.750  12.647  14.468  1.00  0.00     0.126 C 
HETATM   35  O2  UNL     1       6.060  12.301  13.864  1.00  0.00    -0.266 OA
ENDBRANCH  32  33
ENDBRANCH   3  32
TORSDOF 10
ENDMDL
MODEL 3
REMARK VINA RESULT: -8.479250445      1.004      1.252
REMARK  10 active torsions:
REMARK  status: ('A' for Active; 'I' for Inactive)
REMARK    1  A    between atoms: C2_2  and  C3_3 
REMARK    2  A    between atoms: C5_5  and  O1_6 
REMARK    3  A    between atoms: O1_6  and  C6_7 
REMARK    4  A    between atoms: C14_16  and  C15_17 
REMARK    5  A    between atoms: C15_17  and  C17_19 
REMARK    6  A    between atoms: C17_19  and  C18_20 
REMARK    7  A    between atoms: C18_20  and  C19_21 
REMARK    8  A    between atoms: C19_21  and  C20_22 
REMARK    9  A    between atoms: C26_28  and  C28_30 
REMARK   10  A    between atoms: C28_30  and  O3_31 
ROOT
HETATM    1  C3  UNL     1       3.254   7.137  16.719  1.00  0.00     0.008 C 
HETATM    2  C4  UNL     1       2.758   7.017  15.259  1.00  0.00     0.023 C 
HETATM    3  C5  UNL     1       3.836   5.813  17.052  1.00  0.00     0.144 C 
HETATM    4  C8  UNL     1       5.054   5.842  17.916  1.00  0.00     0.034 C 
HETATM    5  C9  UNL     1       5.881   7.065  18.048  1.00  0.00     0.013 C 
HETATM    6  C10 UNL     1       5.070   8.356  18.028  1.00  0.00    -0.028 C 
HETATM    7  C11 UNL     1       4.238   8.079  19.262  1.00  0.00     0.016 C 
HETATM    8  C12 UNL     1       5.789   9.626  18.202  1.00  0.00    -0.028 C 
HETATM    9  C13 UNL     1       5.083  10.369  19.353  1.00  0.00     0.016 C 
HETATM   10  C14 UNL     1       7.198   9.869  18.442  1.00  0.00    -0.002 C 
HETATM   11  C23 UNL     1       7.779  10.850  17.424  1.00  0.00     0.006 C 
HETATM   12  C24 UNL     1       6.513  11.727  17.213  1.00  0.00     0.007 C 
HETATM   13  C25 UNL     1       5.599  10.583  17.004  1.00  0.00     0.005 C 
HETATM   14  C26 UNL     1       4.307  10.742  16.392  1.00  0.00    -0.018 C 
HETATM   15  C27 UNL     1       3.295  11.659  17.093  1.00  0.00     0.018 C 
HETATM   16  C29 UNL     1       3.685   9.413  16.142  1.00  0.00     0.022 C 
HETATM   17  C30 UNL     1       4.351   8.193  16.699  1.00  0.00    -0.022 C 
HETATM   18  C31 UNL     1       5.274   7.668  15.610  1.00  0.00     0.017 C 
ENDROOT
BRANCH  10  19
HETATM   19  C15 UNL     1       8.260   9.007  18.936  1.00  0.00    -0.014 C 
HETATM   20  C16 UNL     1       9.084   9.900  19.937  1.00  0.00     0.010 C 
BRANCH  19  21
HETATM   21  C17 UNL     1       7.766   7.997  19.997  1.00  0.00     0.005 C 
BRANCH  21  22
HETATM   22  C18 UNL     1       7.705   8.491  21.373  1.00  0.00     0.001 C 
BRANCH  22  23
HETATM   23  C19 UNL     1       6.326   8.070  21.923  1.00  0.00     0.004 C 
BRANCH  23  24
HETATM   24  C20 UNL     1       6.486   6.920  22.892  1.00  0.00    -0.023 C 
HETATM   25  C21 UNL     1       5.157   6.675  23.572  1.00  0.00     0.009 C 
HETATM   26  C22 UNL     1       7.479   7.267  23.982  1.00  0.00     0.009 C 
ENDBRANCH  23  24
ENDBRANCH  22  23
ENDBRANCH  21  22
ENDBRANCH  19  21
ENDBRANCH  10  19
BRANCH  14  27
HETATM   27  C28 UNL     1       4.538  11.515  15.068  1.00  0.00     0.173 C 
BRANCH  27  28
HETATM   28  O3  UNL     1       5.243  10.854  14.124  1.00  0.00    -0.400 OA
ATOM     29  H3  UNL     1       5.533   9.982  14.367  1.00  0.00     0.209 HD
ENDBRANCH  27  28
ENDBRANCH  14  27
BRANCH   1  30
HETATM   30  C2  UNL     1       2.022   7.524  17.401  1.00  0.00    -0.024 C 
HETATM   31  C1  UNL     1       0.862   7.506  16.746  1.00  0.00     0.008 C 
ENDBRANCH   1  30
BRANCH   3  32
HETATM   32  O1  UNL     1       2.835   4.991  17.650  1.00  0.00    -0.315 OA
BRANCH  32  33
HETATM   33  C6  UNL     1       2.949   4.319  18.838  1.00  0.00     0.255 C 
HETATM   34  C7  UNL     1       2.598   4.983  20.135  1.00  0.00     0.126 C 
HETATM   35  O2  UNL     1       3.363   3.108  18.822  1.00  0.00    -0.266 OA
ENDBRANCH  32  33
ENDBRANCH   3  32
TORSDOF 10
ENDMDL
MODEL 4
REMARK VINA RESULT: -8.413094241      2.264      5.765
REMARK  10 active torsions:
REMARK  status: ('A' for Active; 'I' for Inactive)
REMARK    1  A    between atoms: C2_2  and  C3_3 
REMARK    2  A    between atoms: C5_5  and  O1_6 
REMARK    3  A    between atoms: O1_6  and  C6_7 
REMARK    4  A    between atoms: C14_16  and  C15_17 
REMARK    5  A    between atoms: C15_17  and  C17_19 
REMARK    6  A    between atoms: C17_19  and  C18_20 
REMARK    7  A    between atoms: C18_20  and  C19_21 
REMARK    8  A    between atoms: C19_21  and  C20_22 
REMARK    9  A    between atoms: C26_28  and  C28_30 
REMARK   10  A    between atoms: C28_30  and  O3_31 
ROOT
HETATM    1  C3  UNL     1       6.201   9.594  18.802  1.00  0.00     0.008 C 
HETATM    2  C4  UNL     1       6.800  10.932  19.294  1.00  0.00     0.023 C 
HETATM    3  C5  UNL     1       5.852   8.838  20.031  1.00  0.00     0.144 C 
HETATM    4  C8  UNL     1       4.599   8.030  19.957  1.00  0.00     0.034 C 
HETATM    5  C9  UNL     1       3.555   8.309  18.942  1.00  0.00     0.013 C 
HETATM    6  C10 UNL     1       4.115   8.759  17.598  1.00  0.00    -0.028 C 
HETATM    7  C11 UNL     1       4.905   7.506  17.290  1.00  0.00     0.016 C 
HETATM    8  C12 UNL     1       3.166   9.016  16.505  1.00  0.00    -0.028 C 
HETATM    9  C13 UNL     1       3.651   8.179  15.305  1.00  0.00     0.016 C 
HETATM   10  C14 UNL     1       1.725   8.866  16.474  1.00  0.00    -0.002 C 
HETATM   11  C23 UNL     1       1.038  10.151  16.012  1.00  0.00     0.006 C 
HETATM   12  C24 UNL     1       2.131  10.645  15.024  1.00  0.00     0.007 C 
HETATM   13  C25 UNL     1       3.251  10.464  15.975  1.00  0.00     0.005 C 
HETATM   14  C26 UNL     1       4.527  11.098  15.777  1.00  0.00    -0.018 C 
HETATM   15  C27 UNL     1       5.309  10.745  14.505  1.00  0.00     0.018 C 
HETATM   16  C29 UNL     1       5.396  10.893  16.968  1.00  0.00     0.022 C 
HETATM   17  C30 UNL     1       4.933   9.961  18.044  1.00  0.00    -0.022 C 
HETATM   18  C31 UNL     1       4.190  10.811  19.063  1.00  0.00     0.017 C 
ENDROOT
BRANCH  10  19
HETATM   19  C15 UNL     1       0.810   8.111  17.316  1.00  0.00    -0.014 C 
HETATM   20  C16 UNL     1      -0.630   8.548  16.855  1.00  0.00     0.010 C 
BRANCH  19  21
HETATM   21  C17 UNL     1       0.673   6.635  16.877  1.00  0.00     0.005 C 
BRANCH  21  22
HETATM   22  C18 UNL     1       0.797   5.636  17.938  1.00  0.00     0.001 C 
BRANCH  22  23
HETATM   23  C19 UNL     1       2.243   5.102  17.864  1.00  0.00     0.004 C 
BRANCH  23  24
HETATM   24  C20 UNL     1       2.486   4.112  18.980  1.00  0.00    -0.023 C 
HETATM   25  C21 UNL     1       1.195   3.371  19.254  1.00  0.00     0.009 C 
HETATM   26  C22 UNL     1       2.864   4.824  20.262  1.00  0.00     0.009 C 
ENDBRANCH  23  24
ENDBRANCH  22  23
ENDBRANCH  21  22
ENDBRANCH  19  21
ENDBRANCH  10  19
BRANCH  14  27
HETATM   27  C28 UNL     1       4.240  12.604  15.539  1.00  0.00     0.173 C 
BRANCH  27  28
HETATM   28  O3  UNL     1       3.976  13.327  16.649  1.00  0.00    -0.400 OA
ATOM     29  H3  UNL     1       3.948  14.269  16.526  1.00  0.00     0.209 HD
ENDBRANCH  27  28
ENDBRANCH  14  27
BRANCH   1  30
HETATM   30  C2  UNL     1       7.297   9.083  17.983  1.00  0.00    -0.024 C 
HETATM   31  C1  UNL     1       8.482   9.689  18.000  1.00  0.00     0.008 C 
ENDBRANCH   1  30
BRANCH   3  32
HETATM   32  O1  UNL     1       6.948   8.004  20.402  1.00  0.00    -0.315 OA
BRANCH  32  33
HETATM   33  C6  UNL     1       7.626   8.046  21.591  1.00  0.00     0.255 C 
HETATM   34  C7  UNL     1       7.298   7.092  22.699  1.00  0.00     0.126 C 
HETATM   35  O2  UNL     1       8.549   8.921  21.742  1.00  0.00    -0.266 OA
ENDBRANCH  32  33
ENDBRANCH   3  32
TORSDOF 10
ENDMDL
MODEL 5
REMARK VINA RESULT: -8.323292666      2.322      5.717
REMARK  10 active torsions:
REMARK  status: ('A' for Active; 'I' for Inactive)
REMARK    1  A    between atoms: C2_2  and  C3_3 
REMARK    2  A    between atoms: C5_5  and  O1_6 
REMARK    3  A    between atoms: O1_6  and  C6_7 
REMARK    4  A    between atoms: C14_16  and  C15_17 
REMARK    5  A    between atoms: C15_17  and  C17_19 
REMARK    6  A    between atoms: C17_19  and  C18_20 
REMARK    7  A    between atoms: C18_20  and  C19_21 
REMARK    8  A    between atoms: C19_21  and  C20_22 
REMARK    9  A    between atoms: C26_28  and  C28_30 
REMARK   10  A    between atoms: C28_30  and  O3_31 
ROOT
HETATM    1  C3  UNL     1       4.228  10.254  15.905  1.00  0.00     0.008 C 
HETATM    2  C4  UNL     1       4.439  10.500  14.394  1.00  0.00     0.023 C 
HETATM    3  C5  UNL     1       2.806  10.589  16.169  1.00  0.00     0.144 C 
HETATM    4  C8  UNL     1       2.111   9.721  17.166  1.00  0.00     0.034 C 
HETATM    5  C9  UNL     1       2.628   8.376  17.515  1.00  0.00     0.013 C 
HETATM    6  C10 UNL     1       4.150   8.292  17.532  1.00  0.00    -0.028 C 
HETATM    7  C11 UNL     1       4.386   9.309  18.628  1.00  0.00     0.016 C 
HETATM    8  C12 UNL     1       4.767   7.013  17.913  1.00  0.00    -0.028 C 
HETATM    9  C13 UNL     1       5.763   7.334  19.045  1.00  0.00     0.016 C 
HETATM   10  C14 UNL     1       4.145   5.774  18.338  1.00  0.00    -0.002 C 
HETATM   11  C23 UNL     1       4.625   4.591  17.498  1.00  0.00     0.006 C 
HETATM   12  C24 UNL     1       6.076   5.080  17.231  1.00  0.00     0.007 C 
HETATM   13  C25 UNL     1       5.675   6.439  16.804  1.00  0.00     0.005 C 
HETATM   14  C26 UNL     1       6.562   7.298  16.067  1.00  0.00    -0.018 C 
HETATM   15  C27 UNL     1       7.884   7.699  16.735  1.00  0.00     0.018 C 
HETATM   16  C29 UNL     1       5.842   8.520  15.615  1.00  0.00     0.022 C 
HETATM   17  C30 UNL     1       4.454   8.763  16.119  1.00  0.00    -0.022 C 
HETATM   18  C31 UNL     1       3.508   8.151  15.096  1.00  0.00     0.017 C 
ENDROOT
BRANCH  10  19
HETATM   19  C15 UNL     1       2.820   5.483  18.862  1.00  0.00    -0.014 C 
HETATM   20  C16 UNL     1       2.452   4.064  18.289  1.00  0.00     0.010 C 
BRANCH  19  21
HETATM   21  C17 UNL     1       2.845   5.051  20.346  1.00  0.00     0.005 C 
BRANCH  21  22
HETATM   22  C18 UNL     1       2.947   6.132  21.327  1.00  0.00     0.001 C 
BRANCH  22  23
HETATM   23  C19 UNL     1       4.110   5.754  22.268  1.00  0.00     0.004 C 
BRANCH  23  24
HETATM   24  C20 UNL     1       4.737   7.005  22.841  1.00  0.00    -0.023 C 
HETATM   25  C21 UNL     1       4.314   8.186  21.994  1.00  0.00     0.009 C 
HETATM   26  C22 UNL     1       6.248   6.933  22.771  1.00  0.00     0.009 C 
ENDBRANCH  23  24
ENDBRANCH  22  23
ENDBRANCH  21  22
ENDBRANCH  19  21
ENDBRANCH  10  19
BRANCH  14  27
HETATM   27  C28 UNL     1       7.079   6.469  14.862  1.00  0.00     0.173 C 
BRANCH  27  28
HETATM   28  O3  UNL     1       6.192   6.283  13.861  1.00  0.00    -0.400 OA
ATOM     29  H3  UNL     1       6.125   6.995  13.236  1.00  0.00     0.209 HD
ENDBRANCH  27  28
ENDBRANCH  14  27
BRANCH   1  30
HETATM   30  C2  UNL     1       5.245  11.131  16.477  1.00  0.00    -0.024 C 
HETATM   31  C1  UNL     1       5.773  12.109  15.742  1.00  0.00     0.008 C 
ENDBRANCH   1  30
BRANCH   3  32
HETATM   32  O1  UNL     1       2.706  11.957  16.562  1.00  0.00    -0.315 OA
BRANCH  32  33
HETATM   33  C6  UNL     1       2.169  12.972  15.816  1.00  0.00     0.255 C 
HETATM   34  C7  UNL     1       2.130  12.891  14.320  1.00  0.00     0.126 C 
HETATM   35  O2  UNL     1       1.699  13.998  16.420  1.00  0.00    -0.266 OA
ENDBRANCH  32  33
ENDBRANCH   3  32
TORSDOF 10
ENDMDL
