MODEL 1
REMARK VINA RESULT: -7.587317843      0.000      0.000
REMARK  7 active torsions:
REMARK  status: ('A' for Active; 'I' for Inactive)
REMARK    1  A    between atoms: C2_2  and  O1_4 
REMARK    2  A    between atoms: C2_2  and  C4_6 
REMARK    3  A    between atoms: C4_6  and  N1_7 
REMARK    4  A    between atoms: N1_7  and  C5_10 
REMARK    5  A    between atoms: C5_10  and  C6_11 
REMARK    6  A    between atoms: C7_16  and  N5_17 
REMARK    7  A    between atoms: C8_18  and  O2_19 
ROOT
HETATM    1  N5  UNL     1      13.080  -8.848 -14.139  1.00  0.00    -0.247 N 
HETATM    2  C8  UNL     1      13.493  -8.677 -15.404  1.00  0.00     0.231 A 
HETATM    3  N6  UNL     1      13.587  -7.344 -15.618  1.00  0.00    -0.316 N 
ATOM      4  H6  UNL     1      13.880  -6.916 -16.497  1.00  0.00     0.169 HD
HETATM    5  C9  UNL     1      13.247  -6.668 -14.526  1.00  0.00     0.124 A 
HETATM    6  C10 UNL     1      13.167  -5.326 -14.184  1.00  0.00     0.132 A 
HETATM    7  N7  UNL     1      13.477  -4.457 -15.086  1.00  0.00    -0.383 N 
ATOM      8  H71 UNL     1      13.418  -3.470 -14.834  1.00  0.00     0.157 HD
ATOM      9  H72 UNL     1      13.772  -4.710 -16.029  1.00  0.00     0.157 HD
HETATM   10  N8  UNL     1      12.778  -4.992 -12.940  1.00  0.00    -0.318 N 
ATOM     11  H8  UNL     1      12.724  -4.002 -12.699  1.00  0.00     0.169 HD
HETATM   12  C11 UNL     1      12.461  -5.889 -12.011  1.00  0.00     0.191 A 
HETATM   13  C12 UNL     1      12.047  -5.544 -10.678  1.00  0.00     0.137 C 
HETATM   14  N9  UNL     1      11.734  -5.259  -9.609  1.00  0.00    -0.188 NA
HETATM   15  N10 UNL     1      12.541  -7.212 -12.355  1.00  0.00    -0.317 N 
ATOM     16  H10 UNL     1      12.301  -7.913 -11.653  1.00  0.00     0.169 HD
HETATM   17  C13 UNL     1      12.919  -7.628 -13.568  1.00  0.00     0.149 A 
ENDROOT
BRANCH   1  18
HETATM   18  C7  UNL     1      12.854 -10.111 -13.507  1.00  0.00     0.128 C 
HETATM   19  C6  UNL     1      11.989 -10.447 -12.343  1.00  0.00     0.192 C 
HETATM   20  N2  UNL     1      11.592 -11.821 -12.724  1.00  0.00    -0.112 NA
HETATM   21  N3  UNL     1      12.906 -12.282 -13.031  1.00  0.00    -0.029 NA
HETATM   22  N4  UNL     1      13.384 -11.253 -13.878  1.00  0.00    -0.274 N 
ATOM     23  H4  UNL     1      14.035 -11.379 -14.652  1.00  0.00     0.185 HD
BRANCH  19  24
HETATM   24  C5  UNL     1      12.915 -10.530 -11.135  1.00  0.00     0.262 C 
BRANCH  24  25
HETATM   25  N1  UNL     1      12.303 -11.230 -10.041  1.00  0.00    -0.070 N 
ATOM     26  H12 UNL     1      12.992 -11.500  -9.339  1.00  0.00     0.277 HD
ATOM     27  H11 UNL     1      11.992 -12.160 -10.320  1.00  0.00     0.277 HD
BRANCH  25  28
HETATM   28  C4  UNL     1      11.241 -10.475  -9.467  1.00  0.00     0.269 C 
BRANCH  28  29
HETATM   29  C2  UNL     1       9.968 -11.295  -9.356  1.00  0.00     0.074 C 
HETATM   30  C1  UNL     1       8.965 -10.704 -10.339  1.00  0.00     0.047 C 
HETATM   31  C3  UNL     1       9.436 -11.333  -7.961  1.00  0.00     0.047 C 
BRANCH  29  32
HETATM   32  O1  UNL     1      10.265 -12.580  -9.775  1.00  0.00    -0.389 OA
ATOM     33  H1  UNL     1      11.110 -12.556 -10.209  1.00  0.00     0.210 HD
ENDBRANCH  29  32
ENDBRANCH  28  29
ENDBRANCH  25  28
ENDBRANCH  24  25
ENDBRANCH  19  24
ENDBRANCH   1  18
BRANCH   2  34
HETATM   34  O2  UNL     1      13.776  -9.683 -16.335  1.00  0.00    -0.332 OA
ATOM     35  H2  UNL     1      14.440  -9.658 -17.014  1.00  0.00     0.221 HD
ENDBRANCH   2  34
TORSDOF 7
ENDMDL
MODEL 2
REMARK VINA RESULT: -7.491775175      2.771      4.312
REMARK  7 active torsions:
REMARK  status: ('A' for Active; 'I' for Inactive)
REMARK    1  A    between atoms: C2_2  and  O1_4 
REMARK    2  A    between atoms: C2_2  and  C4_6 
REMARK    3  A    between atoms: C4_6  and  N1_7 
REMARK    4  A    between atoms: N1_7  and  C5_10 
REMARK    5  A    between atoms: C5_10  and  C6_11 
REMARK    6  A    between atoms: C7_16  and  N5_17 
REMARK    7  A    between atoms: C8_18  and  O2_19 
ROOT
HETATM    1  N5  UNL     1      13.055  -8.913 -14.072  1.00  0.00    -0.247 N 
HETATM    2  C8  UNL     1      13.486  -8.720 -15.328  1.00  0.00     0.231 A 
HETATM    3  N6  UNL     1      13.611  -7.384 -15.509  1.00  0.00    -0.316 N 
ATOM      4  H6  UNL     1      13.922  -6.942 -16.374  1.00  0.00     0.169 HD
HETATM    5  C9  UNL     1      13.271  -6.728 -14.405  1.00  0.00     0.124 A 
HETATM    6  C10 UNL     1      13.215  -5.393 -14.031  1.00  0.00     0.132 A 
HETATM    7  N7  UNL     1      13.553  -4.509 -14.908  1.00  0.00    -0.383 N 
ATOM      8  H71 UNL     1      13.512  -3.528 -14.633  1.00  0.00     0.157 HD
ATOM      9  H72 UNL     1      13.854  -4.746 -15.854  1.00  0.00     0.157 HD
HETATM   10  N8  UNL     1      12.818  -5.081 -12.784  1.00  0.00    -0.318 N 
ATOM     11  H8  UNL     1      12.780  -4.096 -12.519  1.00  0.00     0.169 HD
HETATM   12  C11 UNL     1      12.471  -5.992 -11.880  1.00  0.00     0.191 A 
HETATM   13  C12 UNL     1      12.048  -5.671 -10.545  1.00  0.00     0.137 C 
HETATM   14  N9  UNL     1      11.728  -5.406  -9.473  1.00  0.00    -0.188 NA
HETATM   15  N10 UNL     1      12.527  -7.309 -12.255  1.00  0.00    -0.317 N 
ATOM     16  H10 UNL     1      12.265  -8.021 -11.574  1.00  0.00     0.169 HD
HETATM   17  C13 UNL     1      12.911  -7.703 -13.473  1.00  0.00     0.149 A 
ENDROOT
BRANCH   1  18
HETATM   18  C7  UNL     1      12.795 -10.185 -13.473  1.00  0.00     0.128 C 
HETATM   19  C6  UNL     1      13.753 -11.225 -13.007  1.00  0.00     0.192 C 
HETATM   20  N2  UNL     1      12.977 -11.780 -11.875  1.00  0.00    -0.112 NA
HETATM   21  N3  UNL     1      11.753 -11.939 -12.590  1.00  0.00    -0.029 NA
HETATM   22  N4  UNL     1      11.607 -10.670 -13.201  1.00  0.00    -0.274 N 
ATOM     23  H4  UNL     1      10.720 -10.206 -13.396  1.00  0.00     0.185 HD
BRANCH  19  24
HETATM   24  C5  UNL     1      13.811 -12.275 -14.112  1.00  0.00     0.262 C 
BRANCH  24  25
HETATM   25  N1  UNL     1      14.381 -13.508 -13.646  1.00  0.00    -0.070 N 
ATOM     26  H12 UNL     1      13.982 -13.789 -12.751  1.00  0.00     0.277 HD
ATOM     27  H11 UNL     1      15.350 -13.385 -13.355  1.00  0.00     0.277 HD
BRANCH  25  28
HETATM   28  C4  UNL     1      14.256 -14.540 -14.620  1.00  0.00     0.269 C 
BRANCH  28  29
HETATM   29  C2  UNL     1      15.525 -14.693 -15.439  1.00  0.00     0.074 C 
HETATM   30  C1  UNL     1      15.474 -16.068 -16.094  1.00  0.00     0.047 C 
HETATM   31  C3  UNL     1      16.758 -14.504 -14.619  1.00  0.00     0.047 C 
BRANCH  29  32
HETATM   32  O1  UNL     1      15.485 -13.744 -16.446  1.00  0.00    -0.389 OA
ATOM     33  H1  UNL     1      14.658 -13.841 -16.903  1.00  0.00     0.210 HD
ENDBRANCH  29  32
ENDBRANCH  28  29
ENDBRANCH  25  28
ENDBRANCH  24  25
ENDBRANCH  19  24
ENDBRANCH   1  18
BRANCH   2  34
HETATM   34  O2  UNL     1      13.760  -9.709 -16.279  1.00  0.00    -0.332 OA
ATOM     35  H2  UNL     1      13.692  -9.624 -17.223  1.00  0.00     0.221 HD
ENDBRANCH   2  34
TORSDOF 7
ENDMDL
MODEL 3
REMARK VINA RESULT: -7.414655878      4.059      6.166
REMARK  7 active torsions:
REMARK  status: ('A' for Active; 'I' for Inactive)
REMARK    1  A    between atoms: C2_2  and  O1_4 
REMARK    2  A    between atoms: C2_2  and  C4_6 
REMARK    3  A    between atoms: C4_6  and  N1_7 
REMARK    4  A    between atoms: N1_7  and  C5_10 
REMARK    5  A    between atoms: C5_10  and  C6_11 
REMARK    6  A    between atoms: C7_16  and  N5_17 
REMARK    7  A    between atoms: C8_18  and  O2_19 
ROOT
HETATM    1  N5  UNL     1      14.332 -11.280 -12.036  1.00  0.00    -0.247 N 
HETATM    2  C8  UNL     1      15.081 -11.349 -10.924  1.00  0.00     0.231 A 
HETATM    3  N6  UNL     1      15.403 -10.081 -10.578  1.00  0.00    -0.316 N 
ATOM      4  H6  UNL     1      15.970  -9.826  -9.768  1.00  0.00     0.169 HD
HETATM    5  C9  UNL     1      14.881  -9.213 -11.437  1.00  0.00     0.124 A 
HETATM    6  C10 UNL     1      14.883  -7.831 -11.566  1.00  0.00     0.132 A 
HETATM    7  N7  UNL     1      15.528  -7.147 -10.682  1.00  0.00    -0.383 N 
ATOM      8  H71 UNL     1      15.530  -6.132 -10.776  1.00  0.00     0.157 HD
ATOM      9  H72 UNL     1      16.032  -7.573  -9.903  1.00  0.00     0.157 HD
HETATM   10  N8  UNL     1      14.219  -7.270 -12.592  1.00  0.00    -0.318 N 
ATOM     11  H8  UNL     1      14.226  -6.254 -12.677  1.00  0.00     0.169 HD
HETATM   12  C11 UNL     1      13.553  -7.976 -13.501  1.00  0.00     0.191 A 
HETATM   13  C12 UNL     1      12.837  -7.388 -14.600  1.00  0.00     0.137 C 
HETATM   14  N9  UNL     1      12.252  -6.908 -15.466  1.00  0.00    -0.188 NA
HETATM   15  N10 UNL     1      13.555  -9.340 -13.370  1.00  0.00    -0.317 N 
ATOM     16  H10 UNL     1      13.049  -9.896 -14.060  1.00  0.00     0.169 HD
HETATM   17  C13 UNL     1      14.189  -9.975 -12.380  1.00  0.00     0.149 A 
ENDROOT
BRANCH   1  18
HETATM   18  C7  UNL     1      13.780 -12.401 -12.731  1.00  0.00     0.128 C 
HETATM   19  C6  UNL     1      14.471 -13.564 -13.352  1.00  0.00     0.192 C 
HETATM   20  N2  UNL     1      13.440 -14.603 -13.137  1.00  0.00    -0.112 NA
HETATM   21  N3  UNL     1      12.343 -13.837 -13.633  1.00  0.00    -0.029 NA
HETATM   22  N4  UNL     1      12.502 -12.617 -12.933  1.00  0.00    -0.274 N 
ATOM     23  H4  UNL     1      11.745 -12.004 -12.634  1.00  0.00     0.185 HD
BRANCH  19  24
HETATM   24  C5  UNL     1      14.549 -13.265 -14.845  1.00  0.00     0.262 C 
BRANCH  24  25
HETATM   25  N1  UNL     1      14.361 -14.447 -15.637  1.00  0.00    -0.070 N 
ATOM     26  H12 UNL     1      14.031 -14.220 -16.575  1.00  0.00     0.277 HD
ATOM     27  H11 UNL     1      13.559 -14.989 -15.315  1.00  0.00     0.277 HD
BRANCH  25  28
HETATM   28  C4  UNL     1      15.544 -15.241 -15.679  1.00  0.00     0.269 C 
BRANCH  28  29
HETATM   29  C2  UNL     1      15.521 -16.219 -16.839  1.00  0.00     0.074 C 
HETATM   30  C1  UNL     1      14.688 -15.583 -17.946  1.00  0.00     0.047 C 
HETATM   31  C3  UNL     1      15.001 -17.561 -16.442  1.00  0.00     0.047 C 
BRANCH  29  32
HETATM   32  O1  UNL     1      16.819 -16.341 -17.304  1.00  0.00    -0.389 OA
ATOM     33  H1  UNL     1      17.361 -15.734 -16.814  1.00  0.00     0.210 HD
ENDBRANCH  29  32
ENDBRANCH  28  29
ENDBRANCH  25  28
ENDBRANCH  24  25
ENDBRANCH  19  24
ENDBRANCH   1  18
BRANCH   2  34
HETATM   34  O2  UNL     1      15.460 -12.511 -10.242  1.00  0.00    -0.332 OA
ATOM     35  H2  UNL     1      15.404 -12.664  -9.307  1.00  0.00     0.221 HD
ENDBRANCH   2  34
TORSDOF 7
ENDMDL
MODEL 4
REMARK VINA RESULT: -7.260081157      2.248      3.724
REMARK  7 active torsions:
REMARK  status: ('A' for Active; 'I' for Inactive)
REMARK    1  A    between atoms: C2_2  and  O1_4 
REMARK    2  A    between atoms: C2_2  and  C4_6 
REMARK    3  A    between atoms: C4_6  and  N1_7 
REMARK    4  A    between atoms: N1_7  and  C5_10 
REMARK    5  A    between atoms: C5_10  and  C6_11 
REMARK    6  A    between atoms: C7_16  and  N5_17 
REMARK    7  A    between atoms: C8_18  and  O2_19 
ROOT
HETATM    1  N5  UNL     1      11.963 -10.803 -12.047  1.00  0.00    -0.247 N 
HETATM    2  C8  UNL     1      12.743 -11.702 -12.666  1.00  0.00     0.231 A 
HETATM    3  N6  UNL     1      13.214 -11.117 -13.792  1.00  0.00    -0.316 N 
ATOM      4  H6  UNL     1      13.836 -11.567 -14.464  1.00  0.00     0.169 HD
HETATM    5  C9  UNL     1      12.756  -9.875 -13.902  1.00  0.00     0.124 A 
HETATM    6  C10 UNL     1      12.911  -8.845 -14.819  1.00  0.00     0.132 A 
HETATM    7  N7  UNL     1      13.663  -9.064 -15.845  1.00  0.00    -0.383 N 
ATOM      8  H71 UNL     1      13.778  -8.307 -16.519  1.00  0.00     0.157 HD
ATOM      9  H72 UNL     1      14.140  -9.950 -16.011  1.00  0.00     0.157 HD
HETATM   10  N8  UNL     1      12.283  -7.676 -14.601  1.00  0.00    -0.318 N 
ATOM     11  H8  UNL     1      12.404  -6.926 -15.281  1.00  0.00     0.169 HD
HETATM   12  C11 UNL     1      11.510  -7.452 -13.542  1.00  0.00     0.191 A 
HETATM   13  C12 UNL     1      10.835  -6.207 -13.297  1.00  0.00     0.137 C 
HETATM   14  N9  UNL     1      10.314  -5.201 -13.100  1.00  0.00    -0.188 NA
HETATM   15  N10 UNL     1      11.359  -8.472 -12.641  1.00  0.00    -0.317 N 
ATOM     16  H10 UNL     1      10.769  -8.316 -11.823  1.00  0.00     0.169 HD
HETATM   17  C13 UNL     1      11.949  -9.663 -12.783  1.00  0.00     0.149 A 
ENDROOT
BRANCH   1  18
HETATM   18  C7  UNL     1      11.269 -11.019 -10.815  1.00  0.00     0.128 C 
HETATM   19  C6  UNL     1       9.881 -11.504 -10.583  1.00  0.00     0.192 C 
HETATM   20  N2  UNL     1      10.087 -12.227  -9.308  1.00  0.00    -0.112 NA
HETATM   21  N3  UNL     1      10.798 -11.181  -8.649  1.00  0.00    -0.029 NA
HETATM   22  N4  UNL     1      11.772 -10.838  -9.617  1.00  0.00    -0.274 N 
ATOM     23  H4  UNL     1      12.714 -10.504  -9.416  1.00  0.00     0.185 HD
BRANCH  19  24
HETATM   24  C5  UNL     1       9.040 -10.263 -10.302  1.00  0.00     0.262 C 
BRANCH  24  25
HETATM   25  N1  UNL     1       7.749 -10.602  -9.774  1.00  0.00    -0.070 N 
ATOM     26  H12 UNL     1       7.602 -11.611  -9.767  1.00  0.00     0.277 HD
ATOM     27  H11 UNL     1       7.002 -10.340 -10.417  1.00  0.00     0.277 HD
BRANCH  25  28
HETATM   28  C4  UNL     1       7.549 -10.036  -8.482  1.00  0.00     0.269 C 
BRANCH  28  29
HETATM   29  C2  UNL     1       7.153 -11.090  -7.465  1.00  0.00     0.074 C 
HETATM   30  C1  UNL     1       6.319 -12.133  -8.199  1.00  0.00     0.047 C 
HETATM   31  C3  UNL     1       6.427 -10.509  -6.296  1.00  0.00     0.047 C 
BRANCH  29  32
HETATM   32  O1  UNL     1       8.314 -11.706  -7.032  1.00  0.00    -0.389 OA
ATOM     33  H1  UNL     1       8.527 -12.393  -7.653  1.00  0.00     0.210 HD
ENDBRANCH  29  32
ENDBRANCH  28  29
ENDBRANCH  25  28
ENDBRANCH  24  25
ENDBRANCH  19  24
ENDBRANCH   1  18
BRANCH   2  34
HETATM   34  O2  UNL     1      13.023 -13.004 -12.236  1.00  0.00    -0.332 OA
ATOM     35  H2  UNL     1      12.493 -13.778 -12.385  1.00  0.00     0.221 HD
ENDBRANCH   2  34
TORSDOF 7
ENDMDL
MODEL 5
REMARK VINA RESULT: -7.230771815      3.655      5.214
REMARK  7 active torsions:
REMARK  status: ('A' for Active; 'I' for Inactive)
REMARK    1  A    between atoms: C2_2  and  O1_4 
REMARK    2  A    between atoms: C2_2  and  C4_6 
REMARK    3  A    between atoms: C4_6  and  N1_7 
REMARK    4  A    between atoms: N1_7  and  C5_10 
REMARK    5  A    between atoms: C5_10  and  C6_11 
REMARK    6  A    between atoms: C7_16  and  N5_17 
REMARK    7  A    between atoms: C8_18  and  O2_19 
ROOT
HETATM    1  N5  UNL     1      13.471 -10.071 -14.229  1.00  0.00    -0.247 N 
HETATM    2  C8  UNL     1      13.693  -9.585 -15.460  1.00  0.00     0.231 A 
HETATM    3  N6  UNL     1      13.705  -8.235 -15.362  1.00  0.00    -0.316 N 
ATOM      4  H6  UNL     1      13.852  -7.598 -16.145  1.00  0.00     0.169 HD
HETATM    5  C9  UNL     1      13.498  -7.854 -14.107  1.00  0.00     0.124 A 
HETATM    6  C10 UNL     1      13.417  -6.635 -13.448  1.00  0.00     0.132 A 
HETATM    7  N7  UNL     1      13.561  -5.562 -14.151  1.00  0.00    -0.383 N 
ATOM      8  H71 UNL     1      13.502  -4.666 -13.668  1.00  0.00     0.157 HD
ATOM      9  H72 UNL     1      13.729  -5.571 -15.158  1.00  0.00     0.157 HD
HETATM   10  N8  UNL     1      13.196  -6.623 -12.122  1.00  0.00    -0.318 N 
ATOM     11  H8  UNL     1      13.139  -5.721 -11.647  1.00  0.00     0.169 HD
HETATM   12  C11 UNL     1      13.049  -7.729 -11.398  1.00  0.00     0.191 A 
HETATM   13  C12 UNL     1      12.816  -7.730  -9.980  1.00  0.00     0.137 C 
HETATM   14  N9  UNL     1      12.648  -7.720  -8.842  1.00  0.00    -0.188 NA
HETATM   15  N10 UNL     1      13.129  -8.930 -12.053  1.00  0.00    -0.317 N 
ATOM     16  H10 UNL     1      13.018  -9.787 -11.513  1.00  0.00     0.169 HD
HETATM   17  C13 UNL     1      13.346  -9.028 -13.368  1.00  0.00     0.149 A 
ENDROOT
BRANCH   1  18
HETATM   18  C7  UNL     1      13.385 -11.458 -13.890  1.00  0.00     0.128 C 
HETATM   19  C6  UNL     1      14.431 -12.515 -13.957  1.00  0.00     0.192 C 
HETATM   20  N2  UNL     1      14.004 -13.352 -12.814  1.00  0.00    -0.112 NA
HETATM   21  N3  UNL     1      12.627 -13.423 -13.180  1.00  0.00    -0.029 NA
HETATM   22  N4  UNL     1      12.320 -12.061 -13.419  1.00  0.00    -0.274 N 
ATOM     23  H4  UNL     1      11.416 -11.621 -13.251  1.00  0.00     0.185 HD
BRANCH  19  24
HETATM   24  C5  UNL     1      14.171 -13.289 -15.245  1.00  0.00     0.262 C 
BRANCH  24  25
HETATM   25  N1  UNL     1      14.449 -14.689 -15.091  1.00  0.00    -0.070 N 
ATOM     26  H12 UNL     1      13.691 -15.262 -15.460  1.00  0.00     0.277 HD
ATOM     27  H11 UNL     1      14.401 -14.974 -14.113  1.00  0.00     0.277 HD
BRANCH  25  28
HETATM   28  C4  UNL     1      15.700 -15.039 -15.675  1.00  0.00     0.269 C 
BRANCH  28  29
HETATM   29  C2  UNL     1      15.539 -16.099 -16.750  1.00  0.00     0.074 C 
HETATM   30  C1  UNL     1      14.692 -15.487 -17.860  1.00  0.00     0.047 C 
HETATM   31  C3  UNL     1      14.947 -17.362 -16.219  1.00  0.00     0.047 C 
BRANCH  29  32
HETATM   32  O1  UNL     1      16.796 -16.356 -17.270  1.00  0.00    -0.389 OA
ATOM     33  H1  UNL     1      17.436 -15.962 -16.690  1.00  0.00     0.210 HD
ENDBRANCH  29  32
ENDBRANCH  28  29
ENDBRANCH  25  28
ENDBRANCH  24  25
ENDBRANCH  19  24
ENDBRANCH   1  18
BRANCH   2  34
HETATM   34  O2  UNL     1      13.878 -10.328 -16.631  1.00  0.00    -0.332 OA
ATOM     35  H2  UNL     1      14.087 -11.253 -16.690  1.00  0.00     0.221 HD
ENDBRANCH   2  34
TORSDOF 7
ENDMDL
