MODEL 1
REMARK VINA RESULT: -8.185183640      0.000      0.000
REMARK  6 active torsions:
REMARK  status: ('A' for Active; 'I' for Inactive)
REMARK    1  A    between atoms: C2_10  and  C3_11 
REMARK    2  A    between atoms: N7_21  and  N8_23 
REMARK    3  A    between atoms: N8_23  and  N9_25 
REMARK    4  A    between atoms: N10_29  and  C8_30 
REMARK    5  A    between atoms: C8_30  and  C9_31 
REMARK    6  A    between atoms: C9_31  and  C10_32 
ROOT
HETATM    1  C3  UNL     1      13.052 -11.997 -12.992  1.00  0.00     0.143 A 
HETATM    2  N4  UNL     1      11.977 -12.598 -12.425  1.00  0.00    -0.324 N 
ATOM      3  H4  UNL     1      11.883 -13.600 -12.266  1.00  0.00     0.169 HD
HETATM    4  C4  UNL     1      11.072 -11.692 -12.110  1.00  0.00     0.139 A 
HETATM    5  N5  UNL     1       9.839 -11.797 -11.527  1.00  0.00    -0.337 N 
ATOM      6  H5  UNL     1       9.478 -12.711 -11.256  1.00  0.00     0.168 HD
HETATM    7  C5  UNL     1       9.106 -10.695 -11.314  1.00  0.00     0.183 A 
HETATM    8  N6  UNL     1       9.606  -9.505 -11.681  1.00  0.00    -0.336 N 
ATOM      9  H6  UNL     1       9.041  -8.672 -11.515  1.00  0.00     0.168 HD
HETATM   10  C6  UNL     1      10.825  -9.353 -12.262  1.00  0.00     0.153 A 
HETATM   11  N7  UNL     1      11.254  -8.189 -12.594  1.00  0.00    -0.269 N 
ATOM     12  H7  UNL     1      12.173  -8.116 -13.028  1.00  0.00     0.190 HD
HETATM   13  C7  UNL     1      11.600 -10.477 -12.492  1.00  0.00     0.126 A 
HETATM   14  N10 UNL     1      12.835 -10.676 -13.041  1.00  0.00    -0.325 N 
ENDROOT
BRANCH  14  15
HETATM   15  C8  UNL     1      13.709  -9.661 -13.552  1.00  0.00     0.138 C 
BRANCH  15  16
HETATM   16  C9  UNL     1      13.486  -9.355 -15.017  1.00  0.00     0.099 C 
BRANCH  16  17
HETATM   17  C10 UNL     1      13.596  -7.917 -15.305  1.00  0.00     0.114 A 
HETATM   18  N11 UNL     1      14.522  -7.013 -14.887  1.00  0.00    -0.272 N 
HETATM   19  N12 UNL     1      14.222  -5.830 -15.397  1.00  0.00    -0.227 N 
ATOM     20  H11 UNL     1      15.317  -7.214 -14.281  1.00  0.00     0.190 HD
HETATM   21  N13 UNL     1      13.141  -5.941 -16.125  1.00  0.00    -0.227 N 
ATOM     22  H12 UNL     1      14.748  -4.970 -15.247  1.00  0.00     0.210 HD
HETATM   23  N14 UNL     1      12.750  -7.213 -16.077  1.00  0.00    -0.272 N 
ATOM     24  H13 UNL     1      12.681  -5.189 -16.637  1.00  0.00     0.210 HD
ATOM     25  H14 UNL     1      11.933  -7.595 -16.554  1.00  0.00     0.190 HD
ENDBRANCH  16  17
ENDBRANCH  15  16
ENDBRANCH  14  15
BRANCH   1  26
HETATM   26  C2  UNL     1      14.202 -12.766 -13.443  1.00  0.00     0.146 A 
HETATM   27  C1  UNL     1      14.358 -13.468 -14.615  1.00  0.00     0.154 A 
HETATM   28  N1  UNL     1      13.557 -13.634 -15.599  1.00  0.00    -0.382 N 
HETATM   29  N2  UNL     1      15.612 -14.030 -14.598  1.00  0.00    -0.224 N 
ATOM     30  H12 UNL     1      13.674 -14.155 -16.468  1.00  0.00     0.157 HD
ATOM     31  H11 UNL     1      12.627 -13.216 -15.612  1.00  0.00     0.157 HD
HETATM   32  O1  UNL     1      16.164 -13.679 -13.478  1.00  0.00    -0.155 OA
ATOM     33  H2  UNL     1      16.027 -14.611 -15.325  1.00  0.00     0.198 HD
HETATM   34  N3  UNL     1      15.348 -12.935 -12.789  1.00  0.00    -0.234 N 
ATOM     35  H3  UNL     1      15.558 -12.537 -11.873  1.00  0.00     0.197 HD
ENDBRANCH   1  26
BRANCH  11  36
HETATM   36  N8  UNL     1      10.528  -7.027 -12.391  1.00  0.00    -0.248 N 
ATOM     37  H8  UNL     1       9.733  -7.054 -11.752  1.00  0.00     0.207 HD
BRANCH  36  38
HETATM   38  N9  UNL     1      10.836  -5.818 -13.023  1.00  0.00    -0.331 N 
ATOM     39  H92 UNL     1      10.740  -5.779 -14.038  1.00  0.00     0.178 HD
ATOM     40  H91 UNL     1      11.147  -4.991 -12.514  1.00  0.00     0.178 HD
ENDBRANCH  36  38
ENDBRANCH  11  36
TORSDOF 6
ENDMDL
MODEL 2
REMARK VINA RESULT: -7.987854399      2.549      5.142
REMARK  6 active torsions:
REMARK  status: ('A' for Active; 'I' for Inactive)
REMARK    1  A    between atoms: C2_10  and  C3_11 
REMARK    2  A    between atoms: N7_21  and  N8_23 
REMARK    3  A    between atoms: N8_23  and  N9_25 
REMARK    4  A    between atoms: N10_29  and  C8_30 
REMARK    5  A    between atoms: C8_30  and  C9_31 
REMARK    6  A    between atoms: C9_31  and  C10_32 
ROOT
HETATM    1  C3  UNL     1      11.536  -7.688 -12.147  1.00  0.00     0.143 A 
HETATM    2  N4  UNL     1      10.351  -7.850 -11.509  1.00  0.00    -0.324 N 
ATOM      3  H4  UNL     1       9.764  -7.092 -11.162  1.00  0.00     0.169 HD
HETATM    4  C4  UNL     1      10.070  -9.135 -11.405  1.00  0.00     0.139 A 
HETATM    5  N5  UNL     1       9.008  -9.796 -10.852  1.00  0.00    -0.337 N 
ATOM      6  H5  UNL     1       8.249  -9.271 -10.418  1.00  0.00     0.168 HD
HETATM    7  C5  UNL     1       8.968 -11.135 -10.882  1.00  0.00     0.183 A 
HETATM    8  N6  UNL     1       9.980 -11.800 -11.458  1.00  0.00    -0.336 N 
ATOM      9  H6  UNL     1       9.941 -12.819 -11.476  1.00  0.00     0.168 HD
HETATM   10  C6  UNL     1      11.054 -11.186 -12.021  1.00  0.00     0.153 A 
HETATM   11  N7  UNL     1      11.997 -11.873 -12.559  1.00  0.00    -0.269 N 
ATOM     12  H7  UNL     1      12.786 -11.375 -12.970  1.00  0.00     0.190 HD
HETATM   13  C7  UNL     1      11.117  -9.803 -12.002  1.00  0.00     0.126 A 
HETATM   14  N10 UNL     1      12.028  -8.894 -12.463  1.00  0.00    -0.325 N 
ENDROOT
BRANCH  14  15
HETATM   15  C8  UNL     1      13.250  -9.191 -13.150  1.00  0.00     0.138 C 
BRANCH  15  16
HETATM   16  C9  UNL     1      13.121  -9.152 -14.657  1.00  0.00     0.099 C 
BRANCH  16  17
HETATM   17  C10 UNL     1      13.396  -7.815 -15.202  1.00  0.00     0.114 A 
HETATM   18  N11 UNL     1      14.475  -7.007 -15.024  1.00  0.00    -0.272 N 
HETATM   19  N12 UNL     1      14.290  -5.892 -15.711  1.00  0.00    -0.227 N 
ATOM     20  H11 UNL     1      15.293  -7.225 -14.455  1.00  0.00     0.190 HD
HETATM   21  N13 UNL     1      13.135  -5.955 -16.322  1.00  0.00    -0.227 N 
ATOM     22  H12 UNL     1      14.942  -5.109 -15.757  1.00  0.00     0.210 HD
HETATM   23  N14 UNL     1      12.581  -7.126 -16.019  1.00  0.00    -0.272 N 
ATOM     24  H13 UNL     1      12.732  -5.235 -16.922  1.00  0.00     0.210 HD
ATOM     25  H14 UNL     1      11.674  -7.452 -16.356  1.00  0.00     0.190 HD
ENDBRANCH  16  17
ENDBRANCH  15  16
ENDBRANCH  14  15
BRANCH   1  26
HETATM   26  C2  UNL     1      12.092  -6.366 -12.393  1.00  0.00     0.146 A 
HETATM   27  C1  UNL     1      11.564  -5.338 -13.138  1.00  0.00     0.154 A 
HETATM   28  N1  UNL     1      10.472  -5.267 -13.801  1.00  0.00    -0.382 N 
HETATM   29  N2  UNL     1      12.446  -4.287 -13.079  1.00  0.00    -0.224 N 
ATOM     30  H12 UNL     1      10.080  -4.504 -14.354  1.00  0.00     0.157 HD
ATOM     31  H11 UNL     1       9.817  -6.048 -13.846  1.00  0.00     0.157 HD
HETATM   32  O1  UNL     1      13.439  -4.673 -12.340  1.00  0.00    -0.155 OA
ATOM     33  H2  UNL     1      12.340  -3.378 -13.529  1.00  0.00     0.198 HD
HETATM   34  N3  UNL     1      13.245  -5.893 -11.929  1.00  0.00    -0.234 N 
ATOM     35  H3  UNL     1      13.888  -6.414 -11.332  1.00  0.00     0.197 HD
ENDBRANCH   1  26
BRANCH  11  36
HETATM   36  N8  UNL     1      11.992 -13.256 -12.609  1.00  0.00    -0.248 N 
ATOM     37  H8  UNL     1      11.132 -13.750 -12.371  1.00  0.00     0.207 HD
BRANCH  36  38
HETATM   38  N9  UNL     1      13.115 -14.007 -12.972  1.00  0.00    -0.331 N 
ATOM     39  H92 UNL     1      13.045 -14.586 -13.810  1.00  0.00     0.178 HD
ATOM     40  H91 UNL     1      13.985 -13.996 -12.440  1.00  0.00     0.178 HD
ENDBRANCH  36  38
ENDBRANCH  11  36
TORSDOF 6
ENDMDL
MODEL 3
REMARK VINA RESULT: -7.943066926      2.340      5.060
REMARK  6 active torsions:
REMARK  status: ('A' for Active; 'I' for Inactive)
REMARK    1  A    between atoms: C2_10  and  C3_11 
REMARK    2  A    between atoms: N7_21  and  N8_23 
REMARK    3  A    between atoms: N8_23  and  N9_25 
REMARK    4  A    between atoms: N10_29  and  C8_30 
REMARK    5  A    between atoms: C8_30  and  C9_31 
REMARK    6  A    between atoms: C9_31  and  C10_32 
ROOT
HETATM    1  C3  UNL     1      12.797  -8.851 -14.185  1.00  0.00     0.143 A 
HETATM    2  N4  UNL     1      13.510  -9.938 -14.569  1.00  0.00    -0.324 N 
ATOM      3  H4  UNL     1      14.271  -9.930 -15.247  1.00  0.00     0.169 HD
HETATM    4  C4  UNL     1      13.072 -11.008 -13.934  1.00  0.00     0.139 A 
HETATM    5  N5  UNL     1      13.460 -12.319 -13.978  1.00  0.00    -0.337 N 
ATOM      6  H5  UNL     1      14.222 -12.607 -14.591  1.00  0.00     0.168 HD
HETATM    7  C5  UNL     1      12.835 -13.225 -13.213  1.00  0.00     0.183 A 
HETATM    8  N6  UNL     1      11.835 -12.819 -12.416  1.00  0.00    -0.336 N 
ATOM      9  H6  UNL     1      11.365 -13.516 -11.838  1.00  0.00     0.168 HD
HETATM   10  C6  UNL     1      11.416 -11.528 -12.339  1.00  0.00     0.153 A 
HETATM   11  N7  UNL     1      10.452 -11.195 -11.558  1.00  0.00    -0.269 N 
ATOM     12  H7  UNL     1      10.167 -10.217 -11.530  1.00  0.00     0.190 HD
HETATM   13  C7  UNL     1      12.047 -10.575 -13.119  1.00  0.00     0.126 A 
HETATM   14  N10 UNL     1      11.882  -9.228 -13.282  1.00  0.00    -0.325 N 
ENDROOT
BRANCH  14  15
HETATM   15  C8  UNL     1      10.924  -8.404 -12.607  1.00  0.00     0.138 C 
BRANCH  15  16
HETATM   16  C9  UNL     1      11.482  -7.702 -11.388  1.00  0.00     0.099 C 
BRANCH  16  17
HETATM   17  C10 UNL     1      11.975  -6.353 -11.703  1.00  0.00     0.114 A 
HETATM   18  N11 UNL     1      13.201  -5.804 -11.497  1.00  0.00    -0.272 N 
HETATM   19  N12 UNL     1      13.189  -4.557 -11.941  1.00  0.00    -0.227 N 
ATOM     20  H11 UNL     1      13.999  -6.275 -11.072  1.00  0.00     0.190 HD
HETATM   21  N13 UNL     1      12.003  -4.288 -12.423  1.00  0.00    -0.227 N 
ATOM     22  H12 UNL     1      13.977  -3.911 -11.912  1.00  0.00     0.210 HD
HETATM   23  N14 UNL     1      11.253  -5.379 -12.284  1.00  0.00    -0.272 N 
ATOM     24  H13 UNL     1      11.707  -3.402 -12.831  1.00  0.00     0.210 HD
ATOM     25  H14 UNL     1      10.278  -5.463 -12.574  1.00  0.00     0.190 HD
ENDBRANCH  16  17
ENDBRANCH  15  16
ENDBRANCH  14  15
BRANCH   1  26
HETATM   26  C2  UNL     1      13.067  -7.532 -14.737  1.00  0.00     0.146 A 
HETATM   27  C1  UNL     1      12.215  -6.697 -15.420  1.00  0.00     0.154 A 
HETATM   28  N1  UNL     1      10.987  -6.848 -15.749  1.00  0.00    -0.382 N 
HETATM   29  N2  UNL     1      12.916  -5.560 -15.741  1.00  0.00    -0.224 N 
ATOM     30  H12 UNL     1      10.355  -6.229 -16.256  1.00  0.00     0.157 HD
ATOM     31  H11 UNL     1      10.466  -7.693 -15.511  1.00  0.00     0.157 HD
HETATM   32  O1  UNL     1      14.116  -5.716 -15.273  1.00  0.00    -0.155 OA
ATOM     33  H2  UNL     1      12.562  -4.750 -16.249  1.00  0.00     0.198 HD
HETATM   34  N3  UNL     1      14.219  -6.870 -14.680  1.00  0.00    -0.234 N 
ATOM     35  H3  UNL     1      15.068  -7.219 -14.233  1.00  0.00     0.197 HD
ENDBRANCH   1  26
BRANCH  11  36
HETATM   36  N8  UNL     1       9.781 -12.101 -10.754  1.00  0.00    -0.248 N 
ATOM     37  H8  UNL     1       8.969 -12.585 -11.136  1.00  0.00     0.207 HD
BRANCH  36  38
HETATM   38  N9  UNL     1      10.170 -12.382  -9.440  1.00  0.00    -0.331 N 
ATOM     39  H92 UNL     1       9.434 -12.597  -8.766  1.00  0.00     0.178 HD
ATOM     40  H91 UNL     1      11.144 -12.380  -9.137  1.00  0.00     0.178 HD
ENDBRANCH  36  38
ENDBRANCH  11  36
TORSDOF 6
ENDMDL
MODEL 4
REMARK VINA RESULT: -7.869191942      1.968      5.419
REMARK  6 active torsions:
REMARK  status: ('A' for Active; 'I' for Inactive)
REMARK    1  A    between atoms: C2_10  and  C3_11 
REMARK    2  A    between atoms: N7_21  and  N8_23 
REMARK    3  A    between atoms: N8_23  and  N9_25 
REMARK    4  A    between atoms: N10_29  and  C8_30 
REMARK    5  A    between atoms: C8_30  and  C9_31 
REMARK    6  A    between atoms: C9_31  and  C10_32 
ROOT
HETATM    1  C3  UNL     1      12.746  -9.617 -13.614  1.00  0.00     0.143 A 
HETATM    2  N4  UNL     1      13.821  -9.149 -14.294  1.00  0.00    -0.324 N 
ATOM      3  H4  UNL     1      14.701  -9.649 -14.413  1.00  0.00     0.169 HD
HETATM    4  C4  UNL     1      13.558  -7.951 -14.779  1.00  0.00     0.139 A 
HETATM    5  N5  UNL     1      14.308  -7.082 -15.522  1.00  0.00    -0.337 N 
ATOM      6  H5  UNL     1      15.259  -7.329 -15.793  1.00  0.00     0.168 HD
HETATM    7  C5  UNL     1      13.789  -5.902 -15.892  1.00  0.00     0.183 A 
HETATM    8  N6  UNL     1      12.536  -5.602 -15.521  1.00  0.00    -0.336 N 
ATOM      9  H6  UNL     1      12.150  -4.702 -15.807  1.00  0.00     0.168 HD
HETATM   10  C6  UNL     1      11.754  -6.434 -14.784  1.00  0.00     0.153 A 
HETATM   11  N7  UNL     1      10.560  -6.095 -14.456  1.00  0.00    -0.269 N 
ATOM     12  H7  UNL     1      10.005  -6.746 -13.902  1.00  0.00     0.190 HD
HETATM   13  C7  UNL     1      12.268  -7.658 -14.391  1.00  0.00     0.126 A 
HETATM   14  N10 UNL     1      11.768  -8.702 -13.665  1.00  0.00    -0.325 N 
ENDROOT
BRANCH  14  15
HETATM   15  C8  UNL     1      10.458  -8.785 -13.090  1.00  0.00     0.138 C 
BRANCH  15  16
HETATM   16  C9  UNL     1      10.386  -8.259 -11.673  1.00  0.00     0.099 C 
BRANCH  16  17
HETATM   17  C10 UNL     1       9.357  -8.946 -10.879  1.00  0.00     0.114 A 
HETATM   18  N11 UNL     1       8.533  -8.459  -9.913  1.00  0.00    -0.272 N 
HETATM   19  N12 UNL     1       7.766  -9.443  -9.472  1.00  0.00    -0.227 N 
ATOM     20  H11 UNL     1       8.509  -7.494  -9.583  1.00  0.00     0.190 HD
HETATM   21  N13 UNL     1       8.066 -10.540 -10.118  1.00  0.00    -0.227 N 
ATOM     22  H12 UNL     1       7.055  -9.360  -8.746  1.00  0.00     0.210 HD
HETATM   23  N14 UNL     1       9.037 -10.248 -10.982  1.00  0.00    -0.272 N 
ATOM     24  H13 UNL     1       7.635 -11.454  -9.985  1.00  0.00     0.210 HD
ATOM     25  H14 UNL     1       9.471 -10.911 -11.624  1.00  0.00     0.190 HD
ENDBRANCH  16  17
ENDBRANCH  15  16
ENDBRANCH  14  15
BRANCH   1  26
HETATM   26  C2  UNL     1      12.763 -10.921 -12.968  1.00  0.00     0.146 A 
HETATM   27  C1  UNL     1      12.881 -11.213 -11.630  1.00  0.00     0.154 A 
HETATM   28  N1  UNL     1      13.005 -10.440 -10.617  1.00  0.00    -0.382 N 
HETATM   29  N2  UNL     1      12.847 -12.580 -11.498  1.00  0.00    -0.224 N 
ATOM     30  H12 UNL     1      13.093 -10.657  -9.624  1.00  0.00     0.157 HD
ATOM     31  H11 UNL     1      13.031  -9.425 -10.714  1.00  0.00     0.157 HD
HETATM   32  O1  UNL     1      12.716 -13.067 -12.693  1.00  0.00    -0.155 OA
ATOM     33  H2  UNL     1      12.912 -13.109 -10.629  1.00  0.00     0.198 HD
HETATM   34  N3  UNL     1      12.665 -12.104 -13.567  1.00  0.00    -0.234 N 
ATOM     35  H3  UNL     1      12.563 -12.238 -14.574  1.00  0.00     0.197 HD
ENDBRANCH   1  26
BRANCH  11  36
HETATM   36  N8  UNL     1       9.989  -4.886 -14.819  1.00  0.00    -0.248 N 
ATOM     37  H8  UNL     1      10.177  -4.065 -14.242  1.00  0.00     0.207 HD
BRANCH  36  38
HETATM   38  N9  UNL     1       9.166  -4.741 -15.940  1.00  0.00    -0.331 N 
ATOM     39  H92 UNL     1       9.593  -4.869 -16.858  1.00  0.00     0.178 HD
ATOM     40  H91 UNL     1       8.173  -4.516 -15.874  1.00  0.00     0.178 HD
ENDBRANCH  36  38
ENDBRANCH  11  36
TORSDOF 6
ENDMDL
MODEL 5
REMARK VINA RESULT: -7.819480316      0.765      1.233
REMARK  6 active torsions:
REMARK  status: ('A' for Active; 'I' for Inactive)
REMARK    1  A    between atoms: C2_10  and  C3_11 
REMARK    2  A    between atoms: N7_21  and  N8_23 
REMARK    3  A    between atoms: N8_23  and  N9_25 
REMARK    4  A    between atoms: N10_29  and  C8_30 
REMARK    5  A    between atoms: C8_30  and  C9_31 
REMARK    6  A    between atoms: C9_31  and  C10_32 
ROOT
HETATM    1  C3  UNL     1      12.554 -11.778 -13.004  1.00  0.00     0.143 A 
HETATM    2  N4  UNL     1      11.453 -12.244 -12.365  1.00  0.00    -0.324 N 
ATOM      3  H4  UNL     1      11.223 -13.230 -12.239  1.00  0.00     0.169 HD
HETATM    4  C4  UNL     1      10.725 -11.234 -11.929  1.00  0.00     0.139 A 
HETATM    5  N5  UNL     1       9.546 -11.189 -11.239  1.00  0.00    -0.337 N 
ATOM      6  H5  UNL     1       9.075 -12.054 -10.974  1.00  0.00     0.168 HD
HETATM    7  C5  UNL     1       9.009 -10.005 -10.913  1.00  0.00     0.183 A 
HETATM    8  N6  UNL     1       9.649  -8.883 -11.275  1.00  0.00    -0.336 N 
ATOM      9  H6  UNL     1       9.233  -7.987 -11.023  1.00  0.00     0.168 HD
HETATM   10  C6  UNL     1      10.823  -8.880 -11.961  1.00  0.00     0.153 A 
HETATM   11  N7  UNL     1      11.392  -7.774 -12.283  1.00  0.00    -0.269 N 
ATOM     12  H7  UNL     1      12.271  -7.814 -12.797  1.00  0.00     0.190 HD
HETATM   13  C7  UNL     1      11.396 -10.091 -12.308  1.00  0.00     0.126 A 
HETATM   14  N10 UNL     1      12.536 -10.438 -12.978  1.00  0.00    -0.325 N 
ENDROOT
BRANCH  14  15
HETATM   15  C8  UNL     1      13.505  -9.536 -13.525  1.00  0.00     0.138 C 
BRANCH  15  16
HETATM   16  C9  UNL     1      13.292  -9.239 -14.993  1.00  0.00     0.099 C 
BRANCH  16  17
HETATM   17  C10 UNL     1      13.507  -7.819 -15.308  1.00  0.00     0.114 A 
HETATM   18  N11 UNL     1      14.489  -6.974 -14.896  1.00  0.00    -0.272 N 
HETATM   19  N12 UNL     1      14.280  -5.783 -15.433  1.00  0.00    -0.227 N 
ATOM     20  H11 UNL     1      15.261  -7.219 -14.276  1.00  0.00     0.190 HD
HETATM   21  N13 UNL     1      13.202  -5.833 -16.172  1.00  0.00    -0.227 N 
ATOM     22  H12 UNL     1      14.864  -4.960 -15.293  1.00  0.00     0.210 HD
HETATM   23  N14 UNL     1      12.722  -7.072 -16.104  1.00  0.00    -0.272 N 
ATOM     24  H13 UNL     1      12.802  -5.060 -16.704  1.00  0.00     0.210 HD
ATOM     25  H14 UNL     1      11.885  -7.405 -16.583  1.00  0.00     0.190 HD
ENDBRANCH  16  17
ENDBRANCH  15  16
ENDBRANCH  14  15
BRANCH   1  26
HETATM   26  C2  UNL     1      13.532 -12.681 -13.592  1.00  0.00     0.146 A 
HETATM   27  C1  UNL     1      14.778 -13.020 -13.120  1.00  0.00     0.154 A 
HETATM   28  N1  UNL     1      15.400 -12.643 -12.067  1.00  0.00    -0.382 N 
HETATM   29  N2  UNL     1      15.333 -13.905 -14.012  1.00  0.00    -0.224 N 
ATOM     30  H12 UNL     1      16.325 -12.895 -11.717  1.00  0.00     0.157 HD
ATOM     31  H11 UNL     1      14.988 -11.986 -11.404  1.00  0.00     0.157 HD
HETATM   32  O1  UNL     1      14.462 -14.078 -14.958  1.00  0.00    -0.155 OA
ATOM     33  H2  UNL     1      16.252 -14.341 -13.944  1.00  0.00     0.198 HD
HETATM   34  N3  UNL     1      13.398 -13.365 -14.724  1.00  0.00    -0.234 N 
ATOM     35  H3  UNL     1      12.575 -13.336 -15.326  1.00  0.00     0.197 HD
ENDBRANCH   1  26
BRANCH  11  36
HETATM   36  N8  UNL     1      10.870  -6.532 -11.965  1.00  0.00    -0.248 N 
ATOM     37  H8  UNL     1      10.491  -6.387 -11.029  1.00  0.00     0.207 HD
BRANCH  36  38
HETATM   38  N9  UNL     1      10.838  -5.467 -12.871  1.00  0.00    -0.331 N 
ATOM     39  H92 UNL     1      10.181  -5.528 -13.649  1.00  0.00     0.178 HD
ATOM     40  H91 UNL     1      11.438  -4.647 -12.783  1.00  0.00     0.178 HD
ENDBRANCH  36  38
ENDBRANCH  11  36
TORSDOF 6
ENDMDL
