MODEL 1
REMARK VINA RESULT: -6.762659959      0.000      0.000
REMARK  4 active torsions:
REMARK  status: ('A' for Active; 'I' for Inactive)
REMARK    1  A    between atoms: N1_2  and  C2_4 
REMARK    2  A    between atoms: C2_4  and  N2_6 
REMARK    3  A    between atoms: N2_6  and  C3_8 
REMARK    4  A    between atoms: C10_15  and  C11_16 
ROOT
HETATM    1  C3  UNL     1      31.689 -32.002   1.409  1.00  0.00     0.084 C 
HETATM    2  C4  UNL     1      32.026 -30.503   1.257  1.00  0.00     0.028 C 
HETATM    3  C5  UNL     1      31.751 -30.052  -0.144  1.00  0.00     0.043 C 
HETATM    4  C6  UNL     1      32.039 -31.189  -1.088  1.00  0.00     0.094 C 
HETATM    5  C7  UNL     1      31.015 -32.288  -0.959  1.00  0.00     0.043 C 
HETATM    6  C8  UNL     1      30.518 -32.269   0.463  1.00  0.00     0.028 C 
HETATM    7  C9  UNL     1      32.102 -30.615  -2.489  1.00  0.00     0.100 C 
HETATM    8  C10 UNL     1      33.514 -30.107  -2.495  1.00  0.00     0.046 C 
HETATM    9  N4  UNL     1      34.160 -30.749  -1.584  1.00  0.00    -0.269 N 
ATOM     10  H4  UNL     1      35.147 -30.600  -1.374  1.00  0.00     0.194 HD
HETATM   11  O1  UNL     1      33.365 -31.658  -0.930  1.00  0.00    -0.269 OA
ENDROOT
BRANCH   8  12
HETATM   12  C11 UNL     1      34.093 -29.089  -3.345  1.00  0.00     0.007 A 
HETATM   13  C12 UNL     1      35.159 -29.349  -4.197  1.00  0.00     0.101 A 
HETATM   14  N3  UNL     1      35.683 -28.376  -4.983  1.00  0.00    -0.372 N 
HETATM   15  C13 UNL     1      35.185 -27.131  -4.961  1.00  0.00     0.130 A 
ATOM     16  H3  UNL     1      36.467 -28.594  -5.598  1.00  0.00     0.164 HD
HETATM   17  C14 UNL     1      34.125 -26.809  -4.137  1.00  0.00     0.132 A 
HETATM   18  F1  UNL     1      33.598 -25.570  -4.088  1.00  0.00    -0.205 F 
HETATM   19  C15 UNL     1      33.610 -27.799  -3.353  1.00  0.00     0.058 A 
ENDBRANCH   8  12
BRANCH   1  20
HETATM   20  N2  UNL     1      31.283 -32.209   2.768  1.00  0.00    -0.363 N 
ATOM     21  H2  UNL     1      31.445 -31.441   3.420  1.00  0.00     0.162 HD
BRANCH  20  22
HETATM   22  C2  UNL     1      30.681 -33.376   3.290  1.00  0.00     0.167 C 
HETATM   23  S1  UNL     1      29.281 -33.259   4.110  1.00  0.00    -0.041 SA
BRANCH  22  24
HETATM   24  N1  UNL     1      31.243 -34.666   3.118  1.00  0.00    -0.372 N 
HETATM   25  C1  UNL     1      30.659 -35.650   2.232  1.00  0.00     0.148 C 
ATOM     26  H1  UNL     1      32.089 -34.908   3.634  1.00  0.00     0.161 HD
ENDBRANCH  22  24
ENDBRANCH  20  22
ENDBRANCH   1  20
TORSDOF 4
ENDMDL
MODEL 2
REMARK VINA RESULT: -6.710584208      4.018      8.353
REMARK  4 active torsions:
REMARK  status: ('A' for Active; 'I' for Inactive)
REMARK    1  A    between atoms: N1_2  and  C2_4 
REMARK    2  A    between atoms: C2_4  and  N2_6 
REMARK    3  A    between atoms: N2_6  and  C3_8 
REMARK    4  A    between atoms: C10_15  and  C11_16 
ROOT
HETATM    1  C3  UNL     1      33.312 -29.805  -1.797  1.00  0.00     0.084 C 
HETATM    2  C4  UNL     1      33.555 -31.267  -1.366  1.00  0.00     0.028 C 
HETATM    3  C5  UNL     1      32.251 -31.989  -1.230  1.00  0.00     0.043 C 
HETATM    4  C6  UNL     1      31.205 -31.020  -0.746  1.00  0.00     0.094 C 
HETATM    5  C7  UNL     1      30.843 -30.020  -1.814  1.00  0.00     0.043 C 
HETATM    6  C8  UNL     1      32.063 -29.827  -2.677  1.00  0.00     0.028 C 
HETATM    7  C9  UNL     1      30.013 -31.830  -0.281  1.00  0.00     0.100 C 
HETATM    8  C10 UNL     1      30.472 -32.194   1.101  1.00  0.00     0.046 C 
HETATM    9  N4  UNL     1      31.371 -31.338   1.447  1.00  0.00    -0.269 N 
ATOM     10  H4  UNL     1      31.854 -31.351   2.345  1.00  0.00     0.194 HD
HETATM   11  O1  UNL     1      31.602 -30.407   0.465  1.00  0.00    -0.269 OA
ENDROOT
BRANCH   8  12
HETATM   12  C11 UNL     1      30.022 -33.289   1.932  1.00  0.00     0.007 A 
HETATM   13  C12 UNL     1      29.031 -33.136   2.893  1.00  0.00     0.101 A 
HETATM   14  N3  UNL     1      28.628 -34.179   3.660  1.00  0.00    -0.372 N 
HETATM   15  C13 UNL     1      29.176 -35.394   3.511  1.00  0.00     0.130 A 
ATOM     16  H3  UNL     1      27.899 -34.038   4.359  1.00  0.00     0.164 HD
HETATM   17  C14 UNL     1      30.165 -35.612   2.573  1.00  0.00     0.132 A 
HETATM   18  F1  UNL     1      30.739 -36.818   2.394  1.00  0.00    -0.205 F 
HETATM   19  C15 UNL     1      30.559 -34.552   1.810  1.00  0.00     0.058 A 
ENDBRANCH   8  12
BRANCH   1  20
HETATM   20  N2  UNL     1      34.450 -29.395  -2.564  1.00  0.00    -0.363 N 
ATOM     21  H2  UNL     1      35.345 -29.825  -2.329  1.00  0.00     0.162 HD
BRANCH  20  22
HETATM   22  C2  UNL     1      34.451 -28.450  -3.616  1.00  0.00     0.167 C 
HETATM   23  S1  UNL     1      34.500 -28.965  -5.157  1.00  0.00    -0.041 SA
BRANCH  22  24
HETATM   24  N1  UNL     1      34.397 -27.052  -3.383  1.00  0.00    -0.372 N 
HETATM   25  C1  UNL     1      34.058 -26.110  -4.428  1.00  0.00     0.148 C 
ATOM     26  H1  UNL     1      34.603 -26.699  -2.449  1.00  0.00     0.161 HD
ENDBRANCH  22  24
ENDBRANCH  20  22
ENDBRANCH   1  20
TORSDOF 4
ENDMDL
MODEL 3
REMARK VINA RESULT: -6.658272558      1.075      1.331
REMARK  4 active torsions:
REMARK  status: ('A' for Active; 'I' for Inactive)
REMARK    1  A    between atoms: N1_2  and  C2_4 
REMARK    2  A    between atoms: C2_4  and  N2_6 
REMARK    3  A    between atoms: N2_6  and  C3_8 
REMARK    4  A    between atoms: C10_15  and  C11_16 
ROOT
HETATM    1  C3  UNL     1      31.339 -31.849   1.347  1.00  0.00     0.084 C 
HETATM    2  C4  UNL     1      31.444 -30.341   1.035  1.00  0.00     0.028 C 
HETATM    3  C5  UNL     1      31.379 -30.114  -0.444  1.00  0.00     0.043 C 
HETATM    4  C6  UNL     1      32.034 -31.274  -1.144  1.00  0.00     0.094 C 
HETATM    5  C7  UNL     1      31.203 -32.528  -1.033  1.00  0.00     0.043 C 
HETATM    6  C8  UNL     1      30.440 -32.443   0.263  1.00  0.00     0.028 C 
HETATM    7  C9  UNL     1      32.274 -30.863  -2.583  1.00  0.00     0.100 C 
HETATM    8  C10 UNL     1      33.554 -30.097  -2.420  1.00  0.00     0.046 C 
HETATM    9  N4  UNL     1      34.106 -30.494  -1.327  1.00  0.00    -0.269 N 
ATOM     10  H4  UNL     1      34.993 -30.135  -0.973  1.00  0.00     0.194 HD
HETATM   11  O1  UNL     1      33.362 -31.458  -0.692  1.00  0.00    -0.269 OA
ENDROOT
BRANCH   8  12
HETATM   12  C11 UNL     1      34.110 -29.090  -3.298  1.00  0.00     0.007 A 
HETATM   13  C12 UNL     1      35.170 -29.354  -4.156  1.00  0.00     0.101 A 
HETATM   14  N3  UNL     1      35.673 -28.392  -4.969  1.00  0.00    -0.372 N 
HETATM   15  C13 UNL     1      35.157 -27.154  -4.969  1.00  0.00     0.130 A 
ATOM     16  H3  UNL     1      36.453 -28.613  -5.588  1.00  0.00     0.164 HD
HETATM   17  C14 UNL     1      34.102 -26.828  -4.141  1.00  0.00     0.132 A 
HETATM   18  F1  UNL     1      33.558 -25.595  -4.113  1.00  0.00    -0.205 F 
HETATM   19  C15 UNL     1      33.609 -27.807  -3.329  1.00  0.00     0.058 A 
ENDBRANCH   8  12
BRANCH   1  20
HETATM   20  N2  UNL     1      30.715 -31.974   2.630  1.00  0.00    -0.363 N 
ATOM     21  H2  UNL     1      30.813 -31.185   3.269  1.00  0.00     0.162 HD
BRANCH  20  22
HETATM   22  C2  UNL     1      29.977 -33.086   3.095  1.00  0.00     0.167 C 
HETATM   23  S1  UNL     1      30.756 -34.456   3.497  1.00  0.00    -0.041 SA
BRANCH  22  24
HETATM   24  N1  UNL     1      28.567 -33.057   3.240  1.00  0.00    -0.372 N 
HETATM   25  C1  UNL     1      27.780 -31.892   2.897  1.00  0.00     0.148 C 
ATOM     26  H1  UNL     1      28.091 -33.884   3.600  1.00  0.00     0.161 HD
ENDBRANCH  22  24
ENDBRANCH  20  22
ENDBRANCH   1  20
TORSDOF 4
ENDMDL
MODEL 4
REMARK VINA RESULT: -6.592078883      1.631      2.136
REMARK  4 active torsions:
REMARK  status: ('A' for Active; 'I' for Inactive)
REMARK    1  A    between atoms: N1_2  and  C2_4 
REMARK    2  A    between atoms: C2_4  and  N2_6 
REMARK    3  A    between atoms: N2_6  and  C3_8 
REMARK    4  A    between atoms: C10_15  and  C11_16 
ROOT
HETATM    1  C3  UNL     1      30.540 -32.548   0.192  1.00  0.00     0.084 C 
HETATM    2  C4  UNL     1      31.006 -32.729  -1.269  1.00  0.00     0.028 C 
HETATM    3  C5  UNL     1      32.403 -32.216  -1.432  1.00  0.00     0.043 C 
HETATM    4  C6  UNL     1      32.602 -31.041  -0.512  1.00  0.00     0.094 C 
HETATM    5  C7  UNL     1      32.646 -31.472   0.933  1.00  0.00     0.043 C 
HETATM    6  C8  UNL     1      31.791 -32.705   1.056  1.00  0.00     0.028 C 
HETATM    7  C9  UNL     1      33.869 -30.332  -0.945  1.00  0.00     0.100 C 
HETATM    8  C10 UNL     1      33.325 -29.499  -2.069  1.00  0.00     0.046 C 
HETATM    9  N4  UNL     1      32.056 -29.381  -1.884  1.00  0.00    -0.269 N 
ATOM     10  H4  UNL     1      31.436 -28.861  -2.505  1.00  0.00     0.194 HD
HETATM   11  O1  UNL     1      31.635 -30.037  -0.754  1.00  0.00    -0.269 OA
ENDROOT
BRANCH   8  12
HETATM   12  C11 UNL     1      34.048 -28.914  -3.178  1.00  0.00     0.007 A 
HETATM   13  C12 UNL     1      35.001 -29.620  -3.900  1.00  0.00     0.101 A 
HETATM   14  N3  UNL     1      35.664 -29.048  -4.935  1.00  0.00    -0.372 N 
HETATM   15  C13 UNL     1      35.417 -27.780  -5.293  1.00  0.00     0.130 A 
ATOM     16  H3  UNL     1      36.360 -29.589  -5.448  1.00  0.00     0.164 HD
HETATM   17  C14 UNL     1      34.481 -27.024  -4.616  1.00  0.00     0.132 A 
HETATM   18  F1  UNL     1      34.206 -25.747  -4.946  1.00  0.00    -0.205 F 
HETATM   19  C15 UNL     1      33.823 -27.615  -3.577  1.00  0.00     0.058 A 
ENDBRANCH   8  12
BRANCH   1  20
HETATM   20  N2  UNL     1      29.610 -33.601   0.473  1.00  0.00    -0.363 N 
ATOM     21  H2  UNL     1      29.158 -34.043  -0.328  1.00  0.00     0.162 HD
BRANCH  20  22
HETATM   22  C2  UNL     1      29.259 -34.085   1.754  1.00  0.00     0.167 C 
HETATM   23  S1  UNL     1      29.700 -35.587   2.193  1.00  0.00    -0.041 SA
BRANCH  22  24
HETATM   24  N1  UNL     1      28.540 -33.303   2.693  1.00  0.00    -0.372 N 
HETATM   25  C1  UNL     1      29.192 -32.628   3.795  1.00  0.00     0.148 C 
ATOM     26  H1  UNL     1      27.530 -33.212   2.588  1.00  0.00     0.161 HD
ENDBRANCH  22  24
ENDBRANCH  20  22
ENDBRANCH   1  20
TORSDOF 4
ENDMDL
MODEL 5
REMARK VINA RESULT: -6.531500591      1.225      1.331
REMARK  4 active torsions:
REMARK  status: ('A' for Active; 'I' for Inactive)
REMARK    1  A    between atoms: N1_2  and  C2_4 
REMARK    2  A    between atoms: C2_4  and  N2_6 
REMARK    3  A    between atoms: N2_6  and  C3_8 
REMARK    4  A    between atoms: C10_15  and  C11_16 
ROOT
HETATM    1  C3  UNL     1      32.002 -32.219   1.337  1.00  0.00     0.084 C 
HETATM    2  C4  UNL     1      32.647 -30.817   1.316  1.00  0.00     0.028 C 
HETATM    3  C5  UNL     1      32.212 -30.066   0.096  1.00  0.00     0.043 C 
HETATM    4  C6  UNL     1      32.027 -31.041  -1.036  1.00  0.00     0.094 C 
HETATM    5  C7  UNL     1      30.818 -31.917  -0.819  1.00  0.00     0.043 C 
HETATM    6  C8  UNL     1      30.636 -32.065   0.669  1.00  0.00     0.028 C 
HETATM    7  C9  UNL     1      31.940 -30.240  -2.319  1.00  0.00     0.100 C 
HETATM    8  C10 UNL     1      33.402 -30.033  -2.591  1.00  0.00     0.046 C 
HETATM    9  N4  UNL     1      34.047 -30.950  -1.957  1.00  0.00    -0.269 N 
ATOM     10  H4  UNL     1      35.062 -31.044  -1.968  1.00  0.00     0.194 HD
HETATM   11  O1  UNL     1      33.207 -31.787  -1.263  1.00  0.00    -0.269 OA
ENDROOT
BRANCH   8  12
HETATM   12  C11 UNL     1      34.023 -29.011  -3.406  1.00  0.00     0.007 A 
HETATM   13  C12 UNL     1      35.117 -29.272  -4.221  1.00  0.00     0.101 A 
HETATM   14  N3  UNL     1      35.680 -28.295  -4.974  1.00  0.00    -0.372 N 
HETATM   15  C13 UNL     1      35.194 -27.046  -4.956  1.00  0.00     0.130 A 
ATOM     16  H3  UNL     1      36.484 -28.514  -5.563  1.00  0.00     0.164 HD
HETATM   17  C14 UNL     1      34.108 -26.722  -4.167  1.00  0.00     0.132 A 
HETATM   18  F1  UNL     1      33.592 -25.478  -4.122  1.00  0.00    -0.205 F 
HETATM   19  C15 UNL     1      33.554 -27.716  -3.415  1.00  0.00     0.058 A 
ENDBRANCH   8  12
BRANCH   1  20
HETATM   20  N2  UNL     1      31.841 -32.591   2.711  1.00  0.00    -0.363 N 
ATOM     21  H2  UNL     1      31.502 -31.869   3.347  1.00  0.00     0.162 HD
BRANCH  20  22
HETATM   22  C2  UNL     1      32.107 -33.863   3.268  1.00  0.00     0.167 C 
HETATM   23  S1  UNL     1      31.073 -35.089   3.000  1.00  0.00    -0.041 SA
BRANCH  22  24
HETATM   24  N1  UNL     1      33.259 -34.125   4.052  1.00  0.00    -0.372 N 
HETATM   25  C1  UNL     1      34.575 -33.659   3.669  1.00  0.00     0.148 C 
ATOM     26  H1  UNL     1      33.157 -34.659   4.915  1.00  0.00     0.161 HD
ENDBRANCH  22  24
ENDBRANCH  20  22
ENDBRANCH   1  20
TORSDOF 4
ENDMDL
