MODEL 1
REMARK VINA RESULT: -6.385366512      0.000      0.000
REMARK  4 active torsions:
REMARK  status: ('A' for Active; 'I' for Inactive)
REMARK    1  A    between atoms: C2_2  and  C3_3 
REMARK    2  A    between atoms: C4_4  and  C5_5 
REMARK    3  A    between atoms: C7_8  and  C9_10 
REMARK       I    between atoms: N1_14  and  C12_15 
REMARK       I    between atoms: C12_15  and  N2_17 
REMARK    4  A    between atoms: N2_17  and  C13_19 
ROOT
HETATM    1  C5  UNL     1      28.916 -31.758   0.454  1.00  0.00     0.247 C 
HETATM    2  F1  UNL     1      28.080 -32.616  -0.237  1.00  0.00    -0.204 F 
HETATM    3  C6  UNL     1      29.230 -32.331   1.846  1.00  0.00     0.099 C 
HETATM    4  C7  UNL     1      30.278 -33.353   1.552  1.00  0.00     0.038 C 
HETATM    5  C8  UNL     1      31.513 -33.150   2.406  1.00  0.00     0.025 C 
HETATM    6  C11 UNL     1      30.696 -33.127   0.119  1.00  0.00     0.149 C 
HETATM    7  N1  UNL     1      30.224 -31.756  -0.146  1.00  0.00    -0.286 N 
HETATM    8  C12 UNL     1      30.945 -30.751  -0.837  1.00  0.00     0.326 C 
HETATM    9  O2  UNL     1      30.420 -29.626  -0.998  1.00  0.00    -0.247 OA
HETATM   10  N2  UNL     1      32.237 -30.995  -1.344  1.00  0.00    -0.306 N 
ATOM     11  H2  UNL     1      32.622 -31.926  -1.189  1.00  0.00     0.171 HD
ENDROOT
BRANCH   1  12
HETATM   12  C4  UNL     1      28.379 -30.421   0.552  1.00  0.00    -0.041 C 
HETATM   13  C3  UNL     1      27.914 -29.299   0.663  1.00  0.00    -0.102 C 
BRANCH  13  14
HETATM   14  C2  UNL     1      27.334 -27.961   0.800  1.00  0.00     0.089 C 
HETATM   15  C1  UNL     1      28.436 -26.960   0.722  1.00  0.00     0.018 C 
ENDBRANCH  13  14
ENDBRANCH   1  12
BRANCH   4  16
HETATM   16  C9  UNL     1      29.724 -34.718   1.760  1.00  0.00     0.133 C 
HETATM   17  C10 UNL     1      29.429 -35.286   3.102  1.00  0.00     0.091 C 
HETATM   18  O1  UNL     1      29.490 -35.427   0.799  1.00  0.00    -0.297 OA
ENDBRANCH   4  16
BRANCH  10  19
HETATM   19  C13 UNL     1      33.051 -30.081  -2.045  1.00  0.00     0.077 A 
HETATM   20  C14 UNL     1      32.698 -29.233  -3.059  1.00  0.00     0.141 A 
HETATM   21  N3  UNL     1      33.793 -28.540  -3.433  1.00  0.00    -0.305 N 
HETATM   22  C15 UNL     1      33.862 -27.522  -4.489  1.00  0.00     0.177 C 
HETATM   23  N4  UNL     1      34.803 -28.928  -2.690  1.00  0.00    -0.301 N 
HETATM   24  C16 UNL     1      34.417 -29.869  -1.819  1.00  0.00     0.050 A 
ATOM     25  H4  UNL     1      35.752 -28.563  -2.765  1.00  0.00     0.187 HD
HETATM   26  C17 UNL     1      35.258 -30.551  -0.820  1.00  0.00     0.072 C 
ENDBRANCH  10  19
TORSDOF 4
ENDMDL
MODEL 2
REMARK VINA RESULT: -6.354072115      3.216      5.865
REMARK  4 active torsions:
REMARK  status: ('A' for Active; 'I' for Inactive)
REMARK    1  A    between atoms: C2_2  and  C3_3 
REMARK    2  A    between atoms: C4_4  and  C5_5 
REMARK    3  A    between atoms: C7_8  and  C9_10 
REMARK       I    between atoms: N1_14  and  C12_15 
REMARK       I    between atoms: C12_15  and  N2_17 
REMARK    4  A    between atoms: N2_17  and  C13_19 
ROOT
HETATM    1  C5  UNL     1      30.903 -30.931  -0.254  1.00  0.00     0.247 C 
HETATM    2  F1  UNL     1      31.205 -30.187   0.872  1.00  0.00    -0.204 F 
HETATM    3  C6  UNL     1      31.373 -32.384  -0.071  1.00  0.00     0.099 C 
HETATM    4  C7  UNL     1      30.299 -32.971   0.785  1.00  0.00     0.038 C 
HETATM    5  C8  UNL     1      29.730 -34.237   0.178  1.00  0.00     0.025 C 
HETATM    6  C11 UNL     1      29.181 -31.957   0.811  1.00  0.00     0.149 C 
HETATM    7  N1  UNL     1      29.480 -31.111  -0.359  1.00  0.00    -0.286 N 
HETATM    8  C12 UNL     1      28.534 -30.634  -1.299  1.00  0.00     0.326 C 
HETATM    9  O2  UNL     1      28.925 -29.914  -2.247  1.00  0.00    -0.247 OA
HETATM   10  N2  UNL     1      27.166 -30.951  -1.186  1.00  0.00    -0.306 N 
ATOM     11  H2  UNL     1      26.895 -31.538  -0.397  1.00  0.00     0.171 HD
ENDROOT
BRANCH   1  12
HETATM   12  C4  UNL     1      31.452 -30.357  -1.461  1.00  0.00    -0.041 C 
HETATM   13  C3  UNL     1      31.929 -29.852  -2.463  1.00  0.00    -0.102 C 
BRANCH  13  14
HETATM   14  C2  UNL     1      32.493 -29.222  -3.659  1.00  0.00     0.089 C 
HETATM   15  C1  UNL     1      33.703 -28.449  -3.258  1.00  0.00     0.018 C 
ENDBRANCH  13  14
ENDBRANCH   1  12
BRANCH   4  16
HETATM   16  C9  UNL     1      30.832 -33.244   2.147  1.00  0.00     0.133 C 
HETATM   17  C10 UNL     1      32.267 -33.098   2.509  1.00  0.00     0.091 C 
HETATM   18  O1  UNL     1      30.076 -33.607   3.029  1.00  0.00    -0.297 OA
ENDBRANCH   4  16
BRANCH  10  19
HETATM   19  C13 UNL     1      26.132 -30.538  -2.053  1.00  0.00     0.077 A 
HETATM   20  C14 UNL     1      25.572 -31.227  -3.095  1.00  0.00     0.141 A 
HETATM   21  N3  UNL     1      24.617 -30.452  -3.649  1.00  0.00    -0.305 N 
HETATM   22  C15 UNL     1      23.767 -30.802  -4.794  1.00  0.00     0.177 C 
HETATM   23  N4  UNL     1      24.568 -29.318  -2.990  1.00  0.00    -0.301 N 
HETATM   24  C16 UNL     1      25.470 -29.306  -2.001  1.00  0.00     0.050 A 
ATOM     25  H4  UNL     1      23.931 -28.551  -3.203  1.00  0.00     0.187 HD
HETATM   26  C17 UNL     1      25.720 -28.214  -1.043  1.00  0.00     0.072 C 
ENDBRANCH  10  19
TORSDOF 4
ENDMDL
MODEL 3
REMARK VINA RESULT: -6.298650281      1.823      2.013
REMARK  4 active torsions:
REMARK  status: ('A' for Active; 'I' for Inactive)
REMARK    1  A    between atoms: C2_2  and  C3_3 
REMARK    2  A    between atoms: C4_4  and  C5_5 
REMARK    3  A    between atoms: C7_8  and  C9_10 
REMARK       I    between atoms: N1_14  and  C12_15 
REMARK       I    between atoms: C12_15  and  N2_17 
REMARK    4  A    between atoms: N2_17  and  C13_19 
ROOT
HETATM    1  C5  UNL     1      29.191 -32.707  -0.017  1.00  0.00     0.247 C 
HETATM    2  F1  UNL     1      29.126 -34.053  -0.324  1.00  0.00    -0.204 F 
HETATM    3  C6  UNL     1      28.953 -32.495   1.488  1.00  0.00     0.099 C 
HETATM    4  C7  UNL     1      30.278 -32.846   2.082  1.00  0.00     0.038 C 
HETATM    5  C8  UNL     1      30.798 -31.741   2.980  1.00  0.00     0.025 C 
HETATM    6  C11 UNL     1      31.241 -32.958   0.924  1.00  0.00     0.149 C 
HETATM    7  N1  UNL     1      30.542 -32.234  -0.153  1.00  0.00    -0.286 N 
HETATM    8  C12 UNL     1      31.138 -31.322  -1.058  1.00  0.00     0.326 C 
HETATM    9  O2  UNL     1      30.425 -30.779  -1.934  1.00  0.00    -0.247 OA
HETATM   10  N2  UNL     1      32.511 -31.016  -0.992  1.00  0.00    -0.306 N 
ATOM     11  H2  UNL     1      33.050 -31.483  -0.263  1.00  0.00     0.171 HD
ENDROOT
BRANCH   1  12
HETATM   12  C4  UNL     1      28.273 -31.914  -0.802  1.00  0.00    -0.041 C 
HETATM   13  C3  UNL     1      27.479 -31.267  -1.464  1.00  0.00    -0.102 C 
BRANCH  13  14
HETATM   14  C2  UNL     1      26.524 -30.510  -2.275  1.00  0.00     0.089 C 
HETATM   15  C1  UNL     1      26.503 -31.095  -3.647  1.00  0.00     0.018 C 
ENDBRANCH  13  14
ENDBRANCH   1  12
BRANCH   4  16
HETATM   16  C9  UNL     1      30.170 -34.121   2.840  1.00  0.00     0.133 C 
HETATM   17  C10 UNL     1      30.585 -35.439   2.289  1.00  0.00     0.091 C 
HETATM   18  O1  UNL     1      29.724 -34.114   3.973  1.00  0.00    -0.297 OA
ENDBRANCH   4  16
BRANCH  10  19
HETATM   19  C13 UNL     1      33.217 -30.128  -1.832  1.00  0.00     0.077 A 
HETATM   20  C14 UNL     1      32.719 -29.300  -2.801  1.00  0.00     0.141 A 
HETATM   21  N3  UNL     1      33.751 -28.630  -3.355  1.00  0.00    -0.305 N 
HETATM   22  C15 UNL     1      33.666 -27.637  -4.434  1.00  0.00     0.177 C 
HETATM   23  N4  UNL     1      34.859 -29.013  -2.766  1.00  0.00    -0.301 N 
HETATM   24  C16 UNL     1      34.603 -29.929  -1.824  1.00  0.00     0.050 A 
ATOM     25  H4  UNL     1      35.789 -28.662  -2.995  1.00  0.00     0.187 HD
HETATM   26  C17 UNL     1      35.581 -30.599  -0.948  1.00  0.00     0.072 C 
ENDBRANCH  10  19
TORSDOF 4
ENDMDL
MODEL 4
REMARK VINA RESULT: -6.126112358      2.142      2.343
REMARK  4 active torsions:
REMARK  status: ('A' for Active; 'I' for Inactive)
REMARK    1  A    between atoms: C2_2  and  C3_3 
REMARK    2  A    between atoms: C4_4  and  C5_5 
REMARK    3  A    between atoms: C7_8  and  C9_10 
REMARK       I    between atoms: N1_14  and  C12_15 
REMARK       I    between atoms: C12_15  and  N2_17 
REMARK    4  A    between atoms: N2_17  and  C13_19 
ROOT
HETATM    1  C5  UNL     1      29.531 -33.436   0.974  1.00  0.00     0.247 C 
HETATM    2  F1  UNL     1      29.465 -34.792   0.709  1.00  0.00    -0.204 F 
HETATM    3  C6  UNL     1      29.222 -33.171   2.457  1.00  0.00     0.099 C 
HETATM    4  C7  UNL     1      30.512 -33.514   3.127  1.00  0.00     0.038 C 
HETATM    5  C8  UNL     1      31.000 -32.385   4.012  1.00  0.00     0.025 C 
HETATM    6  C11 UNL     1      31.529 -33.677   2.023  1.00  0.00     0.149 C 
HETATM    7  N1  UNL     1      30.893 -32.983   0.889  1.00  0.00    -0.286 N 
HETATM    8  C12 UNL     1      31.543 -32.108  -0.016  1.00  0.00     0.326 C 
HETATM    9  O2  UNL     1      30.881 -31.589  -0.944  1.00  0.00    -0.247 OA
HETATM   10  N2  UNL     1      32.915 -31.814   0.108  1.00  0.00    -0.306 N 
ATOM     11  H2  UNL     1      33.412 -32.262   0.878  1.00  0.00     0.171 HD
ENDROOT
BRANCH   1  12
HETATM   12  C4  UNL     1      28.663 -32.661   0.117  1.00  0.00    -0.041 C 
HETATM   13  C3  UNL     1      27.906 -32.018  -0.591  1.00  0.00    -0.102 C 
BRANCH  13  14
HETATM   14  C2  UNL     1      26.985 -31.266  -1.446  1.00  0.00     0.089 C 
HETATM   15  C1  UNL     1      27.788 -30.493  -2.436  1.00  0.00     0.018 C 
ENDBRANCH  13  14
ENDBRANCH   1  12
BRANCH   4  16
HETATM   16  C9  UNL     1      30.351 -34.761   3.922  1.00  0.00     0.133 C 
HETATM   17  C10 UNL     1      29.062 -35.493   4.045  1.00  0.00     0.091 C 
HETATM   18  O1  UNL     1      31.308 -35.230   4.511  1.00  0.00    -0.297 OA
ENDBRANCH   4  16
BRANCH  10  19
HETATM   19  C13 UNL     1      33.672 -30.964  -0.726  1.00  0.00     0.077 A 
HETATM   20  C14 UNL     1      33.328 -30.441  -1.942  1.00  0.00     0.141 A 
HETATM   21  N3  UNL     1      34.352 -29.682  -2.382  1.00  0.00    -0.305 N 
HETATM   22  C15 UNL     1      34.404 -28.936  -3.645  1.00  0.00     0.177 C 
HETATM   23  N4  UNL     1      35.310 -29.718  -1.486  1.00  0.00    -0.301 N 
HETATM   24  C16 UNL     1      34.958 -30.485  -0.447  1.00  0.00     0.050 A 
ATOM     25  H4  UNL     1      36.201 -29.229  -1.570  1.00  0.00     0.187 HD
HETATM   26  C17 UNL     1      35.761 -30.773   0.756  1.00  0.00     0.072 C 
ENDBRANCH  10  19
TORSDOF 4
ENDMDL
MODEL 5
REMARK VINA RESULT: -6.117873080      2.779      7.181
REMARK  4 active torsions:
REMARK  status: ('A' for Active; 'I' for Inactive)
REMARK    1  A    between atoms: C2_2  and  C3_3 
REMARK    2  A    between atoms: C4_4  and  C5_5 
REMARK    3  A    between atoms: C7_8  and  C9_10 
REMARK       I    between atoms: N1_14  and  C12_15 
REMARK       I    between atoms: C12_15  and  N2_17 
REMARK    4  A    between atoms: N2_17  and  C13_19 
ROOT
HETATM    1  C5  UNL     1      34.099 -30.390  -1.802  1.00  0.00     0.247 C 
HETATM    2  F1  UNL     1      34.358 -31.523  -2.551  1.00  0.00    -0.204 F 
HETATM    3  C6  UNL     1      34.732 -29.158  -2.471  1.00  0.00     0.099 C 
HETATM    4  C7  UNL     1      33.760 -28.839  -3.559  1.00  0.00     0.038 C 
HETATM    5  C8  UNL     1      33.311 -27.393  -3.503  1.00  0.00     0.025 C 
HETATM    6  C11 UNL     1      32.539 -29.687  -3.293  1.00  0.00     0.149 C 
HETATM    7  N1  UNL     1      32.702 -30.058  -1.876  1.00  0.00    -0.286 N 
HETATM    8  C12 UNL     1      31.676 -30.065  -0.899  1.00  0.00     0.326 C 
HETATM    9  O2  UNL     1      31.952 -30.411   0.273  1.00  0.00    -0.247 OA
HETATM   10  N2  UNL     1      30.356 -29.693  -1.221  1.00  0.00    -0.306 N 
ATOM     11  H2  UNL     1      30.179 -29.421  -2.188  1.00  0.00     0.171 HD
ENDROOT
BRANCH   1  12
HETATM   12  C4  UNL     1      34.539 -30.518  -0.432  1.00  0.00    -0.041 C 
HETATM   13  C3  UNL     1      34.939 -30.626   0.715  1.00  0.00    -0.102 C 
BRANCH  13  14
HETATM   14  C2  UNL     1      35.433 -30.775   2.086  1.00  0.00     0.089 C 
HETATM   15  C1  UNL     1      35.955 -29.456   2.543  1.00  0.00     0.018 C 
ENDBRANCH  13  14
ENDBRANCH   1  12
BRANCH   4  16
HETATM   16  C9  UNL     1      34.368 -29.142  -4.883  1.00  0.00     0.133 C 
HETATM   17  C10 UNL     1      35.836 -29.210  -5.113  1.00  0.00     0.091 C 
HETATM   18  O1  UNL     1      33.650 -29.349  -5.844  1.00  0.00    -0.297 OA
ENDBRANCH   4  16
BRANCH  10  19
HETATM   19  C13 UNL     1      29.253 -29.660  -0.342  1.00  0.00     0.077 A 
HETATM   20  C14 UNL     1      28.730 -28.584   0.323  1.00  0.00     0.141 A 
HETATM   21  N3  UNL     1      27.678 -29.009   1.053  1.00  0.00    -0.305 N 
HETATM   22  C15 UNL     1      26.828 -28.182   1.919  1.00  0.00     0.177 C 
HETATM   23  N4  UNL     1      27.536 -30.300   0.864  1.00  0.00    -0.301 N 
HETATM   24  C16 UNL     1      28.467 -30.760   0.020  1.00  0.00     0.050 A 
ATOM     25  H4  UNL     1      26.814 -30.873   1.300  1.00  0.00     0.187 HD
HETATM   26  C17 UNL     1      28.637 -32.151  -0.441  1.00  0.00     0.072 C 
ENDBRANCH  10  19
TORSDOF 4
ENDMDL
