MODEL 1
REMARK VINA RESULT: -7.398324457      0.000      0.000
REMARK  9 active torsions:
REMARK  status: ('A' for Active; 'I' for Inactive)
REMARK    1  A    between atoms: C2_2  and  O1_3 
REMARK    2  A    between atoms: O1_3  and  C3_4 
REMARK    3  A    between atoms: C5_6  and  N1_7 
REMARK    4  A    between atoms: N1_7  and  C6_9 
REMARK    5  A    between atoms: C6_9  and  C7_13 
REMARK    6  A    between atoms: N4_16  and  C8_17 
REMARK    7  A    between atoms: C9_20  and  C10_21 
REMARK    8  A    between atoms: C11_25  and  N6_26 
REMARK    9  A    between atoms: C15_35  and  N9_36 
ROOT
HETATM    1  C7  UNL     1      17.564  19.164  52.601  1.00  0.00     0.171 A 
HETATM    2  N3  UNL     1      17.937  18.949  53.898  1.00  0.00    -0.270 N 
ATOM      3  H3  UNL     1      17.756  18.100  54.434  1.00  0.00     0.189 HD
HETATM    4  N4  UNL     1      18.567  20.014  54.345  1.00  0.00    -0.184 N 
HETATM    5  C13 UNL     1      18.608  20.919  53.351  1.00  0.00     0.351 A 
HETATM    6  O4  UNL     1      19.139  22.053  53.437  1.00  0.00    -0.244 OA
HETATM    7  N7  UNL     1      17.981  20.385  52.261  1.00  0.00    -0.284 N 
HETATM    8  C14 UNL     1      17.809  21.035  50.979  1.00  0.00     0.163 C 
ENDROOT
BRANCH   1   9
HETATM    9  C6  UNL     1      16.852  18.163  51.839  1.00  0.00     0.147 C 
HETATM   10  N2  UNL     1      15.637  18.348  51.448  1.00  0.00    -0.382 N 
ATOM     11  H22 UNL     1      15.135  17.642  50.910  1.00  0.00     0.157 HD
ATOM     12  H21 UNL     1      15.207  19.237  51.704  1.00  0.00     0.157 HD
BRANCH   9  13
HETATM   13  N1  UNL     1      17.447  16.932  51.485  1.00  0.00    -0.325 N 
ATOM     14  H1  UNL     1      18.016  16.416  52.156  1.00  0.00     0.169 HD
BRANCH  13  15
HETATM   15  C5  UNL     1      17.253  16.473  50.288  1.00  0.00     0.126 A 
HETATM   16  C4  UNL     1      17.941  17.069  49.226  1.00  0.00     0.105 A 
HETATM   17  C3  UNL     1      17.752  16.605  47.953  1.00  0.00     0.161 A 
HETATM   18  N10 UNL     1      16.903  15.581  47.744  1.00  0.00    -0.171 N 
HETATM   19  C15 UNL     1      16.251  15.019  48.757  1.00  0.00     0.679 A 
ATOM     20  H10 UNL     1      16.758  15.232  46.797  1.00  0.00     0.186 HD
HETATM   21  N8  UNL     1      16.428  15.461  49.996  1.00  0.00    -0.177 N 
ATOM     22  H8  UNL     1      15.915  15.011  50.755  1.00  0.00     0.185 HD
BRANCH  17  23
HETATM   23  O1  UNL     1      18.386  17.126  46.840  1.00  0.00    -0.336 OA
BRANCH  23  24
HETATM   24  C2  UNL     1      18.433  16.555  45.569  1.00  0.00     0.173 C 
HETATM   25  C1  UNL     1      19.207  17.357  44.557  1.00  0.00     0.034 C 
ENDBRANCH  23  24
ENDBRANCH  17  23
BRANCH  19  26
HETATM   26  N9  UNL     1      15.430  14.025  48.538  1.00  0.00    -0.234 N 
ATOM     27  H92 UNL     1      15.356  13.263  49.213  1.00  0.00     0.174 HD
ATOM     28  H91 UNL     1      14.865  14.017  47.689  1.00  0.00     0.174 HD
ENDBRANCH  19  26
ENDBRANCH  13  15
ENDBRANCH   9  13
ENDBRANCH   1   9
BRANCH   4  29
HETATM   29  C8  UNL     1      19.147  20.196  55.670  1.00  0.00     0.167 A 
HETATM   30  N5  UNL     1      18.618  21.073  56.477  1.00  0.00    -0.327 N 
HETATM   31  C9  UNL     1      19.118  21.260  57.678  1.00  0.00     0.155 A 
ATOM     32  H5  UNL     1      17.810  21.617  56.174  1.00  0.00     0.168 HD
HETATM   33  S1  UNL     1      20.407  20.157  57.709  1.00  0.00    -0.044 SA
HETATM   34  C11 UNL     1      20.221  19.487  56.104  1.00  0.00     0.118 A 
BRANCH  31  35
HETATM   35  C10 UNL     1      18.624  22.211  58.684  1.00  0.00     0.234 C 
HETATM   36  O2  UNL     1      17.528  22.763  58.459  1.00  0.00    -0.642 OA
HETATM   37  O3  UNL     1      19.355  22.470  59.823  1.00  0.00    -0.642 OA
ENDBRANCH  31  35
BRANCH  34  38
HETATM   38  N6  UNL     1      21.037  18.475  55.520  1.00  0.00    -0.386 N 
HETATM   39  C12 UNL     1      22.453  18.352  55.569  1.00  0.00     0.147 C 
ATOM     40  H6  UNL     1      20.544  17.748  55.001  1.00  0.00     0.159 HD
ENDBRANCH  34  38
ENDBRANCH   4  29
TORSDOF 9
ENDMDL
MODEL 2
REMARK VINA RESULT: -7.269148018      1.442      1.938
REMARK  9 active torsions:
REMARK  status: ('A' for Active; 'I' for Inactive)
REMARK    1  A    between atoms: C2_2  and  O1_3 
REMARK    2  A    between atoms: O1_3  and  C3_4 
REMARK    3  A    between atoms: C5_6  and  N1_7 
REMARK    4  A    between atoms: N1_7  and  C6_9 
REMARK    5  A    between atoms: C6_9  and  C7_13 
REMARK    6  A    between atoms: N4_16  and  C8_17 
REMARK    7  A    between atoms: C9_20  and  C10_21 
REMARK    8  A    between atoms: C11_25  and  N6_26 
REMARK    9  A    between atoms: C15_35  and  N9_36 
ROOT
HETATM    1  C7  UNL     1      17.495  19.196  52.598  1.00  0.00     0.171 A 
HETATM    2  N3  UNL     1      17.858  18.979  53.898  1.00  0.00    -0.270 N 
ATOM      3  H3  UNL     1      17.648  18.141  54.440  1.00  0.00     0.189 HD
HETATM    4  N4  UNL     1      18.521  20.027  54.338  1.00  0.00    -0.184 N 
HETATM    5  C13 UNL     1      18.594  20.922  53.337  1.00  0.00     0.351 A 
HETATM    6  O4  UNL     1      19.161  22.039  53.415  1.00  0.00    -0.244 OA
HETATM    7  N7  UNL     1      17.952  20.400  52.250  1.00  0.00    -0.284 N 
HETATM    8  C14 UNL     1      17.804  21.045  50.962  1.00  0.00     0.163 C 
ENDROOT
BRANCH   1   9
HETATM    9  C6  UNL     1      16.752  18.212  51.842  1.00  0.00     0.147 C 
HETATM   10  N2  UNL     1      15.521  18.405  51.507  1.00  0.00    -0.382 N 
ATOM     11  H22 UNL     1      14.998  17.711  50.974  1.00  0.00     0.157 HD
ATOM     12  H21 UNL     1      15.102  19.287  51.803  1.00  0.00     0.157 HD
BRANCH   9  13
HETATM   13  N1  UNL     1      17.332  16.992  51.434  1.00  0.00    -0.325 N 
ATOM     14  H1  UNL     1      17.549  16.264  52.114  1.00  0.00     0.169 HD
BRANCH  13  15
HETATM   15  C5  UNL     1      17.583  16.818  50.174  1.00  0.00     0.126 A 
HETATM   16  C4  UNL     1      17.359  15.554  49.618  1.00  0.00     0.105 A 
HETATM   17  C3  UNL     1      17.618  15.343  48.291  1.00  0.00     0.161 A 
HETATM   18  N10 UNL     1      18.089  16.358  47.543  1.00  0.00    -0.171 N 
HETATM   19  C15 UNL     1      18.301  17.557  48.076  1.00  0.00     0.679 A 
ATOM     20  H10 UNL     1      18.285  16.206  46.553  1.00  0.00     0.186 HD
HETATM   21  N8  UNL     1      18.051  17.773  49.362  1.00  0.00    -0.177 N 
ATOM     22  H8  UNL     1      18.222  18.703  49.746  1.00  0.00     0.185 HD
BRANCH  17  23
HETATM   23  O1  UNL     1      17.429  14.132  47.651  1.00  0.00    -0.336 OA
BRANCH  23  24
HETATM   24  C2  UNL     1      18.359  13.455  46.865  1.00  0.00     0.173 C 
HETATM   25  C1  UNL     1      17.846  12.176  46.260  1.00  0.00     0.034 C 
ENDBRANCH  23  24
ENDBRANCH  17  23
BRANCH  19  26
HETATM   26  N9  UNL     1      18.757  18.534  47.335  1.00  0.00    -0.234 N 
ATOM     27  H92 UNL     1      18.342  19.463  47.400  1.00  0.00     0.174 HD
ATOM     28  H91 UNL     1      19.530  18.358  46.694  1.00  0.00     0.174 HD
ENDBRANCH  19  26
ENDBRANCH  13  15
ENDBRANCH   9  13
ENDBRANCH   1   9
BRANCH   4  29
HETATM   29  C8  UNL     1      19.104  20.200  55.663  1.00  0.00     0.167 A 
HETATM   30  N5  UNL     1      18.587  21.084  56.470  1.00  0.00    -0.327 N 
HETATM   31  C9  UNL     1      19.091  21.264  57.671  1.00  0.00     0.155 A 
ATOM     32  H5  UNL     1      17.787  21.640  56.167  1.00  0.00     0.168 HD
HETATM   33  S1  UNL     1      20.364  20.143  57.702  1.00  0.00    -0.044 SA
HETATM   34  C11 UNL     1      20.168  19.476  56.096  1.00  0.00     0.118 A 
BRANCH  31  35
HETATM   35  C10 UNL     1      18.611  22.222  58.678  1.00  0.00     0.234 C 
HETATM   36  O2  UNL     1      17.509  22.770  58.466  1.00  0.00    -0.642 OA
HETATM   37  O3  UNL     1      19.359  22.492  59.803  1.00  0.00    -0.642 OA
ENDBRANCH  31  35
BRANCH  34  38
HETATM   38  N6  UNL     1      20.969  18.453  55.512  1.00  0.00    -0.386 N 
HETATM   39  C12 UNL     1      22.383  18.306  55.567  1.00  0.00     0.147 C 
ATOM     40  H6  UNL     1      20.466  17.736  54.988  1.00  0.00     0.159 HD
ENDBRANCH  34  38
ENDBRANCH   4  29
TORSDOF 9
ENDMDL
MODEL 3
REMARK VINA RESULT: -7.095544318      3.214      8.988
REMARK  9 active torsions:
REMARK  status: ('A' for Active; 'I' for Inactive)
REMARK    1  A    between atoms: C2_2  and  O1_3 
REMARK    2  A    between atoms: O1_3  and  C3_4 
REMARK    3  A    between atoms: C5_6  and  N1_7 
REMARK    4  A    between atoms: N1_7  and  C6_9 
REMARK    5  A    between atoms: C6_9  and  C7_13 
REMARK    6  A    between atoms: N4_16  and  C8_17 
REMARK    7  A    between atoms: C9_20  and  C10_21 
REMARK    8  A    between atoms: C11_25  and  N6_26 
REMARK    9  A    between atoms: C15_35  and  N9_36 
ROOT
HETATM    1  C7  UNL     1      16.609  19.454  51.791  1.00  0.00     0.171 A 
HETATM    2  N3  UNL     1      16.116  18.308  51.231  1.00  0.00    -0.270 N 
ATOM      3  H3  UNL     1      15.318  17.774  51.578  1.00  0.00     0.189 HD
HETATM    4  N4  UNL     1      16.835  18.004  50.173  1.00  0.00    -0.184 N 
HETATM    5  C13 UNL     1      17.791  18.940  50.038  1.00  0.00     0.351 A 
HETATM    6  O4  UNL     1      18.655  18.956  49.128  1.00  0.00    -0.244 OA
HETATM    7  N7  UNL     1      17.647  19.847  51.051  1.00  0.00    -0.284 N 
HETATM    8  C14 UNL     1      18.474  21.015  51.267  1.00  0.00     0.163 C 
ENDROOT
BRANCH   1   9
HETATM    9  C6  UNL     1      16.016  20.038  52.973  1.00  0.00     0.147 C 
HETATM   10  N2  UNL     1      15.015  20.849  52.897  1.00  0.00    -0.382 N 
ATOM     11  H22 UNL     1      14.597  21.262  53.731  1.00  0.00     0.157 HD
ATOM     12  H21 UNL     1      14.665  21.054  51.960  1.00  0.00     0.157 HD
BRANCH   9  13
HETATM   13  N1  UNL     1      16.500  19.755  54.268  1.00  0.00    -0.325 N 
ATOM     14  H1  UNL     1      16.041  19.060  54.856  1.00  0.00     0.169 HD
BRANCH  13  15
HETATM   15  C5  UNL     1      17.542  20.399  54.693  1.00  0.00     0.126 A 
HETATM   16  C4  UNL     1      18.577  19.672  55.291  1.00  0.00     0.105 A 
HETATM   17  C3  UNL     1      19.686  20.328  55.751  1.00  0.00     0.161 A 
HETATM   18  N10 UNL     1      19.761  21.666  55.621  1.00  0.00    -0.171 N 
HETATM   19  C15 UNL     1      18.774  22.352  55.052  1.00  0.00     0.679 A 
ATOM     20  H10 UNL     1      20.585  22.161  55.963  1.00  0.00     0.186 HD
HETATM   21  N8  UNL     1      17.694  21.726  54.602  1.00  0.00    -0.177 N 
ATOM     22  H8  UNL     1      16.952  22.276  54.170  1.00  0.00     0.185 HD
BRANCH  17  23
HETATM   23  O1  UNL     1      20.759  19.700  56.354  1.00  0.00    -0.336 OA
BRANCH  23  24
HETATM   24  C2  UNL     1      21.138  18.368  56.193  1.00  0.00     0.173 C 
HETATM   25  C1  UNL     1      20.651  17.449  57.282  1.00  0.00     0.034 C 
ENDBRANCH  23  24
ENDBRANCH  17  23
BRANCH  19  26
HETATM   26  N9  UNL     1      18.862  23.652  54.933  1.00  0.00    -0.234 N 
ATOM     27  H92 UNL     1      18.239  24.151  54.298  1.00  0.00     0.174 HD
ATOM     28  H91 UNL     1      19.558  24.160  55.479  1.00  0.00     0.174 HD
ENDBRANCH  19  26
ENDBRANCH  13  15
ENDBRANCH   9  13
ENDBRANCH   1   9
BRANCH   4  29
HETATM   29  C8  UNL     1      16.638  16.872  49.277  1.00  0.00     0.167 A 
HETATM   30  N5  UNL     1      17.673  16.351  48.679  1.00  0.00    -0.327 N 
HETATM   31  C9  UNL     1      17.527  15.329  47.864  1.00  0.00     0.155 A 
ATOM     32  H5  UNL     1      18.602  16.739  48.844  1.00  0.00     0.168 HD
HETATM   33  S1  UNL     1      15.853  15.059  47.918  1.00  0.00    -0.044 SA
HETATM   34  C11 UNL     1      15.415  16.332  49.036  1.00  0.00     0.118 A 
BRANCH  31  35
HETATM   35  C10 UNL     1      18.602  14.648  47.127  1.00  0.00     0.234 C 
HETATM   36  O2  UNL     1      18.652  14.829  45.893  1.00  0.00    -0.642 OA
HETATM   37  O3  UNL     1      19.507  13.846  47.787  1.00  0.00    -0.642 OA
ENDBRANCH  31  35
BRANCH  34  38
HETATM   38  N6  UNL     1      14.099  16.625  49.495  1.00  0.00    -0.386 N 
HETATM   39  C12 UNL     1      13.276  17.733  49.152  1.00  0.00     0.147 C 
ATOM     40  H6  UNL     1      13.696  15.957  50.152  1.00  0.00     0.159 HD
ENDBRANCH  34  38
ENDBRANCH   4  29
TORSDOF 9
ENDMDL
MODEL 4
REMARK VINA RESULT: -7.022574493      3.341      9.192
REMARK  9 active torsions:
REMARK  status: ('A' for Active; 'I' for Inactive)
REMARK    1  A    between atoms: C2_2  and  O1_3 
REMARK    2  A    between atoms: O1_3  and  C3_4 
REMARK    3  A    between atoms: C5_6  and  N1_7 
REMARK    4  A    between atoms: N1_7  and  C6_9 
REMARK    5  A    between atoms: C6_9  and  C7_13 
REMARK    6  A    between atoms: N4_16  and  C8_17 
REMARK    7  A    between atoms: C9_20  and  C10_21 
REMARK    8  A    between atoms: C11_25  and  N6_26 
REMARK    9  A    between atoms: C15_35  and  N9_36 
ROOT
HETATM    1  C7  UNL     1      17.778  20.114  52.915  1.00  0.00     0.171 A 
HETATM    2  N3  UNL     1      18.348  19.219  52.053  1.00  0.00    -0.270 N 
ATOM      3  H3  UNL     1      19.343  18.997  52.002  1.00  0.00     0.189 HD
HETATM    4  N4  UNL     1      17.408  18.689  51.302  1.00  0.00    -0.184 N 
HETATM    5  C13 UNL     1      16.232  19.230  51.665  1.00  0.00     0.351 A 
HETATM    6  O4  UNL     1      15.123  18.947  51.149  1.00  0.00    -0.244 OA
HETATM    7  N7  UNL     1      16.466  20.121  52.675  1.00  0.00    -0.284 N 
HETATM    8  C14 UNL     1      15.464  20.917  53.352  1.00  0.00     0.163 C 
ENDROOT
BRANCH   1   9
HETATM    9  C6  UNL     1      18.567  20.856  53.873  1.00  0.00     0.147 C 
HETATM   10  N2  UNL     1      19.057  22.016  53.591  1.00  0.00    -0.382 N 
ATOM     11  H22 UNL     1      19.614  22.539  54.267  1.00  0.00     0.157 HD
ATOM     12  H21 UNL     1      18.857  22.381  52.660  1.00  0.00     0.157 HD
BRANCH   9  13
HETATM   13  N1  UNL     1      18.844  20.351  55.161  1.00  0.00    -0.325 N 
ATOM     14  H1  UNL     1      19.332  19.463  55.280  1.00  0.00     0.169 HD
BRANCH  13  15
HETATM   15  C5  UNL     1      18.465  21.042  56.191  1.00  0.00     0.126 A 
HETATM   16  C4  UNL     1      17.203  21.644  56.162  1.00  0.00     0.105 A 
HETATM   17  C3  UNL     1      16.780  22.380  57.235  1.00  0.00     0.161 A 
HETATM   18  N10 UNL     1      17.590  22.514  58.302  1.00  0.00    -0.171 N 
HETATM   19  C15 UNL     1      18.789  21.940  58.324  1.00  0.00     0.679 A 
ATOM     20  H10 UNL     1      17.281  23.063  59.104  1.00  0.00     0.186 HD
HETATM   21  N8  UNL     1      19.208  21.223  57.289  1.00  0.00    -0.177 N 
ATOM     22  H8  UNL     1      20.133  20.793  57.332  1.00  0.00     0.185 HD
BRANCH  17  23
HETATM   23  O1  UNL     1      15.552  23.012  57.301  1.00  0.00    -0.336 OA
BRANCH  23  24
HETATM   24  C2  UNL     1      14.430  22.726  56.527  1.00  0.00     0.173 C 
HETATM   25  C1  UNL     1      13.130  22.748  57.287  1.00  0.00     0.034 C 
ENDBRANCH  23  24
ENDBRANCH  17  23
BRANCH  19  26
HETATM   26  N9  UNL     1      19.564  22.079  59.368  1.00  0.00    -0.234 N 
ATOM     27  H92 UNL     1      19.828  21.264  59.922  1.00  0.00     0.174 HD
ATOM     28  H91 UNL     1      19.901  23.007  59.624  1.00  0.00     0.174 HD
ENDBRANCH  19  26
ENDBRANCH  13  15
ENDBRANCH   9  13
ENDBRANCH   1   9
BRANCH   4  29
HETATM   29  C8  UNL     1      17.582  17.676  50.268  1.00  0.00     0.167 A 
HETATM   30  N5  UNL     1      17.080  16.487  50.457  1.00  0.00    -0.327 N 
HETATM   31  C9  UNL     1      17.220  15.553  49.543  1.00  0.00     0.155 A 
ATOM     32  H5  UNL     1      16.576  16.281  51.319  1.00  0.00     0.168 HD
HETATM   33  S1  UNL     1      18.102  16.356  48.336  1.00  0.00    -0.044 SA
HETATM   34  C11 UNL     1      18.246  17.918  49.109  1.00  0.00     0.118 A 
BRANCH  31  35
HETATM   35  C10 UNL     1      16.710  14.177  49.625  1.00  0.00     0.234 C 
HETATM   36  O2  UNL     1      16.120  13.725  48.622  1.00  0.00    -0.642 OA
HETATM   37  O3  UNL     1      16.883  13.430  50.771  1.00  0.00    -0.642 OA
ENDBRANCH  31  35
BRANCH  34  38
HETATM   38  N6  UNL     1      18.907  19.060  48.570  1.00  0.00    -0.386 N 
HETATM   39  C12 UNL     1      18.364  20.350  48.317  1.00  0.00     0.147 C 
ATOM     40  H6  UNL     1      19.892  18.937  48.336  1.00  0.00     0.159 HD
ENDBRANCH  34  38
ENDBRANCH   4  29
TORSDOF 9
ENDMDL
MODEL 5
REMARK VINA RESULT: -6.997779201      1.755      2.612
REMARK  9 active torsions:
REMARK  status: ('A' for Active; 'I' for Inactive)
REMARK    1  A    between atoms: C2_2  and  O1_3 
REMARK    2  A    between atoms: O1_3  and  C3_4 
REMARK    3  A    between atoms: C5_6  and  N1_7 
REMARK    4  A    between atoms: N1_7  and  C6_9 
REMARK    5  A    between atoms: C6_9  and  C7_13 
REMARK    6  A    between atoms: N4_16  and  C8_17 
REMARK    7  A    between atoms: C9_20  and  C10_21 
REMARK    8  A    between atoms: C11_25  and  N6_26 
REMARK    9  A    between atoms: C15_35  and  N9_36 
ROOT
HETATM    1  C7  UNL     1      17.160  19.342  52.276  1.00  0.00     0.171 A 
HETATM    2  N3  UNL     1      16.821  19.599  53.575  1.00  0.00    -0.270 N 
ATOM      3  H3  UNL     1      16.143  19.071  54.126  1.00  0.00     0.189 HD
HETATM    4  N4  UNL     1      17.508  20.636  54.000  1.00  0.00    -0.184 N 
HETATM    5  C13 UNL     1      18.291  21.057  52.991  1.00  0.00     0.351 A 
HETATM    6  O4  UNL     1      19.080  22.032  53.055  1.00  0.00    -0.244 OA
HETATM    7  N7  UNL     1      18.073  20.245  51.914  1.00  0.00    -0.284 N 
HETATM    8  C14 UNL     1      18.721  20.355  50.624  1.00  0.00     0.163 C 
ENDROOT
BRANCH   1   9
HETATM    9  C6  UNL     1      16.567  18.250  51.537  1.00  0.00     0.147 C 
HETATM   10  N2  UNL     1      15.363  18.319  51.078  1.00  0.00    -0.382 N 
ATOM     11  H22 UNL     1      14.944  17.549  50.556  1.00  0.00     0.157 HD
ATOM     12  H21 UNL     1      14.855  19.185  51.263  1.00  0.00     0.157 HD
BRANCH   9  13
HETATM   13  N1  UNL     1      17.270  17.053  51.280  1.00  0.00    -0.325 N 
ATOM     14  H1  UNL     1      17.863  16.634  51.996  1.00  0.00     0.169 HD
BRANCH  13  15
HETATM   15  C5  UNL     1      17.145  16.500  50.114  1.00  0.00     0.126 A 
HETATM   16  C4  UNL     1      17.895  17.011  49.050  1.00  0.00     0.105 A 
HETATM   17  C3  UNL     1      17.779  16.446  47.809  1.00  0.00     0.161 A 
HETATM   18  N10 UNL     1      16.941  15.407  47.634  1.00  0.00    -0.171 N 
HETATM   19  C15 UNL     1      16.231  14.925  48.650  1.00  0.00     0.679 A 
ATOM     20  H10 UNL     1      16.850  14.983  46.711  1.00  0.00     0.186 HD
HETATM   21  N8  UNL     1      16.337  15.464  49.857  1.00  0.00    -0.177 N 
ATOM     22  H8  UNL     1      15.781  15.075  50.619  1.00  0.00     0.185 HD
BRANCH  17  23
HETATM   23  O1  UNL     1      18.476  16.879  46.696  1.00  0.00    -0.336 OA
BRANCH  23  24
HETATM   24  C2  UNL     1      18.257  16.488  45.377  1.00  0.00     0.173 C 
HETATM   25  C1  UNL     1      19.164  17.151  44.375  1.00  0.00     0.034 C 
ENDBRANCH  23  24
ENDBRANCH  17  23
BRANCH  19  26
HETATM   26  N9  UNL     1      15.423  13.914  48.463  1.00  0.00    -0.234 N 
ATOM     27  H92 UNL     1      14.504  14.063  48.044  1.00  0.00     0.174 HD
ATOM     28  H91 UNL     1      15.717  12.978  48.740  1.00  0.00     0.174 HD
ENDBRANCH  19  26
ENDBRANCH  13  15
ENDBRANCH   9  13
ENDBRANCH   1   9
BRANCH   4  29
HETATM   29  C8  UNL     1      17.463  21.230  55.331  1.00  0.00     0.167 A 
HETATM   30  N5  UNL     1      18.478  21.062  56.132  1.00  0.00    -0.327 N 
HETATM   31  C9  UNL     1      18.467  21.584  57.338  1.00  0.00     0.155 A 
ATOM     32  H5  UNL     1      19.286  20.523  55.821  1.00  0.00     0.168 HD
HETATM   33  S1  UNL     1      16.960  22.362  57.383  1.00  0.00    -0.044 SA
HETATM   34  C11 UNL     1      16.403  21.954  55.775  1.00  0.00     0.118 A 
BRANCH  31  35
HETATM   35  C10 UNL     1      19.537  21.474  58.340  1.00  0.00     0.234 C 
HETATM   36  O2  UNL     1      19.416  22.149  59.383  1.00  0.00    -0.642 OA
HETATM   37  O3  UNL     1      20.623  20.654  58.121  1.00  0.00    -0.642 OA
ENDBRANCH  31  35
BRANCH  34  38
HETATM   38  N6  UNL     1      15.157  22.335  55.199  1.00  0.00    -0.386 N 
HETATM   39  C12 UNL     1      14.073  23.013  55.822  1.00  0.00     0.147 C 
ATOM     40  H6  UNL     1      15.026  22.091  54.217  1.00  0.00     0.159 HD
ENDBRANCH  34  38
ENDBRANCH   4  29
TORSDOF 9
ENDMDL
