MODEL 1
REMARK VINA RESULT: -9.436741356      0.000      0.000
REMARK  5 active torsions:
REMARK  status: ('A' for Active; 'I' for Inactive)
REMARK    1  A    between atoms: C1_2  and  C2_4 
REMARK    2  A    between atoms: C7_9  and  S1_10 
REMARK    3  A    between atoms: S1_10  and  C8_11 
REMARK    4  A    between atoms: C10_17  and  C11_18 
REMARK    5  A    between atoms: C18_27  and  C19_28 
ROOT
HETATM    1  C8  UNL     1      61.101   5.553  -4.623  1.00  0.00     0.089 A 
HETATM    2  N2  UNL     1      61.238   6.762  -4.067  1.00  0.00    -0.334 N 
ATOM      3  H2  UNL     1      61.266   7.636  -4.593  1.00  0.00     0.168 HD
HETATM    4  C9  UNL     1      61.335   6.681  -2.727  1.00  0.00     0.136 A 
HETATM    5  N3  UNL     1      61.475   7.345  -1.567  1.00  0.00    -0.326 N 
ATOM      6  H3  UNL     1      61.560   8.357  -1.476  1.00  0.00     0.169 HD
HETATM    7  C10 UNL     1      61.486   6.474  -0.546  1.00  0.00     0.117 A 
HETATM    8  N4  UNL     1      61.353   5.241  -1.036  1.00  0.00    -0.338 N 
ATOM      9  H4  UNL     1      61.329   4.379  -0.492  1.00  0.00     0.167 HD
HETATM   10  C17 UNL     1      61.258   5.333  -2.367  1.00  0.00     0.092 A 
HETATM   11  C18 UNL     1      61.112   4.655  -3.585  1.00  0.00     0.039 A 
ENDROOT
BRANCH   1  12
HETATM   12  S1  UNL     1      60.949   5.132  -6.342  1.00  0.00    -0.071 SA
BRANCH  12  13
HETATM   13  C7  UNL     1      61.800   3.652  -6.806  1.00  0.00     0.022 A 
HETATM   14  C2  UNL     1      63.154   3.554  -6.639  1.00  0.00     0.046 A 
HETATM   15  C3  UNL     1      63.859   2.404  -6.997  1.00  0.00     0.018 A 
HETATM   16  C4  UNL     1      63.203   1.325  -7.533  1.00  0.00     0.001 A 
HETATM   17  C5  UNL     1      61.839   1.416  -7.703  1.00  0.00     0.001 A 
HETATM   18  C6  UNL     1      61.146   2.558  -7.346  1.00  0.00     0.020 A 
BRANCH  14  19
HETATM   19  C1  UNL     1      63.909   4.623  -6.064  1.00  0.00     0.266 C 
HETATM   20  N1  UNL     1      64.650   4.449  -4.875  1.00  0.00    -0.057 NA
HETATM   21  O1  UNL     1      63.931   5.749  -6.606  1.00  0.00    -0.271 OA
ENDBRANCH  14  19
ENDBRANCH  12  13
ENDBRANCH   1  12
BRANCH  11  22
HETATM   22  C19 UNL     1      60.988   3.223  -3.702  1.00  0.00    -0.021 A 
HETATM   23  C20 UNL     1      59.783   2.589  -3.918  1.00  0.00     0.012 A 
HETATM   24  C21 UNL     1      59.654   1.222  -4.039  1.00  0.00     0.001 A 
HETATM   25  C22 UNL     1      60.793   0.466  -3.937  1.00  0.00     0.000 A 
HETATM   26  C23 UNL     1      62.018   1.050  -3.721  1.00  0.00     0.001 A 
HETATM   27  C24 UNL     1      62.115   2.419  -3.604  1.00  0.00     0.012 A 
ENDBRANCH  11  22
BRANCH   7  28
HETATM   28  C11 UNL     1      61.623   6.878   0.846  1.00  0.00     0.008 A 
HETATM   29  C12 UNL     1      60.993   8.014   1.322  1.00  0.00     0.015 A 
HETATM   30  C13 UNL     1      61.133   8.381   2.637  1.00  0.00     0.001 A 
HETATM   31  C14 UNL     1      61.879   7.667   3.530  1.00  0.00     0.000 A 
HETATM   32  C15 UNL     1      62.517   6.523   3.069  1.00  0.00     0.001 A 
HETATM   33  C16 UNL     1      62.373   6.164   1.753  1.00  0.00     0.015 A 
ENDBRANCH   7  28
TORSDOF 5
ENDMDL
MODEL 2
REMARK VINA RESULT: -8.907590612      3.217      4.768
REMARK  5 active torsions:
REMARK  status: ('A' for Active; 'I' for Inactive)
REMARK    1  A    between atoms: C1_2  and  C2_4 
REMARK    2  A    between atoms: C7_9  and  S1_10 
REMARK    3  A    between atoms: S1_10  and  C8_11 
REMARK    4  A    between atoms: C10_17  and  C11_18 
REMARK    5  A    between atoms: C18_27  and  C19_28 
ROOT
HETATM    1  C8  UNL     1      64.575   2.701  -6.182  1.00  0.00     0.089 A 
HETATM    2  N2  UNL     1      65.038   3.641  -5.351  1.00  0.00    -0.334 N 
ATOM      3  H2  UNL     1      66.010   3.949  -5.318  1.00  0.00     0.168 HD
HETATM    4  C9  UNL     1      64.062   4.128  -4.563  1.00  0.00     0.136 A 
HETATM    5  N3  UNL     1      63.729   4.986  -3.583  1.00  0.00    -0.326 N 
ATOM      6  H3  UNL     1      64.374   5.624  -3.117  1.00  0.00     0.169 HD
HETATM    7  C10 UNL     1      62.420   4.876  -3.312  1.00  0.00     0.117 A 
HETATM    8  N4  UNL     1      61.894   3.948  -4.111  1.00  0.00    -0.338 N 
ATOM      9  H4  UNL     1      60.918   3.653  -4.128  1.00  0.00     0.167 HD
HETATM   10  C17 UNL     1      62.872   3.471  -4.890  1.00  0.00     0.092 A 
HETATM   11  C18 UNL     1      63.235   2.582  -5.910  1.00  0.00     0.039 A 
ENDROOT
BRANCH   1  12
HETATM   12  S1  UNL     1      65.462   1.756  -7.397  1.00  0.00    -0.071 SA
BRANCH  12  13
HETATM   13  C7  UNL     1      66.692   0.677  -6.723  1.00  0.00     0.022 A 
HETATM   14  C2  UNL     1      66.330  -0.521  -6.170  1.00  0.00     0.046 A 
HETATM   15  C3  UNL     1      67.271  -1.395  -5.625  1.00  0.00     0.018 A 
HETATM   16  C4  UNL     1      68.605  -1.073  -5.632  1.00  0.00     0.001 A 
HETATM   17  C5  UNL     1      68.977   0.132  -6.189  1.00  0.00     0.001 A 
HETATM   18  C6  UNL     1      68.039   0.994  -6.726  1.00  0.00     0.020 A 
BRANCH  14  19
HETATM   19  C1  UNL     1      64.964  -0.943  -6.146  1.00  0.00     0.266 C 
HETATM   20  N1  UNL     1      64.324  -1.302  -4.940  1.00  0.00    -0.057 NA
HETATM   21  O1  UNL     1      64.299  -1.004  -7.202  1.00  0.00    -0.271 OA
ENDBRANCH  14  19
ENDBRANCH  12  13
ENDBRANCH   1  12
BRANCH  11  22
HETATM   22  C19 UNL     1      62.313   1.687  -6.566  1.00  0.00    -0.021 A 
HETATM   23  C20 UNL     1      62.080   1.711  -7.924  1.00  0.00     0.012 A 
HETATM   24  C21 UNL     1      61.207   0.856  -8.562  1.00  0.00     0.001 A 
HETATM   25  C22 UNL     1      60.544  -0.063  -7.791  1.00  0.00     0.000 A 
HETATM   26  C23 UNL     1      60.741  -0.129  -6.434  1.00  0.00     0.001 A 
HETATM   27  C24 UNL     1      61.619   0.740  -5.824  1.00  0.00     0.012 A 
ENDBRANCH  11  22
BRANCH   7  28
HETATM   28  C11 UNL     1      61.746   5.673  -2.296  1.00  0.00     0.008 A 
HETATM   29  C12 UNL     1      61.277   6.943  -2.584  1.00  0.00     0.015 A 
HETATM   30  C13 UNL     1      60.645   7.680  -1.614  1.00  0.00     0.001 A 
HETATM   31  C14 UNL     1      60.445   7.219  -0.344  1.00  0.00     0.000 A 
HETATM   32  C15 UNL     1      60.909   5.947  -0.040  1.00  0.00     0.001 A 
HETATM   33  C16 UNL     1      61.541   5.217  -1.014  1.00  0.00     0.015 A 
ENDBRANCH   7  28
TORSDOF 5
ENDMDL
MODEL 3
REMARK VINA RESULT: -8.556121971      3.338      7.963
REMARK  5 active torsions:
REMARK  status: ('A' for Active; 'I' for Inactive)
REMARK    1  A    between atoms: C1_2  and  C2_4 
REMARK    2  A    between atoms: C7_9  and  S1_10 
REMARK    3  A    between atoms: S1_10  and  C8_11 
REMARK    4  A    between atoms: C10_17  and  C11_18 
REMARK    5  A    between atoms: C18_27  and  C19_28 
ROOT
HETATM    1  C8  UNL     1      63.097   3.436  -6.449  1.00  0.00     0.089 A 
HETATM    2  N2  UNL     1      64.361   3.596  -6.038  1.00  0.00    -0.334 N 
ATOM      3  H2  UNL     1      64.749   4.479  -5.706  1.00  0.00     0.168 HD
HETATM    4  C9  UNL     1      65.054   2.445  -6.116  1.00  0.00     0.136 A 
HETATM    5  N3  UNL     1      66.230   1.824  -5.921  1.00  0.00    -0.326 N 
ATOM      6  H3  UNL     1      67.076   2.267  -5.563  1.00  0.00     0.169 HD
HETATM    7  C10 UNL     1      66.123   0.532  -6.270  1.00  0.00     0.117 A 
HETATM    8  N4  UNL     1      64.879   0.307  -6.693  1.00  0.00    -0.338 N 
ATOM      9  H4  UNL     1      64.510  -0.585  -7.022  1.00  0.00     0.167 HD
HETATM   10  C17 UNL     1      64.199   1.456  -6.611  1.00  0.00     0.092 A 
HETATM   11  C18 UNL     1      62.979   2.117  -6.809  1.00  0.00     0.039 A 
ENDROOT
BRANCH   1  12
HETATM   12  S1  UNL     1      61.800   4.646  -6.547  1.00  0.00    -0.071 SA
BRANCH  12  13
HETATM   13  C7  UNL     1      61.604   5.623  -5.085  1.00  0.00     0.022 A 
HETATM   14  C2  UNL     1      60.871   5.149  -4.032  1.00  0.00     0.046 A 
HETATM   15  C3  UNL     1      60.692   5.892  -2.865  1.00  0.00     0.018 A 
HETATM   16  C4  UNL     1      61.256   7.137  -2.740  1.00  0.00     0.001 A 
HETATM   17  C5  UNL     1      61.996   7.621  -3.797  1.00  0.00     0.001 A 
HETATM   18  C6  UNL     1      62.170   6.879  -4.951  1.00  0.00     0.020 A 
BRANCH  14  19
HETATM   19  C1  UNL     1      60.272   3.851  -4.071  1.00  0.00     0.266 C 
HETATM   20  N1  UNL     1      58.938   3.667  -4.496  1.00  0.00    -0.057 NA
HETATM   21  O1  UNL     1      60.921   2.840  -3.728  1.00  0.00    -0.271 OA
ENDBRANCH  14  19
ENDBRANCH  12  13
ENDBRANCH   1  12
BRANCH  11  22
HETATM   22  C19 UNL     1      61.788   1.479  -7.313  1.00  0.00    -0.021 A 
HETATM   23  C20 UNL     1      61.530   1.325  -8.658  1.00  0.00     0.012 A 
HETATM   24  C21 UNL     1      60.400   0.711  -9.151  1.00  0.00     0.001 A 
HETATM   25  C22 UNL     1      59.492   0.231  -8.242  1.00  0.00     0.000 A 
HETATM   26  C23 UNL     1      59.702   0.359  -6.891  1.00  0.00     0.001 A 
HETATM   27  C24 UNL     1      60.842   0.979  -6.429  1.00  0.00     0.012 A 
ENDBRANCH  11  22
BRANCH   7  28
HETATM   28  C11 UNL     1      67.226  -0.413  -6.176  1.00  0.00     0.008 A 
HETATM   29  C12 UNL     1      67.604  -1.175  -7.266  1.00  0.00     0.015 A 
HETATM   30  C13 UNL     1      68.646  -2.062  -7.160  1.00  0.00     0.001 A 
HETATM   31  C14 UNL     1      69.353  -2.240  -6.005  1.00  0.00     0.000 A 
HETATM   32  C15 UNL     1      68.986  -1.483  -4.901  1.00  0.00     0.001 A 
HETATM   33  C16 UNL     1      67.943  -0.600  -5.016  1.00  0.00     0.015 A 
ENDBRANCH   7  28
TORSDOF 5
ENDMDL
MODEL 4
REMARK VINA RESULT: -8.262854787      3.387      4.889
REMARK  5 active torsions:
REMARK  status: ('A' for Active; 'I' for Inactive)
REMARK    1  A    between atoms: C1_2  and  C2_4 
REMARK    2  A    between atoms: C7_9  and  S1_10 
REMARK    3  A    between atoms: S1_10  and  C8_11 
REMARK    4  A    between atoms: C10_17  and  C11_18 
REMARK    5  A    between atoms: C18_27  and  C19_28 
ROOT
HETATM    1  C8  UNL     1      64.508   2.242  -6.086  1.00  0.00     0.089 A 
HETATM    2  N2  UNL     1      65.033   3.173  -5.282  1.00  0.00    -0.334 N 
ATOM      3  H2  UNL     1      66.033   3.353  -5.189  1.00  0.00     0.168 HD
HETATM    4  C9  UNL     1      64.077   3.844  -4.613  1.00  0.00     0.136 A 
HETATM    5  N3  UNL     1      63.792   4.811  -3.724  1.00  0.00    -0.326 N 
ATOM      6  H3  UNL     1      64.482   5.392  -3.248  1.00  0.00     0.169 HD
HETATM    7  C10 UNL     1      62.464   4.895  -3.557  1.00  0.00     0.117 A 
HETATM    8  N4  UNL     1      61.877   3.985  -4.335  1.00  0.00    -0.338 N 
ATOM      9  H4  UNL     1      60.874   3.821  -4.413  1.00  0.00     0.167 HD
HETATM   10  C17 UNL     1      62.836   3.325  -4.995  1.00  0.00     0.092 A 
HETATM   11  C18 UNL     1      63.148   2.321  -5.920  1.00  0.00     0.039 A 
ENDROOT
BRANCH   1  12
HETATM   12  S1  UNL     1      65.346   1.098  -7.156  1.00  0.00    -0.071 SA
BRANCH  12  13
HETATM   13  C7  UNL     1      66.009  -0.319  -6.330  1.00  0.00     0.022 A 
HETATM   14  C2  UNL     1      67.321  -0.668  -6.504  1.00  0.00     0.046 A 
HETATM   15  C3  UNL     1      67.877  -1.780  -5.872  1.00  0.00     0.018 A 
HETATM   16  C4  UNL     1      67.113  -2.565  -5.046  1.00  0.00     0.001 A 
HETATM   17  C5  UNL     1      65.791  -2.220  -4.866  1.00  0.00     0.001 A 
HETATM   18  C6  UNL     1      65.246  -1.116  -5.495  1.00  0.00     0.020 A 
BRANCH  14  19
HETATM   19  C1  UNL     1      68.192   0.112  -7.327  1.00  0.00     0.266 C 
HETATM   20  N1  UNL     1      68.871   1.241  -6.822  1.00  0.00    -0.057 NA
HETATM   21  O1  UNL     1      68.373  -0.191  -8.526  1.00  0.00    -0.271 OA
ENDBRANCH  14  19
ENDBRANCH  12  13
ENDBRANCH   1  12
BRANCH  11  22
HETATM   22  C19 UNL     1      62.163   1.507  -6.591  1.00  0.00    -0.021 A 
HETATM   23  C20 UNL     1      61.620   1.839  -7.813  1.00  0.00     0.012 A 
HETATM   24  C21 UNL     1      60.685   1.066  -8.466  1.00  0.00     0.001 A 
HETATM   25  C22 UNL     1      60.284  -0.094  -7.855  1.00  0.00     0.000 A 
HETATM   26  C23 UNL     1      60.795  -0.470  -6.637  1.00  0.00     0.001 A 
HETATM   27  C24 UNL     1      61.728   0.324  -6.008  1.00  0.00     0.012 A 
ENDBRANCH  11  22
BRANCH   7  28
HETATM   28  C11 UNL     1      61.832   5.850  -2.657  1.00  0.00     0.008 A 
HETATM   29  C12 UNL     1      61.532   7.133  -3.077  1.00  0.00     0.015 A 
HETATM   30  C13 UNL     1      60.936   8.019  -2.215  1.00  0.00     0.001 A 
HETATM   31  C14 UNL     1      60.613   7.698  -0.928  1.00  0.00     0.000 A 
HETATM   32  C15 UNL     1      60.908   6.414  -0.490  1.00  0.00     0.001 A 
HETATM   33  C16 UNL     1      61.503   5.535  -1.357  1.00  0.00     0.015 A 
ENDBRANCH   7  28
TORSDOF 5
ENDMDL
MODEL 5
REMARK VINA RESULT: -8.078487164      1.531      1.925
REMARK  5 active torsions:
REMARK  status: ('A' for Active; 'I' for Inactive)
REMARK    1  A    between atoms: C1_2  and  C2_4 
REMARK    2  A    between atoms: C7_9  and  S1_10 
REMARK    3  A    between atoms: S1_10  and  C8_11 
REMARK    4  A    between atoms: C10_17  and  C11_18 
REMARK    5  A    between atoms: C18_27  and  C19_28 
ROOT
HETATM    1  C8  UNL     1      61.407   5.369  -4.763  1.00  0.00     0.089 A 
HETATM    2  N2  UNL     1      61.521   6.600  -4.254  1.00  0.00    -0.334 N 
ATOM      3  H2  UNL     1      61.600   7.449  -4.815  1.00  0.00     0.168 HD
HETATM    4  C9  UNL     1      61.517   6.579  -2.908  1.00  0.00     0.136 A 
HETATM    5  N3  UNL     1      61.580   7.293  -1.771  1.00  0.00    -0.326 N 
ATOM      6  H3  UNL     1      61.673   8.308  -1.719  1.00  0.00     0.169 HD
HETATM    7  C10 UNL     1      61.502   6.470  -0.714  1.00  0.00     0.117 A 
HETATM    8  N4  UNL     1      61.387   5.218  -1.157  1.00  0.00    -0.338 N 
ATOM      9  H4  UNL     1      61.310   4.382  -0.579  1.00  0.00     0.167 HD
HETATM   10  C17 UNL     1      61.393   5.250  -2.495  1.00  0.00     0.092 A 
HETATM   11  C18 UNL     1      61.327   4.519  -3.689  1.00  0.00     0.039 A 
ENDROOT
BRANCH   1  12
HETATM   12  S1  UNL     1      61.377   4.871  -6.469  1.00  0.00    -0.071 SA
BRANCH  12  13
HETATM   13  C7  UNL     1      62.620   3.690  -6.904  1.00  0.00     0.022 A 
HETATM   14  C2  UNL     1      62.271   2.407  -7.226  1.00  0.00     0.046 A 
HETATM   15  C3  UNL     1      63.224   1.449  -7.571  1.00  0.00     0.018 A 
HETATM   16  C4  UNL     1      64.557   1.772  -7.598  1.00  0.00     0.001 A 
HETATM   17  C5  UNL     1      64.916   3.063  -7.276  1.00  0.00     0.001 A 
HETATM   18  C6  UNL     1      63.967   4.008  -6.935  1.00  0.00     0.020 A 
BRANCH  14  19
HETATM   19  C1  UNL     1      60.901   1.996  -7.247  1.00  0.00     0.266 C 
HETATM   20  N1  UNL     1      60.537   0.657  -7.505  1.00  0.00    -0.057 NA
HETATM   21  O1  UNL     1      59.987   2.820  -7.034  1.00  0.00    -0.271 OA
ENDBRANCH  14  19
ENDBRANCH  12  13
ENDBRANCH   1  12
BRANCH  11  22
HETATM   22  C19 UNL     1      61.191   3.084  -3.750  1.00  0.00    -0.021 A 
HETATM   23  C20 UNL     1      59.969   2.447  -3.792  1.00  0.00     0.012 A 
HETATM   24  C21 UNL     1      59.827   1.078  -3.858  1.00  0.00     0.001 A 
HETATM   25  C22 UNL     1      60.971   0.323  -3.885  1.00  0.00     0.000 A 
HETATM   26  C23 UNL     1      62.212   0.909  -3.846  1.00  0.00     0.001 A 
HETATM   27  C24 UNL     1      62.322   2.281  -3.779  1.00  0.00     0.012 A 
ENDBRANCH  11  22
BRANCH   7  28
HETATM   28  C11 UNL     1      61.541   6.936   0.665  1.00  0.00     0.008 A 
HETATM   29  C12 UNL     1      60.955   8.135   1.027  1.00  0.00     0.015 A 
HETATM   30  C13 UNL     1      61.001   8.559   2.331  1.00  0.00     0.001 A 
HETATM   31  C14 UNL     1      61.610   7.843   3.323  1.00  0.00     0.000 A 
HETATM   32  C15 UNL     1      62.202   6.637   2.975  1.00  0.00     0.001 A 
HETATM   33  C16 UNL     1      62.152   6.220   1.670  1.00  0.00     0.015 A 
ENDBRANCH   7  28
TORSDOF 5
ENDMDL
