MODEL 1
REMARK VINA RESULT: -10.452401162      0.000      0.000
REMARK  11 active torsions:
REMARK  status: ('A' for Active; 'I' for Inactive)
REMARK    1  A    between atoms: O1_2  and  C2_3 
REMARK    2  A    between atoms: C5_6  and  C6_7 
REMARK    3  A    between atoms: C7_8  and  C8_9 
REMARK    4  A    between atoms: C13_16  and  N1_17 
REMARK    5  A    between atoms: N1_17  and  C14_19 
REMARK    6  A    between atoms: C17_22  and  O2_23 
REMARK    7  A    between atoms: O2_23  and  C18_24 
REMARK    8  A    between atoms: C25_31  and  C26_32 
REMARK    9  A    between atoms: C30_38  and  O3_39 
REMARK   10  A    between atoms: O3_39  and  C31_40 
REMARK   11  A    between atoms: C31_40  and  C33_42 
ROOT
HETATM    1  C8  UNL     1      10.787  18.818  18.034  1.00  0.00    -0.014 A 
HETATM    2  C9  UNL     1      10.175  18.271  16.883  1.00  0.00     0.028 A 
HETATM    3  C10 UNL     1       9.079  17.459  16.908  1.00  0.00     0.018 A 
HETATM    4  C11 UNL     1       8.519  16.951  15.729  1.00  0.00     0.168 A 
HETATM    5  F1  UNL     1       9.088  17.277  14.545  1.00  0.00    -0.202 F 
HETATM    6  C12 UNL     1       7.413  16.137  15.766  1.00  0.00     0.181 A 
HETATM    7  F2  UNL     1       6.840  15.625  14.655  1.00  0.00    -0.200 F 
HETATM    8  C13 UNL     1       6.832  15.805  16.994  1.00  0.00     0.071 A 
HETATM    9  C23 UNL     1       7.407  16.320  18.114  1.00  0.00     0.045 A 
HETATM   10  C24 UNL     1       8.520  17.141  18.116  1.00  0.00    -0.012 A 
HETATM   11  C25 UNL     1       9.081  17.653  19.260  1.00  0.00    -0.012 A 
HETATM   12  C27 UNL     1      10.212  18.491  19.214  1.00  0.00     0.063 A 
HETATM   13  C28 UNL     1      10.660  19.007  20.468  1.00  0.00     0.101 C 
HETATM   14  N2  UNL     1      10.987  19.430  21.488  1.00  0.00    -0.191 NA
ENDROOT
BRANCH   1  15
HETATM   15  C7  UNL     1      11.920  19.688  17.842  1.00  0.00     0.014 C 
HETATM   16  C6  UNL     1      12.037  20.948  17.662  1.00  0.00     0.012 C 
BRANCH  16  17
HETATM   17  C5  UNL     1      13.382  21.558  17.488  1.00  0.00    -0.033 A 
HETATM   18  C4  UNL     1      14.070  21.587  16.322  1.00  0.00     0.014 A 
HETATM   19  C3  UNL     1      15.329  22.200  16.256  1.00  0.00     0.040 A 
HETATM   20  C2  UNL     1      15.914  22.791  17.338  1.00  0.00     0.101 A 
HETATM   21  C30 UNL     1      15.219  22.768  18.545  1.00  0.00     0.104 A 
HETATM   22  C29 UNL     1      13.995  22.166  18.589  1.00  0.00     0.051 A 
BRANCH  20  23
HETATM   23  O1  UNL     1      17.145  23.403  17.316  1.00  0.00    -0.353 OA
HETATM   24  C1  UNL     1      17.900  23.594  16.138  1.00  0.00     0.210 C 
ENDBRANCH  20  23
BRANCH  21  25
HETATM   25  O3  UNL     1      15.807  23.360  19.628  1.00  0.00    -0.333 OA
BRANCH  25  26
HETATM   26  C31 UNL     1      15.629  24.646  20.118  1.00  0.00     0.225 C 
HETATM   27  C32 UNL     1      14.410  24.617  21.054  1.00  0.00     0.052 C 
BRANCH  26  28
HETATM   28  C33 UNL     1      16.827  25.102  20.912  1.00  0.00     0.203 C 
HETATM   29  O4  UNL     1      16.678  25.719  21.992  1.00  0.00    -0.646 OA
HETATM   30  O5  UNL     1      18.111  24.849  20.467  1.00  0.00    -0.646 OA
ENDBRANCH  26  28
ENDBRANCH  25  26
ENDBRANCH  21  25
ENDBRANCH  16  17
ENDBRANCH   1  15
BRANCH  11  31
HETATM   31  C26 UNL     1       8.474  17.309  20.574  1.00  0.00     0.155 C 
HETATM   32 CL1  UNL     1       7.233  18.506  21.033  1.00  0.00    -0.125 Cl
ENDBRANCH  11  31
BRANCH   8  33
HETATM   33  N1  UNL     1       5.682  14.988  17.056  1.00  0.00    -0.383 N 
ATOM     34  H1  UNL     1       5.783  13.974  17.007  1.00  0.00     0.160 HD
BRANCH  33  35
HETATM   35  C14 UNL     1       4.378  15.559  17.187  1.00  0.00     0.082 C 
HETATM   36  C15 UNL     1       3.704  15.626  15.806  1.00  0.00     0.027 C 
HETATM   37  C16 UNL     1       2.383  16.332  16.014  1.00  0.00     0.034 C 
HETATM   38  C17 UNL     1       1.419  15.530  16.865  1.00  0.00     0.122 C 
HETATM   39  C21 UNL     1       2.204  14.276  17.286  1.00  0.00     0.034 C 
HETATM   40  C22 UNL     1       3.461  14.681  18.029  1.00  0.00     0.027 C 
BRANCH  38  41
HETATM   41  O2  UNL     1       1.080  16.170  18.023  1.00  0.00    -0.381 OA
BRANCH  41  42
HETATM   42  C18 UNL     1       1.001  17.514  18.045  1.00  0.00     0.113 C 
HETATM   43  C19 UNL     1      -0.442  17.907  18.381  1.00  0.00     0.039 C 
HETATM   44  C20 UNL     1       1.874  18.218  19.040  1.00  0.00     0.039 C 
ENDBRANCH  41  42
ENDBRANCH  38  41
ENDBRANCH  33  35
ENDBRANCH   8  33
TORSDOF 11
ENDMDL
MODEL 2
REMARK VINA RESULT: -10.099886595      1.511      3.061
REMARK  11 active torsions:
REMARK  status: ('A' for Active; 'I' for Inactive)
REMARK    1  A    between atoms: O1_2  and  C2_3 
REMARK    2  A    between atoms: C5_6  and  C6_7 
REMARK    3  A    between atoms: C7_8  and  C8_9 
REMARK    4  A    between atoms: C13_16  and  N1_17 
REMARK    5  A    between atoms: N1_17  and  C14_19 
REMARK    6  A    between atoms: C17_22  and  O2_23 
REMARK    7  A    between atoms: O2_23  and  C18_24 
REMARK    8  A    between atoms: C25_31  and  C26_32 
REMARK    9  A    between atoms: C30_38  and  O3_39 
REMARK   10  A    between atoms: O3_39  and  C31_40 
REMARK   11  A    between atoms: C31_40  and  C33_42 
ROOT
HETATM    1  C8  UNL     1      11.687  19.251  18.342  1.00  0.00    -0.014 A 
HETATM    2  C9  UNL     1      11.514  18.626  17.086  1.00  0.00     0.028 A 
HETATM    3  C10 UNL     1      10.555  17.693  16.818  1.00  0.00     0.018 A 
HETATM    4  C11 UNL     1      10.435  17.113  15.549  1.00  0.00     0.168 A 
HETATM    5  F1  UNL     1      11.298  17.491  14.576  1.00  0.00    -0.202 F 
HETATM    6  C12 UNL     1       9.464  16.178  15.289  1.00  0.00     0.181 A 
HETATM    7  F2  UNL     1       9.311  15.593  14.081  1.00  0.00    -0.200 F 
HETATM    8  C13 UNL     1       8.577  15.793  16.300  1.00  0.00     0.071 A 
HETATM    9  C23 UNL     1       8.729  16.381  17.517  1.00  0.00     0.045 A 
HETATM   10  C24 UNL     1       9.694  17.325  17.816  1.00  0.00    -0.012 A 
HETATM   11  C25 UNL     1       9.826  17.909  19.052  1.00  0.00    -0.012 A 
HETATM   12  C27 UNL     1      10.820  18.871  19.310  1.00  0.00     0.063 A 
HETATM   13  C28 UNL     1      10.811  19.447  20.616  1.00  0.00     0.101 C 
HETATM   14  N2  UNL     1      10.766  19.914  21.668  1.00  0.00    -0.191 NA
ENDROOT
BRANCH   1  15
HETATM   15  C7  UNL     1      12.725  20.243  18.460  1.00  0.00     0.014 C 
HETATM   16  C6  UNL     1      13.110  21.203  17.708  1.00  0.00     0.012 C 
BRANCH  16  17
HETATM   17  C5  UNL     1      14.245  22.070  18.122  1.00  0.00    -0.033 A 
HETATM   18  C4  UNL     1      14.382  22.625  19.350  1.00  0.00     0.014 A 
HETATM   19  C3  UNL     1      15.500  23.417  19.649  1.00  0.00     0.040 A 
HETATM   20  C2  UNL     1      16.488  23.665  18.741  1.00  0.00     0.101 A 
HETATM   21  C30 UNL     1      16.360  23.101  17.474  1.00  0.00     0.104 A 
HETATM   22  C29 UNL     1      15.265  22.333  17.201  1.00  0.00     0.051 A 
BRANCH  20  23
HETATM   23  O1  UNL     1      17.599  24.434  18.994  1.00  0.00    -0.353 OA
HETATM   24  C1  UNL     1      17.757  25.217  20.159  1.00  0.00     0.210 C 
ENDBRANCH  20  23
BRANCH  21  25
HETATM   25  O3  UNL     1      17.350  23.350  16.565  1.00  0.00    -0.333 OA
BRANCH  25  26
HETATM   26  C31 UNL     1      17.601  22.715  15.357  1.00  0.00     0.225 C 
HETATM   27  C32 UNL     1      16.908  23.532  14.255  1.00  0.00     0.052 C 
BRANCH  26  28
HETATM   28  C33 UNL     1      19.077  22.667  15.057  1.00  0.00     0.203 C 
HETATM   29  O4  UNL     1      19.502  22.928  13.907  1.00  0.00    -0.646 OA
HETATM   30  O5  UNL     1      19.991  22.336  16.039  1.00  0.00    -0.646 OA
ENDBRANCH  26  28
ENDBRANCH  25  26
ENDBRANCH  21  25
ENDBRANCH  16  17
ENDBRANCH   1  15
BRANCH  11  31
HETATM   31  C26 UNL     1       8.890  17.509  20.137  1.00  0.00     0.155 C 
HETATM   32 CL1  UNL     1       7.419  18.520  20.112  1.00  0.00    -0.125 Cl
ENDBRANCH  11  31
BRANCH   8  33
HETATM   33  N1  UNL     1       7.557  14.849  16.051  1.00  0.00    -0.383 N 
ATOM     34  H1  UNL     1       7.788  13.856  16.022  1.00  0.00     0.160 HD
BRANCH  33  35
HETATM   35  C14 UNL     1       6.205  15.264  15.839  1.00  0.00     0.082 C 
HETATM   36  C15 UNL     1       5.318  14.029  15.608  1.00  0.00     0.027 C 
HETATM   37  C16 UNL     1       3.936  14.555  15.290  1.00  0.00     0.034 C 
HETATM   38  C17 UNL     1       3.295  15.264  16.466  1.00  0.00     0.122 C 
HETATM   39  C21 UNL     1       4.366  15.257  17.571  1.00  0.00     0.034 C 
HETATM   40  C22 UNL     1       5.624  15.940  17.074  1.00  0.00     0.027 C 
BRANCH  38  41
HETATM   41  O2  UNL     1       3.030  16.579  16.207  1.00  0.00    -0.381 OA
BRANCH  41  42
HETATM   42  C18 UNL     1       1.880  17.127  16.645  1.00  0.00     0.113 C 
HETATM   43  C19 UNL     1       0.829  16.017  16.755  1.00  0.00     0.039 C 
HETATM   44  C20 UNL     1       1.929  17.798  17.985  1.00  0.00     0.039 C 
ENDBRANCH  41  42
ENDBRANCH  38  41
ENDBRANCH  33  35
ENDBRANCH   8  33
TORSDOF 11
ENDMDL
MODEL 3
REMARK VINA RESULT: -10.017058723      2.271      2.780
REMARK  11 active torsions:
REMARK  status: ('A' for Active; 'I' for Inactive)
REMARK    1  A    between atoms: O1_2  and  C2_3 
REMARK    2  A    between atoms: C5_6  and  C6_7 
REMARK    3  A    between atoms: C7_8  and  C8_9 
REMARK    4  A    between atoms: C13_16  and  N1_17 
REMARK    5  A    between atoms: N1_17  and  C14_19 
REMARK    6  A    between atoms: C17_22  and  O2_23 
REMARK    7  A    between atoms: O2_23  and  C18_24 
REMARK    8  A    between atoms: C25_31  and  C26_32 
REMARK    9  A    between atoms: C30_38  and  O3_39 
REMARK   10  A    between atoms: O3_39  and  C31_40 
REMARK   11  A    between atoms: C31_40  and  C33_42 
ROOT
HETATM    1  C8  UNL     1      10.861  18.718  17.261  1.00  0.00    -0.014 A 
HETATM    2  C9  UNL     1       9.906  18.862  18.293  1.00  0.00     0.028 A 
HETATM    3  C10 UNL     1       8.806  18.068  18.437  1.00  0.00     0.018 A 
HETATM    4  C11 UNL     1       7.898  18.261  19.486  1.00  0.00     0.168 A 
HETATM    5  F1  UNL     1       8.125  19.264  20.367  1.00  0.00    -0.202 F 
HETATM    6  C12 UNL     1       6.796  17.454  19.624  1.00  0.00     0.181 A 
HETATM    7  F2  UNL     1       5.895  17.604  20.619  1.00  0.00    -0.200 F 
HETATM    8  C13 UNL     1       6.569  16.420  18.709  1.00  0.00     0.071 A 
HETATM    9  C23 UNL     1       7.475  16.267  17.707  1.00  0.00     0.045 A 
HETATM   10  C24 UNL     1       8.595  17.060  17.536  1.00  0.00    -0.012 A 
HETATM   11  C25 UNL     1       9.500  16.884  16.518  1.00  0.00    -0.012 A 
HETATM   12  C27 UNL     1      10.630  17.712  16.385  1.00  0.00     0.063 A 
HETATM   13  C28 UNL     1      11.526  17.385  15.322  1.00  0.00     0.101 C 
HETATM   14  N2  UNL     1      12.244  17.085  14.473  1.00  0.00    -0.191 NA
ENDROOT
BRANCH   1  15
HETATM   15  C7  UNL     1      11.990  19.614  17.262  1.00  0.00     0.014 C 
HETATM   16  C6  UNL     1      12.145  20.828  17.634  1.00  0.00     0.012 C 
BRANCH  16  17
HETATM   17  C5  UNL     1      13.470  21.489  17.497  1.00  0.00    -0.033 A 
HETATM   18  C4  UNL     1      14.179  21.563  16.346  1.00  0.00     0.014 A 
HETATM   19  C3  UNL     1      15.415  22.224  16.315  1.00  0.00     0.040 A 
HETATM   20  C2  UNL     1      15.958  22.815  17.419  1.00  0.00     0.101 A 
HETATM   21  C30 UNL     1      15.241  22.746  18.611  1.00  0.00     0.104 A 
HETATM   22  C29 UNL     1      14.039  22.099  18.620  1.00  0.00     0.051 A 
BRANCH  20  23
HETATM   23  O1  UNL     1      17.166  23.472  17.431  1.00  0.00    -0.353 OA
HETATM   24  C1  UNL     1      17.960  23.667  16.279  1.00  0.00     0.210 C 
ENDBRANCH  20  23
BRANCH  21  25
HETATM   25  O3  UNL     1      15.786  23.338  19.715  1.00  0.00    -0.333 OA
BRANCH  25  26
HETATM   26  C31 UNL     1      15.581  24.622  20.203  1.00  0.00     0.225 C 
HETATM   27  C32 UNL     1      14.377  24.563  21.157  1.00  0.00     0.052 C 
BRANCH  26  28
HETATM   28  C33 UNL     1      16.777  25.113  20.977  1.00  0.00     0.203 C 
HETATM   29  O4  UNL     1      16.630  25.690  22.079  1.00  0.00    -0.646 OA
HETATM   30  O5  UNL     1      18.059  24.938  20.488  1.00  0.00    -0.646 OA
ENDBRANCH  26  28
ENDBRANCH  25  26
ENDBRANCH  21  25
ENDBRANCH  16  17
ENDBRANCH   1  15
BRANCH  11  31
HETATM   31  C26 UNL     1       9.272  15.789  15.537  1.00  0.00     0.155 C 
HETATM   32 CL1  UNL     1       8.071  16.276  14.309  1.00  0.00    -0.125 Cl
ENDBRANCH  11  31
BRANCH   8  33
HETATM   33  N1  UNL     1       5.455  15.564  18.843  1.00  0.00    -0.383 N 
ATOM     34  H1  UNL     1       5.485  14.803  19.522  1.00  0.00     0.160 HD
BRANCH  33  35
HETATM   35  C14 UNL     1       4.285  15.744  18.041  1.00  0.00     0.082 C 
HETATM   36  C15 UNL     1       4.659  15.635  16.553  1.00  0.00     0.027 C 
HETATM   37  C16 UNL     1       3.397  15.938  15.776  1.00  0.00     0.034 C 
HETATM   38  C17 UNL     1       2.322  14.889  15.973  1.00  0.00     0.122 C 
HETATM   39  C21 UNL     1       2.908  13.901  16.996  1.00  0.00     0.034 C 
HETATM   40  C22 UNL     1       3.267  14.634  18.273  1.00  0.00     0.027 C 
BRANCH  38  41
HETATM   41  O2  UNL     1       1.189  15.395  16.543  1.00  0.00    -0.381 OA
BRANCH  41  42
HETATM   42  C18 UNL     1       0.938  16.716  16.471  1.00  0.00     0.113 C 
HETATM   43  C19 UNL     1      -0.375  16.915  15.705  1.00  0.00     0.039 C 
HETATM   44  C20 UNL     1       0.780  17.438  17.775  1.00  0.00     0.039 C 
ENDBRANCH  41  42
ENDBRANCH  38  41
ENDBRANCH  33  35
ENDBRANCH   8  33
TORSDOF 11
ENDMDL
MODEL 4
REMARK VINA RESULT: -9.948085300      1.499      2.994
REMARK  11 active torsions:
REMARK  status: ('A' for Active; 'I' for Inactive)
REMARK    1  A    between atoms: O1_2  and  C2_3 
REMARK    2  A    between atoms: C5_6  and  C6_7 
REMARK    3  A    between atoms: C7_8  and  C8_9 
REMARK    4  A    between atoms: C13_16  and  N1_17 
REMARK    5  A    between atoms: N1_17  and  C14_19 
REMARK    6  A    between atoms: C17_22  and  O2_23 
REMARK    7  A    between atoms: O2_23  and  C18_24 
REMARK    8  A    between atoms: C25_31  and  C26_32 
REMARK    9  A    between atoms: C30_38  and  O3_39 
REMARK   10  A    between atoms: O3_39  and  C31_40 
REMARK   11  A    between atoms: C31_40  and  C33_42 
ROOT
HETATM    1  C8  UNL     1      11.393  19.162  18.327  1.00  0.00    -0.014 A 
HETATM    2  C9  UNL     1      11.268  18.529  17.069  1.00  0.00     0.028 A 
HETATM    3  C10 UNL     1      10.325  17.590  16.772  1.00  0.00     0.018 A 
HETATM    4  C11 UNL     1      10.253  17.002  15.503  1.00  0.00     0.168 A 
HETATM    5  F1  UNL     1      11.147  17.380  14.559  1.00  0.00    -0.202 F 
HETATM    6  C12 UNL     1       9.297  16.060  15.214  1.00  0.00     0.181 A 
HETATM    7  F2  UNL     1       9.190  15.467  14.005  1.00  0.00    -0.200 F 
HETATM    8  C13 UNL     1       8.377  15.674  16.195  1.00  0.00     0.071 A 
HETATM    9  C23 UNL     1       8.482  16.270  17.413  1.00  0.00     0.045 A 
HETATM   10  C24 UNL     1       9.431  17.221  17.741  1.00  0.00    -0.012 A 
HETATM   11  C25 UNL     1       9.515  17.813  18.977  1.00  0.00    -0.012 A 
HETATM   12  C27 UNL     1      10.495  18.782  19.265  1.00  0.00     0.063 A 
HETATM   13  C28 UNL     1      10.436  19.365  20.567  1.00  0.00     0.101 C 
HETATM   14  N2  UNL     1      10.352  19.838  21.614  1.00  0.00    -0.191 NA
ENDROOT
BRANCH   1  15
HETATM   15  C7  UNL     1      12.420  20.161  18.476  1.00  0.00     0.014 C 
HETATM   16  C6  UNL     1      12.952  20.999  17.669  1.00  0.00     0.012 C 
BRANCH  16  17
HETATM   17  C5  UNL     1      14.022  21.918  18.142  1.00  0.00    -0.033 A 
HETATM   18  C4  UNL     1      14.075  22.467  19.379  1.00  0.00     0.014 A 
HETATM   19  C3  UNL     1      15.135  23.311  19.735  1.00  0.00     0.040 A 
HETATM   20  C2  UNL     1      16.149  23.618  18.875  1.00  0.00     0.101 A 
HETATM   21  C30 UNL     1      16.108  23.061  17.599  1.00  0.00     0.104 A 
HETATM   22  C29 UNL     1      15.067  22.242  17.270  1.00  0.00     0.051 A 
BRANCH  20  23
HETATM   23  O1  UNL     1      17.207  24.440  19.184  1.00  0.00    -0.353 OA
HETATM   24  C1  UNL     1      17.395  25.024  20.457  1.00  0.00     0.210 C 
ENDBRANCH  20  23
BRANCH  21  25
HETATM   25  O3  UNL     1      17.125  23.370  16.738  1.00  0.00    -0.333 OA
BRANCH  25  26
HETATM   26  C31 UNL     1      17.488  22.733  15.560  1.00  0.00     0.225 C 
HETATM   27  C32 UNL     1      16.797  23.475  14.405  1.00  0.00     0.052 C 
BRANCH  26  28
HETATM   28  C33 UNL     1      18.978  22.794  15.340  1.00  0.00     0.203 C 
HETATM   29  O4  UNL     1      19.722  23.365  16.172  1.00  0.00    -0.646 OA
HETATM   30  O5  UNL     1      19.554  22.225  14.220  1.00  0.00    -0.646 OA
ENDBRANCH  26  28
ENDBRANCH  25  26
ENDBRANCH  21  25
ENDBRANCH  16  17
ENDBRANCH   1  15
BRANCH  11  31
HETATM   31  C26 UNL     1       8.544  17.414  20.032  1.00  0.00     0.155 C 
HETATM   32 CL1  UNL     1       7.085  18.440  19.973  1.00  0.00    -0.125 Cl
ENDBRANCH  11  31
BRANCH   8  33
HETATM   33  N1  UNL     1       7.372  14.724  15.916  1.00  0.00    -0.383 N 
ATOM     34  H1  UNL     1       7.594  13.913  15.337  1.00  0.00     0.160 HD
BRANCH  33  35
HETATM   35  C14 UNL     1       6.047  14.879  16.430  1.00  0.00     0.082 C 
HETATM   36  C15 UNL     1       5.394  16.124  15.806  1.00  0.00     0.027 C 
HETATM   37  C16 UNL     1       4.046  16.275  16.474  1.00  0.00     0.034 C 
HETATM   38  C17 UNL     1       3.096  15.144  16.138  1.00  0.00     0.122 C 
HETATM   39  C21 UNL     1       3.916  14.177  15.266  1.00  0.00     0.034 C 
HETATM   40  C22 UNL     1       5.147  13.719  16.024  1.00  0.00     0.027 C 
BRANCH  38  41
HETATM   41  O2  UNL     1       2.716  14.430  17.239  1.00  0.00    -0.381 OA
BRANCH  41  42
HETATM   42  C18 UNL     1       1.991  15.027  18.204  1.00  0.00     0.113 C 
HETATM   43  C19 UNL     1       0.630  15.414  17.614  1.00  0.00     0.039 C 
HETATM   44  C20 UNL     1       1.704  14.208  19.427  1.00  0.00     0.039 C 
ENDBRANCH  41  42
ENDBRANCH  38  41
ENDBRANCH  33  35
ENDBRANCH   8  33
TORSDOF 11
ENDMDL
MODEL 5
REMARK VINA RESULT: -9.856009253      5.376     13.771
REMARK  11 active torsions:
REMARK  status: ('A' for Active; 'I' for Inactive)
REMARK    1  A    between atoms: O1_2  and  C2_3 
REMARK    2  A    between atoms: C5_6  and  C6_7 
REMARK    3  A    between atoms: C7_8  and  C8_9 
REMARK    4  A    between atoms: C13_16  and  N1_17 
REMARK    5  A    between atoms: N1_17  and  C14_19 
REMARK    6  A    between atoms: C17_22  and  O2_23 
REMARK    7  A    between atoms: O2_23  and  C18_24 
REMARK    8  A    between atoms: C25_31  and  C26_32 
REMARK    9  A    between atoms: C30_38  and  O3_39 
REMARK   10  A    between atoms: O3_39  and  C31_40 
REMARK   11  A    between atoms: C31_40  and  C33_42 
ROOT
HETATM    1  C8  UNL     1      14.120  21.615  18.660  1.00  0.00    -0.014 A 
HETATM    2  C9  UNL     1      14.431  22.585  19.639  1.00  0.00     0.028 A 
HETATM    3  C10 UNL     1      15.456  23.480  19.535  1.00  0.00     0.018 A 
HETATM    4  C11 UNL     1      15.711  24.420  20.541  1.00  0.00     0.168 A 
HETATM    5  F1  UNL     1      14.919  24.430  21.639  1.00  0.00    -0.202 F 
HETATM    6  C12 UNL     1      16.743  25.318  20.424  1.00  0.00     0.181 A 
HETATM    7  F2  UNL     1      17.025  26.242  21.368  1.00  0.00    -0.200 F 
HETATM    8  C13 UNL     1      17.558  25.301  19.287  1.00  0.00     0.071 A 
HETATM    9  C23 UNL     1      17.275  24.372  18.334  1.00  0.00     0.045 A 
HETATM   10  C24 UNL     1      16.246  23.453  18.417  1.00  0.00    -0.012 A 
HETATM   11  C25 UNL     1      15.977  22.526  17.440  1.00  0.00    -0.012 A 
HETATM   12  C27 UNL     1      14.914  21.612  17.564  1.00  0.00     0.063 A 
HETATM   13  C28 UNL     1      14.701  20.743  16.452  1.00  0.00     0.101 C 
HETATM   14  N2  UNL     1      14.535  20.071  15.531  1.00  0.00    -0.191 NA
ENDROOT
BRANCH   1  15
HETATM   15  C7  UNL     1      12.983  20.762  18.900  1.00  0.00     0.014 C 
HETATM   16  C6  UNL     1      12.396  20.361  19.963  1.00  0.00     0.012 C 
BRANCH  16  17
HETATM   17  C5  UNL     1      11.218  19.458  19.873  1.00  0.00    -0.033 A 
HETATM   18  C4  UNL     1      10.222  19.398  20.789  1.00  0.00     0.014 A 
HETATM   19  C3  UNL     1       9.142  18.523  20.606  1.00  0.00     0.040 A 
HETATM   20  C2  UNL     1       9.039  17.703  19.519  1.00  0.00     0.101 A 
HETATM   21  C30 UNL     1      10.056  17.754  18.570  1.00  0.00     0.104 A 
HETATM   22  C29 UNL     1      11.099  18.612  18.766  1.00  0.00     0.051 A 
BRANCH  20  23
HETATM   23  O1  UNL     1       7.998  16.831  19.302  1.00  0.00    -0.353 OA
HETATM   24  C1  UNL     1       6.679  17.063  19.753  1.00  0.00     0.210 C 
ENDBRANCH  20  23
BRANCH  21  25
HETATM   25  O3  UNL     1       9.951  16.932  17.482  1.00  0.00    -0.333 OA
BRANCH  25  26
HETATM   26  C31 UNL     1       9.602  17.257  16.179  1.00  0.00     0.225 C 
HETATM   27  C32 UNL     1      10.905  17.426  15.382  1.00  0.00     0.052 C 
BRANCH  26  28
HETATM   28  C33 UNL     1       8.792  16.160  15.538  1.00  0.00     0.203 C 
HETATM   29  O4  UNL     1       7.808  16.436  14.812  1.00  0.00    -0.646 OA
HETATM   30  O5  UNL     1       9.114  14.831  15.736  1.00  0.00    -0.646 OA
ENDBRANCH  26  28
ENDBRANCH  25  26
ENDBRANCH  21  25
ENDBRANCH  16  17
ENDBRANCH   1  15
BRANCH  11  31
HETATM   31  C26 UNL     1      16.834  22.495  16.225  1.00  0.00     0.155 C 
HETATM   32 CL1  UNL     1      16.095  23.438  14.901  1.00  0.00    -0.125 Cl
ENDBRANCH  11  31
BRANCH   8  33
HETATM   33  N1  UNL     1      18.611  26.228  19.134  1.00  0.00    -0.383 N 
ATOM     34  H1  UNL     1      19.459  26.121  19.690  1.00  0.00     0.160 HD
BRANCH  33  35
HETATM   35  C14 UNL     1      18.509  27.315  18.211  1.00  0.00     0.082 C 
HETATM   36  C15 UNL     1      19.601  28.354  18.514  1.00  0.00     0.027 C 
HETATM   37  C16 UNL     1      19.361  29.510  17.569  1.00  0.00     0.034 C 
HETATM   38  C17 UNL     1      19.588  29.137  16.119  1.00  0.00     0.122 C 
HETATM   39  C21 UNL     1      19.918  27.634  16.137  1.00  0.00     0.034 C 
HETATM   40  C22 UNL     1      18.780  26.866  16.780  1.00  0.00     0.027 C 
BRANCH  38  41
HETATM   41  O2  UNL     1      18.461  29.267  15.358  1.00  0.00    -0.381 OA
BRANCH  41  42
HETATM   42  C18 UNL     1      18.540  29.836  14.140  1.00  0.00     0.113 C 
HETATM   43  C19 UNL     1      19.888  30.558  14.032  1.00  0.00     0.039 C 
HETATM   44  C20 UNL     1      18.461  28.910  12.963  1.00  0.00     0.039 C 
ENDBRANCH  41  42
ENDBRANCH  38  41
ENDBRANCH  33  35
ENDBRANCH   8  33
TORSDOF 11
ENDMDL
