MODEL 1
REMARK VINA RESULT: -10.165335545      0.000      0.000
REMARK  12 active torsions:
REMARK  status: ('A' for Active; 'I' for Inactive)
REMARK    1  A    between atoms: O1_2  and  C2_3 
REMARK    2  A    between atoms: C5_7  and  N1_8 
REMARK       I    between atoms: N1_8  and  C6_9 
REMARK    3  A    between atoms: C6_9  and  C7_11 
REMARK    4  A    between atoms: C7_11  and  O3_12 
REMARK    5  A    between atoms: O3_12  and  C8_13 
REMARK    6  A    between atoms: C11_16  and  C12_17 
REMARK    7  A    between atoms: C13_18  and  C14_19 
REMARK    8  A    between atoms: C14_19  and  C15_21 
REMARK    9  A    between atoms: C16_22  and  C17_23 
REMARK   10  A    between atoms: C22_30  and  O5_31 
REMARK   11  A    between atoms: C26_36  and  O6_37 
REMARK   12  A    between atoms: C28_39  and  O7_40 
ROOT
HETATM    1  C8  UNL     1      11.777  18.698  17.431  1.00  0.00     0.070 A 
HETATM    2  C9  UNL     1      10.421  18.774  17.713  1.00  0.00     0.037 A 
HETATM    3  C10 UNL     1       9.474  18.182  16.891  1.00  0.00     0.014 A 
HETATM    4  C11 UNL     1       9.841  17.508  15.780  1.00  0.00    -0.030 A 
HETATM    5  C23 UNL     1      11.208  17.428  15.490  1.00  0.00    -0.049 A 
HETATM    6  C24 UNL     1      11.620  16.692  14.266  1.00  0.00     0.049 C 
HETATM    7  C25 UNL     1      12.130  18.010  16.300  1.00  0.00     0.044 A 
ENDROOT
BRANCH   1   8
HETATM    8  O3  UNL     1      12.651  19.304  18.284  1.00  0.00    -0.341 OA
BRANCH   8   9
HETATM    9  C7  UNL     1      12.583  20.544  18.896  1.00  0.00     0.294 C 
BRANCH   9  10
HETATM   10  C6  UNL     1      12.701  21.643  17.841  1.00  0.00     0.316 C 
HETATM   11  N1  UNL     1      13.915  22.138  17.640  1.00  0.00    -0.364 NA
HETATM   12  O2  UNL     1      11.594  21.976  17.257  1.00  0.00    -0.255 OA
BRANCH  11  13
HETATM   13  C5  UNL     1      15.161  22.645  17.433  1.00  0.00     0.169 A 
HETATM   14  C4  UNL     1      15.785  22.664  16.178  1.00  0.00     0.080 A 
HETATM   15  C3  UNL     1      17.027  23.221  16.045  1.00  0.00     0.067 A 
HETATM   16 CL1  UNL     1      14.967  21.972  14.788  1.00  0.00    -0.081 Cl
HETATM   17  C2  UNL     1      17.720  23.777  17.096  1.00  0.00     0.106 A 
HETATM   18  C28 UNL     1      17.124  23.766  18.338  1.00  0.00     0.138 A 
HETATM   19  C26 UNL     1      15.884  23.218  18.499  1.00  0.00     0.147 A 
BRANCH  17  20
HETATM   20  O1  UNL     1      18.980  24.334  16.928  1.00  0.00    -0.353 OA
HETATM   21  C1  UNL     1      19.063  25.578  16.219  1.00  0.00     0.210 C 
ENDBRANCH  17  20
BRANCH  18  22
HETATM   22  O7  UNL     1      17.829  24.331  19.406  1.00  0.00    -0.351 OA
HETATM   23  C29 UNL     1      17.769  25.691  19.715  1.00  0.00     0.210 C 
ENDBRANCH  18  22
BRANCH  19  24
HETATM   24  O6  UNL     1      15.261  23.194  19.740  1.00  0.00    -0.350 OA
HETATM   25  C27 UNL     1      14.494  24.247  20.258  1.00  0.00     0.210 C 
ENDBRANCH  19  24
ENDBRANCH  11  13
ENDBRANCH   9  10
ENDBRANCH   8   9
ENDBRANCH   1   8
BRANCH   4  26
HETATM   26  C12 UNL     1       8.898  16.952  14.852  1.00  0.00     0.016 C 
HETATM   27  C13 UNL     1       7.922  16.120  14.865  1.00  0.00     0.055 C 
BRANCH  27  28
HETATM   28  C14 UNL     1       7.287  15.340  15.861  1.00  0.00     0.172 C 
HETATM   29  O4  UNL     1       7.161  14.083  15.736  1.00  0.00    -0.289 OA
BRANCH  28  30
HETATM   30  C15 UNL     1       6.732  15.930  17.095  1.00  0.00     0.055 C 
HETATM   31  C16 UNL     1       7.380  15.961  18.219  1.00  0.00     0.018 C 
BRANCH  31  32
HETATM   32  C17 UNL     1       6.828  16.547  19.451  1.00  0.00    -0.001 A 
HETATM   33  C18 UNL     1       5.791  17.430  19.407  1.00  0.00     0.040 A 
HETATM   34  C19 UNL     1       5.294  17.992  20.569  1.00  0.00     0.056 A 
HETATM   35 CL2  UNL     1       3.963  19.127  20.516  1.00  0.00    -0.083 Cl
HETATM   36  C20 UNL     1       5.847  17.663  21.803  1.00  0.00     0.058 A 
HETATM   37 CL3  UNL     1       5.233  18.369  23.289  1.00  0.00    -0.082 Cl
HETATM   38  C21 UNL     1       6.876  16.786  21.856  1.00  0.00     0.063 A 
HETATM   39  C22 UNL     1       7.370  16.225  20.673  1.00  0.00     0.077 A 
BRANCH  39  40
HETATM   40  O5  UNL     1       8.419  15.341  20.813  1.00  0.00    -0.360 OA
ATOM     41  H5  UNL     1       8.468  14.523  20.333  1.00  0.00     0.217 HD
ENDBRANCH  39  40
ENDBRANCH  31  32
ENDBRANCH  28  30
ENDBRANCH  27  28
ENDBRANCH   4  26
TORSDOF 12
ENDMDL
MODEL 2
REMARK VINA RESULT: -10.122545008      3.044     11.055
REMARK  12 active torsions:
REMARK  status: ('A' for Active; 'I' for Inactive)
REMARK    1  A    between atoms: O1_2  and  C2_3 
REMARK    2  A    between atoms: C5_7  and  N1_8 
REMARK       I    between atoms: N1_8  and  C6_9 
REMARK    3  A    between atoms: C6_9  and  C7_11 
REMARK    4  A    between atoms: C7_11  and  O3_12 
REMARK    5  A    between atoms: O3_12  and  C8_13 
REMARK    6  A    between atoms: C11_16  and  C12_17 
REMARK    7  A    between atoms: C13_18  and  C14_19 
REMARK    8  A    between atoms: C14_19  and  C15_21 
REMARK    9  A    between atoms: C16_22  and  C17_23 
REMARK   10  A    between atoms: C22_30  and  O5_31 
REMARK   11  A    between atoms: C26_36  and  O6_37 
REMARK   12  A    between atoms: C28_39  and  O7_40 
ROOT
HETATM    1  C8  UNL     1      15.697  21.676  15.852  1.00  0.00     0.070 A 
HETATM    2  C9  UNL     1      15.135  22.694  15.098  1.00  0.00     0.037 A 
HETATM    3  C10 UNL     1      15.898  23.461  14.230  1.00  0.00     0.014 A 
HETATM    4  C11 UNL     1      17.223  23.245  14.092  1.00  0.00    -0.030 A 
HETATM    5  C23 UNL     1      17.797  22.218  14.851  1.00  0.00    -0.049 A 
HETATM    6  C24 UNL     1      19.256  21.976  14.708  1.00  0.00     0.049 C 
HETATM    7  C25 UNL     1      17.043  21.470  15.698  1.00  0.00     0.044 A 
ENDROOT
BRANCH   1   8
HETATM    8  O3  UNL     1      14.886  20.962  16.685  1.00  0.00    -0.341 OA
BRANCH   8   9
HETATM    9  C7  UNL     1      13.889  20.048  16.387  1.00  0.00     0.294 C 
BRANCH   9  10
HETATM   10  C6  UNL     1      12.577  20.495  17.031  1.00  0.00     0.316 C 
HETATM   11  N1  UNL     1      11.660  19.554  17.211  1.00  0.00    -0.364 NA
HETATM   12  O2  UNL     1      12.503  21.753  17.329  1.00  0.00    -0.255 OA
BRANCH  11  13
HETATM   13  C5  UNL     1      10.719  18.588  17.396  1.00  0.00     0.169 A 
HETATM   14  C4  UNL     1      10.506  17.538  16.492  1.00  0.00     0.080 A 
HETATM   15  C3  UNL     1       9.562  16.588  16.766  1.00  0.00     0.067 A 
HETATM   16 CL1  UNL     1      11.455  17.451  15.018  1.00  0.00    -0.081 Cl
HETATM   17  C2  UNL     1       8.786  16.601  17.902  1.00  0.00     0.106 A 
HETATM   18  C28 UNL     1       8.978  17.626  18.801  1.00  0.00     0.138 A 
HETATM   19  C26 UNL     1       9.916  18.588  18.554  1.00  0.00     0.147 A 
BRANCH  17  20
HETATM   20  O1  UNL     1       7.835  15.621  18.150  1.00  0.00    -0.353 OA
HETATM   21  C1  UNL     1       6.667  15.607  17.316  1.00  0.00     0.210 C 
ENDBRANCH  17  20
BRANCH  18  22
HETATM   22  O7  UNL     1       8.189  17.640  19.956  1.00  0.00    -0.351 OA
HETATM   23  C29 UNL     1       7.030  18.410  20.069  1.00  0.00     0.210 C 
ENDBRANCH  18  22
BRANCH  19  24
HETATM   24  O6  UNL     1      10.130  19.633  19.444  1.00  0.00    -0.350 OA
HETATM   25  C27 UNL     1      10.856  19.517  20.637  1.00  0.00     0.210 C 
ENDBRANCH  19  24
ENDBRANCH  11  13
ENDBRANCH   9  10
ENDBRANCH   8   9
ENDBRANCH   1   8
BRANCH   4  26
HETATM   26  C12 UNL     1      18.071  24.064  13.275  1.00  0.00     0.016 C 
HETATM   27  C13 UNL     1      18.766  25.136  13.394  1.00  0.00     0.055 C 
BRANCH  27  28
HETATM   28  C14 UNL     1      19.039  26.038  14.450  1.00  0.00     0.172 C 
HETATM   29  O4  UNL     1      19.896  26.967  14.322  1.00  0.00    -0.289 OA
BRANCH  28  30
HETATM   30  C15 UNL     1      18.356  25.959  15.756  1.00  0.00     0.055 C 
HETATM   31  C16 UNL     1      18.752  25.185  16.717  1.00  0.00     0.018 C 
BRANCH  31  32
HETATM   32  C17 UNL     1      18.071  25.104  18.020  1.00  0.00    -0.001 A 
HETATM   33  C18 UNL     1      17.043  24.233  18.223  1.00  0.00     0.040 A 
HETATM   34  C19 UNL     1      16.395  24.180  19.444  1.00  0.00     0.056 A 
HETATM   35 CL2  UNL     1      15.075  23.063  19.709  1.00  0.00    -0.083 Cl
HETATM   36  C20 UNL     1      16.784  25.018  20.485  1.00  0.00     0.058 A 
HETATM   37 CL3  UNL     1      15.972  24.969  22.041  1.00  0.00    -0.082 Cl
HETATM   38  C21 UNL     1      17.805  25.886  20.292  1.00  0.00     0.063 A 
HETATM   39  C22 UNL     1      18.451  25.930  19.052  1.00  0.00     0.077 A 
BRANCH  39  40
HETATM   40  O5  UNL     1      19.480  26.841  18.937  1.00  0.00    -0.360 OA
ATOM     41  H5  UNL     1      20.013  27.109  19.677  1.00  0.00     0.217 HD
ENDBRANCH  39  40
ENDBRANCH  31  32
ENDBRANCH  28  30
ENDBRANCH  27  28
ENDBRANCH   4  26
TORSDOF 12
ENDMDL
MODEL 3
REMARK VINA RESULT: -10.065155623      1.350      2.003
REMARK  12 active torsions:
REMARK  status: ('A' for Active; 'I' for Inactive)
REMARK    1  A    between atoms: O1_2  and  C2_3 
REMARK    2  A    between atoms: C5_7  and  N1_8 
REMARK       I    between atoms: N1_8  and  C6_9 
REMARK    3  A    between atoms: C6_9  and  C7_11 
REMARK    4  A    between atoms: C7_11  and  O3_12 
REMARK    5  A    between atoms: O3_12  and  C8_13 
REMARK    6  A    between atoms: C11_16  and  C12_17 
REMARK    7  A    between atoms: C13_18  and  C14_19 
REMARK    8  A    between atoms: C14_19  and  C15_21 
REMARK    9  A    between atoms: C16_22  and  C17_23 
REMARK   10  A    between atoms: C22_30  and  O5_31 
REMARK   11  A    between atoms: C26_36  and  O6_37 
REMARK   12  A    between atoms: C28_39  and  O7_40 
ROOT
HETATM    1  C8  UNL     1      11.702  18.679  17.417  1.00  0.00     0.070 A 
HETATM    2  C9  UNL     1      10.343  18.724  17.683  1.00  0.00     0.037 A 
HETATM    3  C10 UNL     1       9.420  18.105  16.853  1.00  0.00     0.014 A 
HETATM    4  C11 UNL     1       9.815  17.435  15.749  1.00  0.00    -0.030 A 
HETATM    5  C23 UNL     1      11.187  17.386  15.475  1.00  0.00    -0.049 A 
HETATM    6  C24 UNL     1      11.631  16.654  14.260  1.00  0.00     0.049 C 
HETATM    7  C25 UNL     1      12.085  17.994  16.294  1.00  0.00     0.044 A 
ENDROOT
BRANCH   1   8
HETATM    8  O3  UNL     1      12.552  19.310  18.277  1.00  0.00    -0.341 OA
BRANCH   8   9
HETATM    9  C7  UNL     1      12.389  20.488  18.985  1.00  0.00     0.294 C 
BRANCH   9  10
HETATM   10  C6  UNL     1      12.615  21.680  18.055  1.00  0.00     0.316 C 
HETATM   11  N1  UNL     1      13.783  22.297  18.164  1.00  0.00    -0.364 NA
HETATM   12  O2  UNL     1      11.631  21.960  17.261  1.00  0.00    -0.255 OA
BRANCH  11  13
HETATM   13  C5  UNL     1      14.983  22.930  18.274  1.00  0.00     0.169 A 
HETATM   14  C4  UNL     1      15.401  23.590  19.438  1.00  0.00     0.080 A 
HETATM   15  C3  UNL     1      16.635  24.176  19.481  1.00  0.00     0.067 A 
HETATM   16 CL1  UNL     1      14.334  23.659  20.831  1.00  0.00    -0.081 Cl
HETATM   17  C2  UNL     1      17.515  24.159  18.423  1.00  0.00     0.106 A 
HETATM   18  C28 UNL     1      17.122  23.518  17.270  1.00  0.00     0.138 A 
HETATM   19  C26 UNL     1      15.895  22.922  17.200  1.00  0.00     0.147 A 
BRANCH  17  20
HETATM   20  O1  UNL     1      18.762  24.764  18.499  1.00  0.00    -0.353 OA
HETATM   21  C1  UNL     1      18.796  26.190  18.648  1.00  0.00     0.210 C 
ENDBRANCH  17  20
BRANCH  18  22
HETATM   22  O7  UNL     1      18.017  23.501  16.194  1.00  0.00    -0.351 OA
HETATM   23  C29 UNL     1      17.996  24.459  15.180  1.00  0.00     0.210 C 
ENDBRANCH  18  22
BRANCH  19  24
HETATM   24  O6  UNL     1      15.475  22.269  16.048  1.00  0.00    -0.350 OA
HETATM   25  C27 UNL     1      15.815  20.949  15.721  1.00  0.00     0.210 C 
ENDBRANCH  19  24
ENDBRANCH  11  13
ENDBRANCH   9  10
ENDBRANCH   8   9
ENDBRANCH   1   8
BRANCH   4  26
HETATM   26  C12 UNL     1       8.897  16.853  14.814  1.00  0.00     0.016 C 
HETATM   27  C13 UNL     1       7.916  16.025  14.826  1.00  0.00     0.055 C 
BRANCH  27  28
HETATM   28  C14 UNL     1       7.249  15.281  15.828  1.00  0.00     0.172 C 
HETATM   29  O4  UNL     1       7.069  14.029  15.713  1.00  0.00    -0.289 OA
BRANCH  28  30
HETATM   30  C15 UNL     1       6.721  15.904  17.058  1.00  0.00     0.055 C 
HETATM   31  C16 UNL     1       7.342  15.863  18.196  1.00  0.00     0.018 C 
BRANCH  31  32
HETATM   32  C17 UNL     1       6.816  16.483  19.423  1.00  0.00    -0.001 A 
HETATM   33  C18 UNL     1       5.785  17.373  19.376  1.00  0.00     0.040 A 
HETATM   34  C19 UNL     1       5.313  17.966  20.533  1.00  0.00     0.056 A 
HETATM   35 CL2  UNL     1       3.991  19.110  20.477  1.00  0.00    -0.083 Cl
HETATM   36  C20 UNL     1       5.885  17.662  21.765  1.00  0.00     0.058 A 
HETATM   37 CL3  UNL     1       5.304  18.407  23.244  1.00  0.00    -0.082 Cl
HETATM   38  C21 UNL     1       6.909  16.778  21.821  1.00  0.00     0.063 A 
HETATM   39  C22 UNL     1       7.378  16.186  20.643  1.00  0.00     0.077 A 
BRANCH  39  40
HETATM   40  O5  UNL     1       8.423  15.297  20.785  1.00  0.00    -0.360 OA
ATOM     41  H5  UNL     1       8.652  14.904  21.620  1.00  0.00     0.217 HD
ENDBRANCH  39  40
ENDBRANCH  31  32
ENDBRANCH  28  30
ENDBRANCH  27  28
ENDBRANCH   4  26
TORSDOF 12
ENDMDL
MODEL 4
REMARK VINA RESULT: -9.932895018      1.085      1.464
REMARK  12 active torsions:
REMARK  status: ('A' for Active; 'I' for Inactive)
REMARK    1  A    between atoms: O1_2  and  C2_3 
REMARK    2  A    between atoms: C5_7  and  N1_8 
REMARK       I    between atoms: N1_8  and  C6_9 
REMARK    3  A    between atoms: C6_9  and  C7_11 
REMARK    4  A    between atoms: C7_11  and  O3_12 
REMARK    5  A    between atoms: O3_12  and  C8_13 
REMARK    6  A    between atoms: C11_16  and  C12_17 
REMARK    7  A    between atoms: C13_18  and  C14_19 
REMARK    8  A    between atoms: C14_19  and  C15_21 
REMARK    9  A    between atoms: C16_22  and  C17_23 
REMARK   10  A    between atoms: C22_30  and  O5_31 
REMARK   11  A    between atoms: C26_36  and  O6_37 
REMARK   12  A    between atoms: C28_39  and  O7_40 
ROOT
HETATM    1  C8  UNL     1      11.810  18.685  17.438  1.00  0.00     0.070 A 
HETATM    2  C9  UNL     1      10.450  18.727  17.703  1.00  0.00     0.037 A 
HETATM    3  C10 UNL     1       9.527  18.125  16.862  1.00  0.00     0.014 A 
HETATM    4  C11 UNL     1       9.922  17.474  15.746  1.00  0.00    -0.030 A 
HETATM    5  C23 UNL     1      11.294  17.428  15.473  1.00  0.00    -0.049 A 
HETATM    6  C24 UNL     1      11.737  16.717  14.245  1.00  0.00     0.049 C 
HETATM    7  C25 UNL     1      12.193  18.019  16.303  1.00  0.00     0.044 A 
ENDROOT
BRANCH   1   8
HETATM    8  O3  UNL     1      12.661  19.299  18.309  1.00  0.00    -0.341 OA
BRANCH   8   9
HETATM    9  C7  UNL     1      12.576  20.545  18.906  1.00  0.00     0.294 C 
BRANCH   9  10
HETATM   10  C6  UNL     1      12.691  21.633  17.839  1.00  0.00     0.316 C 
HETATM   11  N1  UNL     1      13.903  22.128  17.632  1.00  0.00    -0.364 NA
HETATM   12  O2  UNL     1      11.582  21.957  17.253  1.00  0.00    -0.255 OA
BRANCH  11  13
HETATM   13  C5  UNL     1      15.148  22.636  17.419  1.00  0.00     0.169 A 
HETATM   14  C4  UNL     1      15.765  22.656  16.161  1.00  0.00     0.080 A 
HETATM   15  C3  UNL     1      17.006  23.213  16.022  1.00  0.00     0.067 A 
HETATM   16 CL1  UNL     1      14.941  21.965  14.774  1.00  0.00    -0.081 Cl
HETATM   17  C2  UNL     1      17.705  23.769  17.070  1.00  0.00     0.106 A 
HETATM   18  C28 UNL     1      17.115  23.757  18.314  1.00  0.00     0.138 A 
HETATM   19  C26 UNL     1      15.876  23.208  18.481  1.00  0.00     0.147 A 
BRANCH  17  20
HETATM   20  O1  UNL     1      18.963  24.327  16.895  1.00  0.00    -0.353 OA
HETATM   21  C1  UNL     1      19.035  25.609  16.256  1.00  0.00     0.210 C 
ENDBRANCH  17  20
BRANCH  18  22
HETATM   22  O7  UNL     1      17.826  24.322  19.379  1.00  0.00    -0.351 OA
HETATM   23  C29 UNL     1      17.712  25.667  19.733  1.00  0.00     0.210 C 
ENDBRANCH  18  22
BRANCH  19  24
HETATM   24  O6  UNL     1      15.260  23.183  19.726  1.00  0.00    -0.350 OA
HETATM   25  C27 UNL     1      14.480  24.228  20.241  1.00  0.00     0.210 C 
ENDBRANCH  19  24
ENDBRANCH  11  13
ENDBRANCH   9  10
ENDBRANCH   8   9
ENDBRANCH   1   8
BRANCH   4  26
HETATM   26  C12 UNL     1       9.004  16.910  14.800  1.00  0.00     0.016 C 
HETATM   27  C13 UNL     1       8.071  16.029  14.781  1.00  0.00     0.055 C 
BRANCH  27  28
HETATM   28  C14 UNL     1       7.483  15.177  15.746  1.00  0.00     0.172 C 
HETATM   29  O4  UNL     1       7.099  14.004  15.446  1.00  0.00    -0.289 OA
BRANCH  28  30
HETATM   30  C15 UNL     1       7.276  15.590  17.148  1.00  0.00     0.055 C 
HETATM   31  C16 UNL     1       6.287  16.339  17.527  1.00  0.00     0.018 C 
BRANCH  31  32
HETATM   32  C17 UNL     1       6.080  16.753  18.924  1.00  0.00    -0.001 A 
HETATM   33  C18 UNL     1       6.979  16.425  19.895  1.00  0.00     0.040 A 
HETATM   34  C19 UNL     1       6.764  16.800  21.210  1.00  0.00     0.056 A 
HETATM   35 CL2  UNL     1       7.914  16.382  22.460  1.00  0.00    -0.083 Cl
HETATM   36  C20 UNL     1       5.624  17.520  21.560  1.00  0.00     0.058 A 
HETATM   37 CL3  UNL     1       5.331  18.002  23.222  1.00  0.00    -0.082 Cl
HETATM   38  C21 UNL     1       4.728  17.850  20.601  1.00  0.00     0.063 A 
HETATM   39  C22 UNL     1       4.957  17.464  19.276  1.00  0.00     0.077 A 
BRANCH  39  40
HETATM   40  O5  UNL     1       3.996  17.839  18.361  1.00  0.00    -0.360 OA
ATOM     41  H5  UNL     1       4.212  18.169  17.496  1.00  0.00     0.217 HD
ENDBRANCH  39  40
ENDBRANCH  31  32
ENDBRANCH  28  30
ENDBRANCH  27  28
ENDBRANCH   4  26
TORSDOF 12
ENDMDL
MODEL 5
REMARK VINA RESULT: -9.901993231      3.084     12.071
REMARK  12 active torsions:
REMARK  status: ('A' for Active; 'I' for Inactive)
REMARK    1  A    between atoms: O1_2  and  C2_3 
REMARK    2  A    between atoms: C5_7  and  N1_8 
REMARK       I    between atoms: N1_8  and  C6_9 
REMARK    3  A    between atoms: C6_9  and  C7_11 
REMARK    4  A    between atoms: C7_11  and  O3_12 
REMARK    5  A    between atoms: O3_12  and  C8_13 
REMARK    6  A    between atoms: C11_16  and  C12_17 
REMARK    7  A    between atoms: C13_18  and  C14_19 
REMARK    8  A    between atoms: C14_19  and  C15_21 
REMARK    9  A    between atoms: C16_22  and  C17_23 
REMARK   10  A    between atoms: C22_30  and  O5_31 
REMARK   11  A    between atoms: C26_36  and  O6_37 
REMARK   12  A    between atoms: C28_39  and  O7_40 
ROOT
HETATM    1  C8  UNL     1      13.889  21.254  18.986  1.00  0.00     0.070 A 
HETATM    2  C9  UNL     1      14.485  22.047  18.018  1.00  0.00     0.037 A 
HETATM    3  C10 UNL     1      15.047  23.276  18.330  1.00  0.00     0.014 A 
HETATM    4  C11 UNL     1      15.030  23.748  19.595  1.00  0.00    -0.030 A 
HETATM    5  C23 UNL     1      14.429  22.952  20.578  1.00  0.00    -0.049 A 
HETATM    6  C24 UNL     1      14.402  23.466  21.972  1.00  0.00     0.049 C 
HETATM    7  C25 UNL     1      13.882  21.748  20.264  1.00  0.00     0.044 A 
ENDROOT
BRANCH   1   8
HETATM    8  O3  UNL     1      13.357  20.057  18.607  1.00  0.00    -0.341 OA
BRANCH   8   9
HETATM    9  C7  UNL     1      12.159  19.463  18.964  1.00  0.00     0.294 C 
BRANCH   9  10
HETATM   10  C6  UNL     1      11.108  19.743  17.890  1.00  0.00     0.316 C 
HETATM   11  N1  UNL     1      10.420  18.697  17.453  1.00  0.00    -0.364 NA
HETATM   12  O2  UNL     1      11.008  20.980  17.518  1.00  0.00    -0.255 OA
BRANCH  11  13
HETATM   13  C5  UNL     1       9.713  17.624  17.005  1.00  0.00     0.169 A 
HETATM   14  C4  UNL     1      10.054  16.906  15.850  1.00  0.00     0.080 A 
HETATM   15  C3  UNL     1       9.311  15.818  15.483  1.00  0.00     0.067 A 
HETATM   16 CL1  UNL     1      11.431  17.409  14.886  1.00  0.00    -0.081 Cl
HETATM   17  C2  UNL     1       8.219  15.375  16.195  1.00  0.00     0.106 A 
HETATM   18  C28 UNL     1       7.868  16.069  17.331  1.00  0.00     0.138 A 
HETATM   19  C26 UNL     1       8.593  17.158  17.722  1.00  0.00     0.147 A 
BRANCH  17  20
HETATM   20  O1  UNL     1       7.486  14.267  15.795  1.00  0.00    -0.353 OA
HETATM   21  C1  UNL     1       6.508  14.460  14.763  1.00  0.00     0.210 C 
ENDBRANCH  17  20
BRANCH  18  22
HETATM   22  O7  UNL     1       6.758  15.619  18.055  1.00  0.00    -0.351 OA
HETATM   23  C29 UNL     1       5.479  16.150  17.883  1.00  0.00     0.210 C 
ENDBRANCH  18  22
BRANCH  19  24
HETATM   24  O6  UNL     1       8.259  17.876  18.864  1.00  0.00    -0.350 OA
HETATM   25  C27 UNL     1       8.655  17.522  20.161  1.00  0.00     0.210 C 
ENDBRANCH  19  24
ENDBRANCH  11  13
ENDBRANCH   9  10
ENDBRANCH   8   9
ENDBRANCH   1   8
BRANCH   4  26
HETATM   26  C12 UNL     1      15.519  25.048  19.954  1.00  0.00     0.016 C 
HETATM   27  C13 UNL     1      16.609  25.718  19.864  1.00  0.00     0.055 C 
BRANCH  27  28
HETATM   28  C14 UNL     1      17.893  25.468  19.323  1.00  0.00     0.172 C 
HETATM   29  O4  UNL     1      18.901  25.280  20.072  1.00  0.00    -0.289 OA
BRANCH  28  30
HETATM   30  C15 UNL     1      18.144  25.412  17.870  1.00  0.00     0.055 C 
HETATM   31  C16 UNL     1      18.304  24.302  17.220  1.00  0.00     0.018 C 
BRANCH  31  32
HETATM   32  C17 UNL     1      18.556  24.245  15.770  1.00  0.00    -0.001 A 
HETATM   33  C18 UNL     1      18.216  25.284  14.957  1.00  0.00     0.040 A 
HETATM   34  C19 UNL     1      18.436  25.212  13.593  1.00  0.00     0.056 A 
HETATM   35 CL2  UNL     1      18.002  26.543  12.544  1.00  0.00    -0.083 Cl
HETATM   36  C20 UNL     1      19.010  24.074  13.031  1.00  0.00     0.058 A 
HETATM   37 CL3  UNL     1      19.293  23.961  11.302  1.00  0.00    -0.082 Cl
HETATM   38  C21 UNL     1      19.350  23.038  13.832  1.00  0.00     0.063 A 
HETATM   39  C22 UNL     1      19.121  23.124  15.210  1.00  0.00     0.077 A 
BRANCH  39  40
HETATM   40  O5  UNL     1      19.496  22.026  15.956  1.00  0.00    -0.360 OA
ATOM     41  H5  UNL     1      19.806  21.219  15.562  1.00  0.00     0.217 HD
ENDBRANCH  39  40
ENDBRANCH  31  32
ENDBRANCH  28  30
ENDBRANCH  27  28
ENDBRANCH   4  26
TORSDOF 12
ENDMDL
