MODEL 1
REMARK VINA RESULT: -9.544993648      0.000      0.000
REMARK  6 active torsions:
REMARK  status: ('A' for Active; 'I' for Inactive)
REMARK    1  A    between atoms: N1_1  and  C1_4 
REMARK    2  A    between atoms: C3_6  and  C4_7 
REMARK    3  A    between atoms: C5_9  and  C6_10 
REMARK    4  A    between atoms: C6_10  and  C7_11 
REMARK    5  A    between atoms: C11_19  and  C12_20 
REMARK    6  A    between atoms: C19_27  and  C20_28 
ROOT
HETATM    1  C4  UNL     1      63.592   2.924  -6.167  1.00  0.00     0.044 A 
HETATM    2  S1  UNL     1      65.159   2.581  -6.822  1.00  0.00    -0.073 SA
HETATM    3  C5  UNL     1      65.064   0.871  -6.818  1.00  0.00     0.057 A 
HETATM    4  N3  UNL     1      63.871   0.664  -6.328  1.00  0.00    -0.352 N 
ATOM      5  H3  UNL     1      63.536  -0.292  -6.208  1.00  0.00     0.166 HD
HETATM    6  C11 UNL     1      63.103   1.658  -5.991  1.00  0.00     0.061 A 
ENDROOT
BRANCH   1   7
HETATM    7  C3  UNL     1      63.035   4.243  -5.916  1.00  0.00    -0.011 A 
HETATM    8  C2  UNL     1      62.987   5.230  -6.866  1.00  0.00     0.061 A 
HETATM    9  C1  UNL     1      62.461   6.470  -6.603  1.00  0.00     0.100 A 
HETATM   10  N4  UNL     1      61.969   6.731  -5.357  1.00  0.00    -0.342 N 
HETATM   11  C19 UNL     1      61.980   5.814  -4.370  1.00  0.00     0.044 A 
ATOM     12  H4  UNL     1      61.579   7.654  -5.166  1.00  0.00     0.167 HD
HETATM   13  C18 UNL     1      62.514   4.575  -4.655  1.00  0.00     0.043 A 
BRANCH   9  14
HETATM   14  N1  UNL     1      62.453   7.343  -7.547  1.00  0.00    -0.385 N 
ATOM     15  H12 UNL     1      62.853   7.160  -8.467  1.00  0.00     0.157 HD
ATOM     16  H11 UNL     1      62.027   8.252  -7.362  1.00  0.00     0.157 HD
ENDBRANCH   9  14
BRANCH  11  17
HETATM   17  C20 UNL     1      61.429   6.140  -3.057  1.00  0.00    -0.009 A 
HETATM   18  C21 UNL     1      61.346   5.221  -2.038  1.00  0.00     0.013 A 
HETATM   19  C22 UNL     1      60.823   5.550  -0.783  1.00  0.00     0.001 A 
HETATM   20  C23 UNL     1      60.365   6.802  -0.506  1.00  0.00     0.000 A 
HETATM   21  C24 UNL     1      60.438   7.735  -1.512  1.00  0.00     0.001 A 
HETATM   22  C25 UNL     1      60.963   7.406  -2.770  1.00  0.00     0.013 A 
ENDBRANCH  11  17
ENDBRANCH   1   7
BRANCH   6  23
HETATM   23  C12 UNL     1      61.740   1.433  -5.442  1.00  0.00    -0.008 A 
HETATM   24  C13 UNL     1      61.510   1.072  -4.134  1.00  0.00     0.014 A 
HETATM   25  C14 UNL     1      60.236   0.883  -3.644  1.00  0.00     0.001 A 
HETATM   26  C15 UNL     1      59.168   1.061  -4.486  1.00  0.00     0.000 A 
HETATM   27  C16 UNL     1      59.370   1.424  -5.802  1.00  0.00     0.001 A 
HETATM   28  C17 UNL     1      60.674   1.610  -6.276  1.00  0.00     0.014 A 
ENDBRANCH   6  23
BRANCH   3  29
HETATM   29  C6  UNL     1      66.105  -0.127  -7.278  1.00  0.00     0.121 C 
BRANCH  29  30
HETATM   30  C7  UNL     1      66.606  -0.907  -6.116  1.00  0.00     0.015 A 
HETATM   31  C8  UNL     1      66.145  -2.132  -5.722  1.00  0.00     0.026 A 
HETATM   32  C9  UNL     1      66.847  -2.518  -4.620  1.00  0.00     0.019 A 
HETATM   33  C10 UNL     1      67.732  -1.495  -4.372  1.00  0.00     0.088 A 
HETATM   34  N2  UNL     1      67.576  -0.527  -5.286  1.00  0.00    -0.369 N 
ATOM     35  H2  UNL     1      68.105   0.344  -5.336  1.00  0.00     0.165 HD
ENDBRANCH  29  30
ENDBRANCH   3  29
TORSDOF 6
ENDMDL
MODEL 2
REMARK VINA RESULT: -9.027641165      0.581      1.129
REMARK  6 active torsions:
REMARK  status: ('A' for Active; 'I' for Inactive)
REMARK    1  A    between atoms: N1_1  and  C1_4 
REMARK    2  A    between atoms: C3_6  and  C4_7 
REMARK    3  A    between atoms: C5_9  and  C6_10 
REMARK    4  A    between atoms: C6_10  and  C7_11 
REMARK    5  A    between atoms: C11_19  and  C12_20 
REMARK    6  A    between atoms: C19_27  and  C20_28 
ROOT
HETATM    1  C4  UNL     1      63.579   3.041  -6.037  1.00  0.00     0.044 A 
HETATM    2  S1  UNL     1      65.180   2.786  -6.649  1.00  0.00    -0.073 SA
HETATM    3  C5  UNL     1      65.152   1.076  -6.728  1.00  0.00     0.057 A 
HETATM    4  N3  UNL     1      63.950   0.802  -6.293  1.00  0.00    -0.352 N 
ATOM      5  H3  UNL     1      63.648  -0.170  -6.230  1.00  0.00     0.166 HD
HETATM    6  C11 UNL     1      63.134   1.750  -5.938  1.00  0.00     0.061 A 
ENDROOT
BRANCH   1   7
HETATM    7  C3  UNL     1      62.964   4.324  -5.746  1.00  0.00    -0.011 A 
HETATM    8  C2  UNL     1      62.803   5.309  -6.686  1.00  0.00     0.061 A 
HETATM    9  C1  UNL     1      62.223   6.516  -6.385  1.00  0.00     0.100 A 
HETATM   10  N4  UNL     1      61.793   6.746  -5.110  1.00  0.00    -0.342 N 
HETATM   11  C19 UNL     1      61.915   5.828  -4.131  1.00  0.00     0.044 A 
ATOM     12  H4  UNL     1      61.362   7.644  -4.891  1.00  0.00     0.167 HD
HETATM   13  C18 UNL     1      62.501   4.622  -4.454  1.00  0.00     0.043 A 
BRANCH   9  14
HETATM   14  N1  UNL     1      62.108   7.390  -7.321  1.00  0.00    -0.385 N 
ATOM     15  H12 UNL     1      62.312   8.379  -7.177  1.00  0.00     0.157 HD
ATOM     16  H11 UNL     1      61.802   7.076  -8.242  1.00  0.00     0.157 HD
ENDBRANCH   9  14
BRANCH  11  17
HETATM   17  C20 UNL     1      61.426   6.119  -2.785  1.00  0.00    -0.009 A 
HETATM   18  C21 UNL     1      61.133   5.133  -1.872  1.00  0.00     0.013 A 
HETATM   19  C22 UNL     1      60.672   5.427  -0.585  1.00  0.00     0.001 A 
HETATM   20  C23 UNL     1      60.488   6.710  -0.168  1.00  0.00     0.000 A 
HETATM   21  C24 UNL     1      60.773   7.710  -1.066  1.00  0.00     0.001 A 
HETATM   22  C25 UNL     1      61.235   7.416  -2.356  1.00  0.00     0.013 A 
ENDBRANCH  11  17
ENDBRANCH   1   7
BRANCH   6  23
HETATM   23  C12 UNL     1      61.762   1.450  -5.452  1.00  0.00    -0.008 A 
HETATM   24  C13 UNL     1      60.667   1.401  -6.284  1.00  0.00     0.014 A 
HETATM   25  C14 UNL     1      59.406   1.106  -5.812  1.00  0.00     0.001 A 
HETATM   26  C15 UNL     1      59.240   0.854  -4.474  1.00  0.00     0.000 A 
HETATM   27  C16 UNL     1      60.321   0.896  -3.618  1.00  0.00     0.001 A 
HETATM   28  C17 UNL     1      61.592   1.198  -4.121  1.00  0.00     0.014 A 
ENDBRANCH   6  23
BRANCH   3  29
HETATM   29  C6  UNL     1      66.245   0.140  -7.196  1.00  0.00     0.121 C 
BRANCH  29  30
HETATM   30  C7  UNL     1      66.489  -0.906  -6.169  1.00  0.00     0.015 A 
HETATM   31  C8  UNL     1      67.558  -0.953  -5.319  1.00  0.00     0.026 A 
HETATM   32  C9  UNL     1      67.430  -2.058  -4.533  1.00  0.00     0.019 A 
HETATM   33  C10 UNL     1      66.263  -2.663  -4.937  1.00  0.00     0.088 A 
HETATM   34  N2  UNL     1      65.703  -1.955  -5.927  1.00  0.00    -0.369 N 
ATOM     35  H2  UNL     1      64.832  -2.179  -6.409  1.00  0.00     0.165 HD
ENDBRANCH  29  30
ENDBRANCH   3  29
TORSDOF 6
ENDMDL
MODEL 3
REMARK VINA RESULT: -8.070447028      1.731      7.390
REMARK  6 active torsions:
REMARK  status: ('A' for Active; 'I' for Inactive)
REMARK    1  A    between atoms: N1_1  and  C1_4 
REMARK    2  A    between atoms: C3_6  and  C4_7 
REMARK    3  A    between atoms: C5_9  and  C6_10 
REMARK    4  A    between atoms: C6_10  and  C7_11 
REMARK    5  A    between atoms: C11_19  and  C12_20 
REMARK    6  A    between atoms: C19_27  and  C20_28 
ROOT
HETATM    1  C4  UNL     1      62.648   4.030  -5.759  1.00  0.00     0.044 A 
HETATM    2  S1  UNL     1      62.968   5.709  -5.478  1.00  0.00    -0.073 SA
HETATM    3  C5  UNL     1      61.602   6.068  -4.509  1.00  0.00     0.057 A 
HETATM    4  N3  UNL     1      60.993   4.913  -4.458  1.00  0.00    -0.352 N 
ATOM      5  H3  UNL     1      60.123   4.827  -3.933  1.00  0.00     0.166 HD
HETATM    6  C11 UNL     1      61.479   3.871  -5.065  1.00  0.00     0.061 A 
ENDROOT
BRANCH   1   7
HETATM    7  C3  UNL     1      63.469   3.117  -6.536  1.00  0.00    -0.011 A 
HETATM    8  C2  UNL     1      63.626   3.220  -7.894  1.00  0.00     0.061 A 
HETATM    9  C1  UNL     1      64.404   2.342  -8.607  1.00  0.00     0.100 A 
HETATM   10  N4  UNL     1      65.043   1.333  -7.945  1.00  0.00    -0.342 N 
HETATM   11  C19 UNL     1      64.939   1.166  -6.612  1.00  0.00     0.044 A 
ATOM     12  H4  UNL     1      65.619   0.683  -8.478  1.00  0.00     0.167 HD
HETATM   13  C18 UNL     1      64.152   2.059  -5.915  1.00  0.00     0.043 A 
BRANCH   9  14
HETATM   14  N1  UNL     1      64.500   2.504  -9.878  1.00  0.00    -0.385 N 
ATOM     15  H12 UNL     1      64.683   3.413 -10.303  1.00  0.00     0.157 HD
ATOM     16  H11 UNL     1      64.391   1.688 -10.481  1.00  0.00     0.157 HD
ENDBRANCH   9  14
BRANCH  11  17
HETATM   17  C20 UNL     1      65.654   0.077  -5.949  1.00  0.00    -0.009 A 
HETATM   18  C21 UNL     1      66.989   0.151  -5.632  1.00  0.00     0.013 A 
HETATM   19  C22 UNL     1      67.659  -0.897  -4.992  1.00  0.00     0.001 A 
HETATM   20  C23 UNL     1      67.019  -2.049  -4.649  1.00  0.00     0.000 A 
HETATM   21  C24 UNL     1      65.684  -2.143  -4.959  1.00  0.00     0.001 A 
HETATM   22  C25 UNL     1      65.013  -1.093  -5.601  1.00  0.00     0.013 A 
ENDBRANCH  11  17
ENDBRANCH   1   7
BRANCH   6  23
HETATM   23  C12 UNL     1      60.800   2.551  -5.004  1.00  0.00    -0.008 A 
HETATM   24  C13 UNL     1      60.371   1.876  -6.125  1.00  0.00     0.014 A 
HETATM   25  C14 UNL     1      59.756   0.646  -6.044  1.00  0.00     0.001 A 
HETATM   26  C15 UNL     1      59.566   0.078  -4.810  1.00  0.00     0.000 A 
HETATM   27  C16 UNL     1      59.986   0.732  -3.670  1.00  0.00     0.001 A 
HETATM   28  C17 UNL     1      60.609   1.981  -3.778  1.00  0.00     0.014 A 
ENDBRANCH   6  23
BRANCH   3  29
HETATM   29  C6  UNL     1      61.221   7.388  -3.876  1.00  0.00     0.121 C 
BRANCH  29  30
HETATM   30  C7  UNL     1      60.857   7.180  -2.450  1.00  0.00     0.015 A 
HETATM   31  C8  UNL     1      61.151   6.070  -1.709  1.00  0.00     0.026 A 
HETATM   32  C9  UNL     1      60.651   6.250  -0.455  1.00  0.00     0.019 A 
HETATM   33  C10 UNL     1      60.054   7.490  -0.472  1.00  0.00     0.088 A 
HETATM   34  N2  UNL     1      60.188   8.041  -1.686  1.00  0.00    -0.369 N 
ATOM     35  H2  UNL     1      59.839   8.956  -1.973  1.00  0.00     0.165 HD
ENDBRANCH  29  30
ENDBRANCH   3  29
TORSDOF 6
ENDMDL
MODEL 4
REMARK VINA RESULT: -8.058742856      2.827      8.280
REMARK  6 active torsions:
REMARK  status: ('A' for Active; 'I' for Inactive)
REMARK    1  A    between atoms: N1_1  and  C1_4 
REMARK    2  A    between atoms: C3_6  and  C4_7 
REMARK    3  A    between atoms: C5_9  and  C6_10 
REMARK    4  A    between atoms: C6_10  and  C7_11 
REMARK    5  A    between atoms: C11_19  and  C12_20 
REMARK    6  A    between atoms: C19_27  and  C20_28 
ROOT
HETATM    1  C4  UNL     1      60.701   4.612  -2.694  1.00  0.00     0.044 A 
HETATM    2  S1  UNL     1      60.171   4.877  -1.066  1.00  0.00    -0.073 SA
HETATM    3  C5  UNL     1      60.259   6.587  -1.046  1.00  0.00     0.057 A 
HETATM    4  N3  UNL     1      60.679   6.853  -2.255  1.00  0.00    -0.352 N 
ATOM      5  H3  UNL     1      60.827   7.823  -2.533  1.00  0.00     0.166 HD
HETATM    6  C11 UNL     1      60.912   5.900  -3.109  1.00  0.00     0.061 A 
ENDROOT
BRANCH   1   7
HETATM    7  C3  UNL     1      60.845   3.326  -3.352  1.00  0.00    -0.011 A 
HETATM    8  C2  UNL     1      59.960   2.292  -3.181  1.00  0.00     0.061 A 
HETATM    9  C1  UNL     1      60.120   1.083  -3.811  1.00  0.00     0.100 A 
HETATM   10  N4  UNL     1      61.193   0.901  -4.635  1.00  0.00    -0.342 N 
HETATM   11  C19 UNL     1      62.105   1.867  -4.855  1.00  0.00     0.044 A 
ATOM     12  H4  UNL     1      61.307   0.001  -5.100  1.00  0.00     0.167 HD
HETATM   13  C18 UNL     1      61.927   3.074  -4.212  1.00  0.00     0.043 A 
BRANCH   9  14
HETATM   14  N1  UNL     1      59.248   0.163  -3.598  1.00  0.00    -0.385 N 
ATOM     15  H12 UNL     1      59.506  -0.791  -3.346  1.00  0.00     0.157 HD
ATOM     16  H11 UNL     1      58.259   0.402  -3.685  1.00  0.00     0.157 HD
ENDBRANCH   9  14
BRANCH  11  17
HETATM   17  C20 UNL     1      63.229   1.626  -5.757  1.00  0.00    -0.009 A 
HETATM   18  C21 UNL     1      63.923   2.644  -6.368  1.00  0.00     0.013 A 
HETATM   19  C22 UNL     1      65.001   2.397  -7.224  1.00  0.00     0.001 A 
HETATM   20  C23 UNL     1      65.421   1.131  -7.497  1.00  0.00     0.000 A 
HETATM   21  C24 UNL     1      64.740   0.100  -6.897  1.00  0.00     0.001 A 
HETATM   22  C25 UNL     1      63.659   0.346  -6.039  1.00  0.00     0.013 A 
ENDBRANCH  11  17
ENDBRANCH   1   7
BRANCH   6  23
HETATM   23  C12 UNL     1      61.380   6.192  -4.488  1.00  0.00    -0.008 A 
HETATM   24  C13 UNL     1      62.637   6.680  -4.765  1.00  0.00     0.014 A 
HETATM   25  C14 UNL     1      63.054   6.930  -6.054  1.00  0.00     0.001 A 
HETATM   26  C15 UNL     1      62.189   6.685  -7.091  1.00  0.00     0.000 A 
HETATM   27  C16 UNL     1      60.924   6.196  -6.842  1.00  0.00     0.001 A 
HETATM   28  C17 UNL     1      60.523   5.949  -5.523  1.00  0.00     0.014 A 
ENDBRANCH   6  23
BRANCH   3  29
HETATM   29  C6  UNL     1      59.922   7.531   0.087  1.00  0.00     0.121 C 
BRANCH  29  30
HETATM   30  C7  UNL     1      60.708   7.170   1.296  1.00  0.00     0.015 A 
HETATM   31  C8  UNL     1      60.948   7.990   2.363  1.00  0.00     0.026 A 
HETATM   32  C9  UNL     1      61.705   7.306   3.266  1.00  0.00     0.019 A 
HETATM   33  C10 UNL     1      61.907   6.064   2.708  1.00  0.00     0.088 A 
HETATM   34  N2  UNL     1      61.297   5.996   1.517  1.00  0.00    -0.369 N 
ATOM     35  H2  UNL     1      61.287   5.189   0.892  1.00  0.00     0.165 HD
ENDBRANCH  29  30
ENDBRANCH   3  29
TORSDOF 6
ENDMDL
MODEL 5
REMARK VINA RESULT: -8.049156791      2.086      2.799
REMARK  6 active torsions:
REMARK  status: ('A' for Active; 'I' for Inactive)
REMARK    1  A    between atoms: N1_1  and  C1_4 
REMARK    2  A    between atoms: C3_6  and  C4_7 
REMARK    3  A    between atoms: C5_9  and  C6_10 
REMARK    4  A    between atoms: C6_10  and  C7_11 
REMARK    5  A    between atoms: C11_19  and  C12_20 
REMARK    6  A    between atoms: C19_27  and  C20_28 
ROOT
HETATM    1  C4  UNL     1      62.786   2.783  -5.549  1.00  0.00     0.044 A 
HETATM    2  S1  UNL     1      64.438   3.230  -5.280  1.00  0.00    -0.073 SA
HETATM    3  C5  UNL     1      65.178   2.121  -6.355  1.00  0.00     0.057 A 
HETATM    4  N3  UNL     1      64.147   1.487  -6.845  1.00  0.00    -0.352 N 
ATOM      5  H3  UNL     1      64.292   0.746  -7.532  1.00  0.00     0.166 HD
HETATM    6  C11 UNL     1      62.937   1.784  -6.473  1.00  0.00     0.061 A 
ENDROOT
BRANCH   1   7
HETATM    7  C3  UNL     1      61.621   3.377  -4.916  1.00  0.00    -0.011 A 
HETATM    8  C2  UNL     1      60.334   3.091  -5.295  1.00  0.00     0.061 A 
HETATM    9  C1  UNL     1      59.249   3.669  -4.684  1.00  0.00     0.100 A 
HETATM   10  N4  UNL     1      59.455   4.557  -3.667  1.00  0.00    -0.342 N 
HETATM   11  C19 UNL     1      60.688   4.889  -3.237  1.00  0.00     0.044 A 
ATOM     12  H4  UNL     1      58.646   4.984  -3.217  1.00  0.00     0.167 HD
HETATM   13  C18 UNL     1      61.765   4.297  -3.865  1.00  0.00     0.043 A 
BRANCH   9  14
HETATM   14  N1  UNL     1      58.074   3.351  -5.097  1.00  0.00    -0.385 N 
ATOM     15  H12 UNL     1      57.920   2.798  -5.939  1.00  0.00     0.157 HD
ATOM     16  H11 UNL     1      57.269   3.667  -4.556  1.00  0.00     0.157 HD
ENDBRANCH   9  14
BRANCH  11  17
HETATM   17  C20 UNL     1      60.853   5.834  -2.136  1.00  0.00    -0.009 A 
HETATM   18  C21 UNL     1      60.811   7.197  -2.316  1.00  0.00     0.013 A 
HETATM   19  C22 UNL     1      60.965   8.091  -1.251  1.00  0.00     0.001 A 
HETATM   20  C23 UNL     1      61.165   7.655   0.024  1.00  0.00     0.000 A 
HETATM   21  C24 UNL     1      61.212   6.296   0.224  1.00  0.00     0.001 A 
HETATM   22  C25 UNL     1      61.058   5.401  -0.844  1.00  0.00     0.013 A 
ENDBRANCH  11  17
ENDBRANCH   1   7
BRANCH   6  23
HETATM   23  C12 UNL     1      61.757   1.075  -7.032  1.00  0.00    -0.008 A 
HETATM   24  C13 UNL     1      61.043   1.547  -8.110  1.00  0.00     0.014 A 
HETATM   25  C14 UNL     1      59.960   0.865  -8.622  1.00  0.00     0.001 A 
HETATM   26  C15 UNL     1      59.585  -0.318  -8.038  1.00  0.00     0.000 A 
HETATM   27  C16 UNL     1      60.283  -0.814  -6.957  1.00  0.00     0.001 A 
HETATM   28  C17 UNL     1      61.380  -0.103  -6.455  1.00  0.00     0.014 A 
ENDBRANCH   6  23
BRANCH   3  29
HETATM   29  C6  UNL     1      66.651   1.944  -6.653  1.00  0.00     0.121 C 
BRANCH  29  30
HETATM   30  C7  UNL     1      66.996   0.499  -6.660  1.00  0.00     0.015 A 
HETATM   31  C8  UNL     1      67.420  -0.223  -5.579  1.00  0.00     0.026 A 
HETATM   32  C9  UNL     1      67.638  -1.506  -5.982  1.00  0.00     0.019 A 
HETATM   33  C10 UNL     1      67.334  -1.526  -7.323  1.00  0.00     0.088 A 
HETATM   34  N2  UNL     1      66.946  -0.306  -7.720  1.00  0.00    -0.369 N 
ATOM     35  H2  UNL     1      66.664  -0.042  -8.664  1.00  0.00     0.165 HD
ENDBRANCH  29  30
ENDBRANCH   3  29
TORSDOF 6
ENDMDL
