MODEL 1
REMARK VINA RESULT: -9.435482414      0.000      0.000
REMARK  5 active torsions:
REMARK  status: ('A' for Active; 'I' for Inactive)
REMARK       I    between atoms: C1_2  and  N1_3 
REMARK       I    between atoms: C1_2  and  N4_22 
REMARK    1  A    between atoms: N1_3  and  C2_5 
REMARK    2  A    between atoms: C5_8  and  N2_9 
REMARK       I    between atoms: N2_9  and  C6_11 
REMARK    3  A    between atoms: C6_11  and  C7_13 
REMARK    4  A    between atoms: N4_22  and  C14_24 
REMARK    5  A    between atoms: C19_29  and  C20_30 
ROOT
HETATM    1  O1  UNL     1      61.727   3.184  -2.952  1.00  0.00    -0.247 OA
HETATM    2  C1  UNL     1      60.560   3.492  -3.242  1.00  0.00     0.325 C 
HETATM    3  N1  UNL     1      59.869   4.367  -2.333  1.00  0.00    -0.309 N 
ATOM      4  H1  UNL     1      58.914   4.614  -2.590  1.00  0.00     0.170 HD
HETATM    5  N4  UNL     1      59.911   3.023  -4.400  1.00  0.00    -0.308 N 
ATOM      6  H4  UNL     1      58.953   3.333  -4.560  1.00  0.00     0.170 HD
ENDROOT
BRANCH   3   7
HETATM    7  C2  UNL     1      60.346   4.921  -1.144  1.00  0.00     0.036 A 
HETATM    8  C3  UNL     1      61.092   6.059  -1.016  1.00  0.00     0.032 A 
HETATM    9  C4  UNL     1      61.484   6.513   0.246  1.00  0.00     0.032 A 
HETATM   10  C5  UNL     1      61.163   5.872   1.401  1.00  0.00     0.035 A 
HETATM   11  C12 UNL     1      60.398   4.707   1.249  1.00  0.00     0.032 A 
HETATM   12  C13 UNL     1      59.998   4.236   0.035  1.00  0.00     0.032 A 
BRANCH  10  13
HETATM   13  N2  UNL     1      61.552   6.277   2.707  1.00  0.00    -0.323 N 
HETATM   14  C6  UNL     1      61.190   7.445   3.385  1.00  0.00     0.257 C 
HETATM   15  O2  UNL     1      60.438   8.290   2.825  1.00  0.00    -0.267 OA
ATOM     16  H2  UNL     1      62.169   5.638   3.209  1.00  0.00     0.169 HD
BRANCH  14  17
HETATM   17  C7  UNL     1      61.662   7.731   4.743  1.00  0.00     0.047 A 
HETATM   18  C8  UNL     1      61.394   6.830   5.753  1.00  0.00     0.020 A 
HETATM   19  C9  UNL     1      61.821   7.049   7.043  1.00  0.00     0.018 A 
HETATM   20  C10 UNL     1      62.527   8.204   7.282  1.00  0.00     0.087 A 
HETATM   21  N3  UNL     1      62.773   9.060   6.284  1.00  0.00    -0.374 N 
HETATM   22  C11 UNL     1      62.364   8.869   5.007  1.00  0.00     0.104 A 
ATOM     23  H3  UNL     1      63.300   9.907   6.498  1.00  0.00     0.164 HD
ENDBRANCH  14  17
ENDBRANCH  10  13
ENDBRANCH   3   7
BRANCH   5  24
HETATM   24  C14 UNL     1      60.477   2.164  -5.350  1.00  0.00     0.047 A 
HETATM   25  C15 UNL     1      60.283   0.785  -5.399  1.00  0.00     0.030 A 
HETATM   26  C16 UNL     1      60.830   0.027  -6.425  1.00  0.00     0.002 A 
HETATM   27  C17 UNL     1      61.574   0.612  -7.417  1.00  0.00     0.001 A 
HETATM   28  C18 UNL     1      61.753   1.973  -7.347  1.00  0.00     0.014 A 
HETATM   29  C19 UNL     1      61.238   2.777  -6.356  1.00  0.00     0.001 A 
BRANCH  29  30
HETATM   30  C20 UNL     1      61.523   4.195  -6.335  1.00  0.00    -0.024 A 
HETATM   31  C21 UNL     1      62.827   4.543  -5.979  1.00  0.00     0.012 A 
HETATM   32  C22 UNL     1      63.230   5.855  -5.877  1.00  0.00     0.001 A 
HETATM   33  C23 UNL     1      62.274   6.833  -6.147  1.00  0.00     0.000 A 
HETATM   34  C24 UNL     1      60.993   6.521  -6.496  1.00  0.00     0.001 A 
HETATM   35  C25 UNL     1      60.628   5.200  -6.588  1.00  0.00     0.012 A 
ENDBRANCH  29  30
ENDBRANCH   5  24
TORSDOF 5
ENDMDL
MODEL 2
REMARK VINA RESULT: -8.915290996      1.575      3.060
REMARK  5 active torsions:
REMARK  status: ('A' for Active; 'I' for Inactive)
REMARK       I    between atoms: C1_2  and  N1_3 
REMARK       I    between atoms: C1_2  and  N4_22 
REMARK    1  A    between atoms: N1_3  and  C2_5 
REMARK    2  A    between atoms: C5_8  and  N2_9 
REMARK       I    between atoms: N2_9  and  C6_11 
REMARK    3  A    between atoms: C6_11  and  C7_13 
REMARK    4  A    between atoms: N4_22  and  C14_24 
REMARK    5  A    between atoms: C19_29  and  C20_30 
ROOT
HETATM    1  O1  UNL     1      62.801   5.229  -3.798  1.00  0.00    -0.247 OA
HETATM    2  C1  UNL     1      61.631   5.255  -4.214  1.00  0.00     0.325 C 
HETATM    3  N1  UNL     1      60.645   5.855  -3.357  1.00  0.00    -0.309 N 
ATOM      4  H1  UNL     1      59.690   5.872  -3.717  1.00  0.00     0.170 HD
HETATM    5  N4  UNL     1      61.253   4.728  -5.464  1.00  0.00    -0.308 N 
ATOM      6  H4  UNL     1      60.270   4.798  -5.726  1.00  0.00     0.170 HD
ENDROOT
BRANCH   3   7
HETATM    7  C2  UNL     1      60.832   6.417  -2.094  1.00  0.00     0.036 A 
HETATM    8  C3  UNL     1      60.846   7.749  -1.787  1.00  0.00     0.032 A 
HETATM    9  C4  UNL     1      61.022   8.172  -0.467  1.00  0.00     0.032 A 
HETATM   10  C5  UNL     1      61.190   7.315   0.574  1.00  0.00     0.035 A 
HETATM   11  C12 UNL     1      61.173   5.953   0.240  1.00  0.00     0.032 A 
HETATM   12  C13 UNL     1      61.004   5.505  -1.035  1.00  0.00     0.032 A 
BRANCH  10  13
HETATM   13  N2  UNL     1      61.395   7.690   1.930  1.00  0.00    -0.323 N 
HETATM   14  C6  UNL     1      61.566   6.850   3.035  1.00  0.00     0.257 C 
HETATM   15  O2  UNL     1      61.536   5.597   2.883  1.00  0.00    -0.267 OA
ATOM     16  H2  UNL     1      61.420   8.692   2.119  1.00  0.00     0.169 HD
BRANCH  14  17
HETATM   17  C7  UNL     1      61.778   7.379   4.385  1.00  0.00     0.047 A 
HETATM   18  C8  UNL     1      61.371   6.633   5.473  1.00  0.00     0.020 A 
HETATM   19  C9  UNL     1      61.553   7.081   6.760  1.00  0.00     0.018 A 
HETATM   20  C10 UNL     1      62.161   8.304   6.918  1.00  0.00     0.087 A 
HETATM   21  N3  UNL     1      62.546   9.006   5.847  1.00  0.00    -0.374 N 
HETATM   22  C11 UNL     1      62.378   8.589   4.570  1.00  0.00     0.104 A 
ATOM     23  H3  UNL     1      62.994   9.910   6.001  1.00  0.00     0.164 HD
ENDBRANCH  14  17
ENDBRANCH  10  13
ENDBRANCH   3   7
BRANCH   5  24
HETATM   24  C14 UNL     1      62.120   4.116  -6.377  1.00  0.00     0.047 A 
HETATM   25  C15 UNL     1      62.953   4.791  -7.268  1.00  0.00     0.030 A 
HETATM   26  C16 UNL     1      63.832   4.093  -8.084  1.00  0.00     0.002 A 
HETATM   27  C17 UNL     1      63.907   2.726  -8.039  1.00  0.00     0.001 A 
HETATM   28  C18 UNL     1      63.076   2.082  -7.153  1.00  0.00     0.014 A 
HETATM   29  C19 UNL     1      62.183   2.715  -6.319  1.00  0.00     0.001 A 
BRANCH  29  30
HETATM   30  C20 UNL     1      61.309   1.951  -5.457  1.00  0.00    -0.024 A 
HETATM   31  C21 UNL     1      61.879   1.498  -4.267  1.00  0.00     0.012 A 
HETATM   32  C22 UNL     1      61.178   0.725  -3.370  1.00  0.00     0.001 A 
HETATM   33  C23 UNL     1      59.861   0.410  -3.700  1.00  0.00     0.000 A 
HETATM   34  C24 UNL     1      59.280   0.839  -4.856  1.00  0.00     0.001 A 
HETATM   35  C25 UNL     1      60.010   1.608  -5.728  1.00  0.00     0.012 A 
ENDBRANCH  29  30
ENDBRANCH   5  24
TORSDOF 5
ENDMDL
MODEL 3
REMARK VINA RESULT: -8.804854913      1.677      3.259
REMARK  5 active torsions:
REMARK  status: ('A' for Active; 'I' for Inactive)
REMARK       I    between atoms: C1_2  and  N1_3 
REMARK       I    between atoms: C1_2  and  N4_22 
REMARK    1  A    between atoms: N1_3  and  C2_5 
REMARK    2  A    between atoms: C5_8  and  N2_9 
REMARK       I    between atoms: N2_9  and  C6_11 
REMARK    3  A    between atoms: C6_11  and  C7_13 
REMARK    4  A    between atoms: N4_22  and  C14_24 
REMARK    5  A    between atoms: C19_29  and  C20_30 
ROOT
HETATM    1  O1  UNL     1      62.854   5.081  -3.806  1.00  0.00    -0.247 OA
HETATM    2  C1  UNL     1      61.695   5.144  -4.247  1.00  0.00     0.325 C 
HETATM    3  N1  UNL     1      60.710   5.777  -3.412  1.00  0.00    -0.309 N 
ATOM      4  H1  UNL     1      59.765   5.825  -3.792  1.00  0.00     0.170 HD
HETATM    5  N4  UNL     1      61.328   4.629  -5.505  1.00  0.00    -0.308 N 
ATOM      6  H4  UNL     1      60.353   4.731  -5.788  1.00  0.00     0.170 HD
ENDROOT
BRANCH   3   7
HETATM    7  C2  UNL     1      60.888   6.334  -2.145  1.00  0.00     0.036 A 
HETATM    8  C3  UNL     1      60.901   7.664  -1.833  1.00  0.00     0.032 A 
HETATM    9  C4  UNL     1      61.067   8.082  -0.510  1.00  0.00     0.032 A 
HETATM   10  C5  UNL     1      61.225   7.221   0.530  1.00  0.00     0.035 A 
HETATM   11  C12 UNL     1      61.209   5.861   0.190  1.00  0.00     0.032 A 
HETATM   12  C13 UNL     1      61.049   5.417  -1.089  1.00  0.00     0.032 A 
BRANCH  10  13
HETATM   13  N2  UNL     1      61.419   7.591   1.888  1.00  0.00    -0.323 N 
HETATM   14  C6  UNL     1      61.506   6.748   3.002  1.00  0.00     0.257 C 
HETATM   15  O2  UNL     1      61.399   5.499   2.854  1.00  0.00    -0.267 OA
ATOM     16  H2  UNL     1      61.504   8.590   2.073  1.00  0.00     0.169 HD
BRANCH  14  17
HETATM   17  C7  UNL     1      61.718   7.270   4.354  1.00  0.00     0.047 A 
HETATM   18  C8  UNL     1      62.381   8.470   4.518  1.00  0.00     0.020 A 
HETATM   19  C9  UNL     1      62.599   9.006   5.766  1.00  0.00     0.018 A 
HETATM   20  C10 UNL     1      62.128   8.295   6.844  1.00  0.00     0.087 A 
HETATM   21  N3  UNL     1      61.488   7.136   6.658  1.00  0.00    -0.374 N 
HETATM   22  C11 UNL     1      61.261   6.586   5.441  1.00  0.00     0.104 A 
ATOM     23  H3  UNL     1      61.152   6.635   7.480  1.00  0.00     0.164 HD
ENDBRANCH  14  17
ENDBRANCH  10  13
ENDBRANCH   3   7
BRANCH   5  24
HETATM   24  C14 UNL     1      62.194   3.988  -6.398  1.00  0.00     0.047 A 
HETATM   25  C15 UNL     1      63.016   4.634  -7.320  1.00  0.00     0.030 A 
HETATM   26  C16 UNL     1      63.895   3.912  -8.114  1.00  0.00     0.002 A 
HETATM   27  C17 UNL     1      63.982   2.548  -8.015  1.00  0.00     0.001 A 
HETATM   28  C18 UNL     1      63.161   1.933  -7.100  1.00  0.00     0.014 A 
HETATM   29  C19 UNL     1      62.269   2.591  -6.286  1.00  0.00     0.001 A 
BRANCH  29  30
HETATM   30  C20 UNL     1      61.405   1.855  -5.389  1.00  0.00    -0.024 A 
HETATM   31  C21 UNL     1      60.052   1.842  -5.729  1.00  0.00     0.012 A 
HETATM   32  C22 UNL     1      59.109   1.216  -4.946  1.00  0.00     0.001 A 
HETATM   33  C23 UNL     1      59.565   0.587  -3.789  1.00  0.00     0.000 A 
HETATM   34  C24 UNL     1      60.881   0.584  -3.434  1.00  0.00     0.001 A 
HETATM   35  C25 UNL     1      61.793   1.219  -4.239  1.00  0.00     0.012 A 
ENDBRANCH  29  30
ENDBRANCH   5  24
TORSDOF 5
ENDMDL
MODEL 4
REMARK VINA RESULT: -6.962993888      2.068      2.993
REMARK  5 active torsions:
REMARK  status: ('A' for Active; 'I' for Inactive)
REMARK       I    between atoms: C1_2  and  N1_3 
REMARK       I    between atoms: C1_2  and  N4_22 
REMARK    1  A    between atoms: N1_3  and  C2_5 
REMARK    2  A    between atoms: C5_8  and  N2_9 
REMARK       I    between atoms: N2_9  and  C6_11 
REMARK    3  A    between atoms: C6_11  and  C7_13 
REMARK    4  A    between atoms: N4_22  and  C14_24 
REMARK    5  A    between atoms: C19_29  and  C20_30 
ROOT
HETATM    1  O1  UNL     1      60.796   2.155  -3.836  1.00  0.00    -0.247 OA
HETATM    2  C1  UNL     1      61.298   2.976  -4.618  1.00  0.00     0.325 C 
HETATM    3  N1  UNL     1      61.706   4.241  -4.068  1.00  0.00    -0.309 N 
ATOM      4  H1  UNL     1      62.122   4.901  -4.724  1.00  0.00     0.170 HD
HETATM    5  N4  UNL     1      61.476   2.714  -5.991  1.00  0.00    -0.308 N 
ATOM      6  H4  UNL     1      61.903   3.446  -6.558  1.00  0.00     0.170 HD
ENDROOT
BRANCH   3   7
HETATM    7  C2  UNL     1      61.603   4.675  -2.746  1.00  0.00     0.036 A 
HETATM    8  C3  UNL     1      60.817   5.692  -2.281  1.00  0.00     0.032 A 
HETATM    9  C4  UNL     1      60.794   6.006  -0.919  1.00  0.00     0.032 A 
HETATM   10  C5  UNL     1      61.531   5.343   0.011  1.00  0.00     0.035 A 
HETATM   11  C12 UNL     1      62.331   4.304  -0.486  1.00  0.00     0.032 A 
HETATM   12  C13 UNL     1      62.377   3.970  -1.806  1.00  0.00     0.032 A 
BRANCH  10  13
HETATM   13  N2  UNL     1      61.562   5.633   1.402  1.00  0.00    -0.323 N 
HETATM   14  C6  UNL     1      61.543   6.890   2.016  1.00  0.00     0.257 C 
HETATM   15  O2  UNL     1      61.502   7.935   1.308  1.00  0.00    -0.267 OA
ATOM     16  H2  UNL     1      61.604   4.828   2.028  1.00  0.00     0.169 HD
BRANCH  14  17
HETATM   17  C7  UNL     1      61.570   7.042   3.473  1.00  0.00     0.047 A 
HETATM   18  C8  UNL     1      61.111   8.215   4.037  1.00  0.00     0.020 A 
HETATM   19  C9  UNL     1      61.110   8.404   5.400  1.00  0.00     0.018 A 
HETATM   20  C10 UNL     1      61.584   7.374   6.176  1.00  0.00     0.087 A 
HETATM   21  N3  UNL     1      62.023   6.248   5.604  1.00  0.00    -0.374 N 
HETATM   22  C11 UNL     1      62.036   6.036   4.266  1.00  0.00     0.104 A 
ATOM     23  H3  UNL     1      62.369   5.504   6.210  1.00  0.00     0.164 HD
ENDBRANCH  14  17
ENDBRANCH  10  13
ENDBRANCH   3   7
BRANCH   5  24
HETATM   24  C14 UNL     1      61.112   1.528  -6.639  1.00  0.00     0.047 A 
HETATM   25  C15 UNL     1      59.803   1.093  -6.839  1.00  0.00     0.030 A 
HETATM   26  C16 UNL     1      59.542  -0.064  -7.558  1.00  0.00     0.002 A 
HETATM   27  C17 UNL     1      60.560  -0.811  -8.092  1.00  0.00     0.001 A 
HETATM   28  C18 UNL     1      61.842  -0.362  -7.882  1.00  0.00     0.014 A 
HETATM   29  C19 UNL     1      62.166   0.774  -7.177  1.00  0.00     0.001 A 
BRANCH  29  30
HETATM   30  C20 UNL     1      63.548   1.139  -6.960  1.00  0.00    -0.024 A 
HETATM   31  C21 UNL     1      64.414   0.083  -6.676  1.00  0.00     0.012 A 
HETATM   32  C22 UNL     1      65.749   0.285  -6.407  1.00  0.00     0.001 A 
HETATM   33  C23 UNL     1      66.206   1.601  -6.432  1.00  0.00     0.000 A 
HETATM   34  C24 UNL     1      65.382   2.652  -6.707  1.00  0.00     0.001 A 
HETATM   35  C25 UNL     1      64.056   2.412  -6.970  1.00  0.00     0.012 A 
ENDBRANCH  29  30
ENDBRANCH   5  24
TORSDOF 5
ENDMDL
MODEL 5
REMARK VINA RESULT: -6.444253042      1.970      3.288
REMARK  5 active torsions:
REMARK  status: ('A' for Active; 'I' for Inactive)
REMARK       I    between atoms: C1_2  and  N1_3 
REMARK       I    between atoms: C1_2  and  N4_22 
REMARK    1  A    between atoms: N1_3  and  C2_5 
REMARK    2  A    between atoms: C5_8  and  N2_9 
REMARK       I    between atoms: N2_9  and  C6_11 
REMARK    3  A    between atoms: C6_11  and  C7_13 
REMARK    4  A    between atoms: N4_22  and  C14_24 
REMARK    5  A    between atoms: C19_29  and  C20_30 
ROOT
HETATM    1  O1  UNL     1      63.618   3.827  -3.173  1.00  0.00    -0.247 OA
HETATM    2  C1  UNL     1      62.689   4.058  -3.963  1.00  0.00     0.325 C 
HETATM    3  N1  UNL     1      61.597   4.857  -3.475  1.00  0.00    -0.309 N 
ATOM      4  H1  UNL     1      60.845   5.041  -4.140  1.00  0.00     0.170 HD
HETATM    5  N4  UNL     1      62.673   3.575  -5.286  1.00  0.00    -0.308 N 
ATOM      6  H4  UNL     1      61.871   3.819  -5.866  1.00  0.00     0.170 HD
ENDROOT
BRANCH   3   7
HETATM    7  C2  UNL     1      61.439   5.410  -2.204  1.00  0.00     0.036 A 
HETATM    8  C3  UNL     1      61.152   6.715  -1.913  1.00  0.00     0.032 A 
HETATM    9  C4  UNL     1      60.998   7.129  -0.587  1.00  0.00     0.032 A 
HETATM   10  C5  UNL     1      61.122   6.289   0.475  1.00  0.00     0.035 A 
HETATM   11  C12 UNL     1      61.416   4.956   0.156  1.00  0.00     0.032 A 
HETATM   12  C13 UNL     1      61.573   4.518  -1.125  1.00  0.00     0.032 A 
BRANCH  10  13
HETATM   13  N2  UNL     1      60.997   6.660   1.841  1.00  0.00    -0.323 N 
HETATM   14  C6  UNL     1      62.007   6.729   2.807  1.00  0.00     0.257 C 
HETATM   15  O2  UNL     1      63.194   6.429   2.497  1.00  0.00    -0.267 OA
ATOM     16  H2  UNL     1      60.058   6.906   2.156  1.00  0.00     0.169 HD
BRANCH  14  17
HETATM   17  C7  UNL     1      61.735   7.139   4.187  1.00  0.00     0.047 A 
HETATM   18  C8  UNL     1      62.040   6.276   5.220  1.00  0.00     0.020 A 
HETATM   19  C9  UNL     1      61.810   6.616   6.532  1.00  0.00     0.018 A 
HETATM   20  C10 UNL     1      61.264   7.855   6.772  1.00  0.00     0.087 A 
HETATM   21  N3  UNL     1      60.978   8.672   5.753  1.00  0.00    -0.374 N 
HETATM   22  C11 UNL     1      61.194   8.361   4.453  1.00  0.00     0.104 A 
ATOM     23  H3  UNL     1      60.574   9.584   5.967  1.00  0.00     0.164 HD
ENDBRANCH  14  17
ENDBRANCH  10  13
ENDBRANCH   3   7
BRANCH   5  24
HETATM   24  C14 UNL     1      63.671   2.785  -5.868  1.00  0.00     0.047 A 
HETATM   25  C15 UNL     1      65.021   3.127  -5.944  1.00  0.00     0.030 A 
HETATM   26  C16 UNL     1      65.947   2.242  -6.477  1.00  0.00     0.002 A 
HETATM   27  C17 UNL     1      65.565   1.010  -6.941  1.00  0.00     0.001 A 
HETATM   28  C18 UNL     1      64.230   0.696  -6.856  1.00  0.00     0.014 A 
HETATM   29  C19 UNL     1      63.263   1.528  -6.340  1.00  0.00     0.001 A 
BRANCH  29  30
HETATM   30  C20 UNL     1      61.872   1.133  -6.341  1.00  0.00    -0.024 A 
HETATM   31  C21 UNL     1      61.279   1.012  -7.598  1.00  0.00     0.012 A 
HETATM   32  C22 UNL     1      59.951   0.683  -7.750  1.00  0.00     0.001 A 
HETATM   33  C23 UNL     1      59.215   0.472  -6.586  1.00  0.00     0.000 A 
HETATM   34  C24 UNL     1      59.769   0.584  -5.345  1.00  0.00     0.001 A 
HETATM   35  C25 UNL     1      61.097   0.914  -5.233  1.00  0.00     0.012 A 
ENDBRANCH  29  30
ENDBRANCH   5  24
TORSDOF 5
ENDMDL
