MODEL 1
REMARK VINA RESULT: -10.319182987      0.000      0.000
REMARK  6 active torsions:
REMARK  status: ('A' for Active; 'I' for Inactive)
REMARK    1  A    between atoms: C4_8  and  C5_9 
REMARK    2  A    between atoms: C8_12  and  O1_13 
REMARK    3  A    between atoms: O1_13  and  C9_14 
REMARK    4  A    between atoms: C12_17  and  C13_18 
REMARK    5  A    between atoms: C19_26  and  N4_27 
REMARK    6  A    between atoms: N4_27  and  C20_29 
ROOT
HETATM    1  C5  UNL     1      64.736   1.256  -6.518  1.00  0.00    -0.020 A 
HETATM    2  C6  UNL     1      65.305   2.409  -6.035  1.00  0.00     0.015 A 
HETATM    3  C7  UNL     1      64.524   3.502  -5.772  1.00  0.00     0.040 A 
HETATM    4  C8  UNL     1      63.134   3.529  -5.966  1.00  0.00     0.102 A 
HETATM    5  C19 UNL     1      62.573   2.369  -6.450  1.00  0.00     0.067 A 
HETATM    6  C25 UNL     1      63.378   1.253  -6.718  1.00  0.00     0.044 A 
ENDROOT
BRANCH   4   7
HETATM    7  O1  UNL     1      62.430   4.689  -5.668  1.00  0.00    -0.309 OA
BRANCH   7   8
HETATM    8  C9  UNL     1      61.968   5.114  -4.473  1.00  0.00     0.076 A 
HETATM    9  C10 UNL     1      62.131   4.362  -3.337  1.00  0.00     0.038 A 
HETATM   10  C11 UNL     1      61.651   4.808  -2.098  1.00  0.00     0.016 A 
HETATM   11  C12 UNL     1      61.001   6.022  -2.018  1.00  0.00    -0.009 A 
HETATM   12  C17 UNL     1      60.847   6.758  -3.168  1.00  0.00     0.016 A 
HETATM   13  C18 UNL     1      61.307   6.348  -4.397  1.00  0.00     0.038 A 
BRANCH  11  14
HETATM   14  C13 UNL     1      60.499   6.491  -0.732  1.00  0.00     0.042 A 
HETATM   15  C14 UNL     1      60.435   5.762   0.436  1.00  0.00     0.031 A 
HETATM   16  C15 UNL     1      59.901   6.546   1.445  1.00  0.00     0.019 A 
HETATM   17  C16 UNL     1      59.641   7.770   0.858  1.00  0.00     0.088 A 
HETATM   18  N3  UNL     1      60.008   7.707  -0.436  1.00  0.00    -0.365 N 
ATOM     19  H3  UNL     1      59.924   8.476  -1.101  1.00  0.00     0.165 HD
ENDBRANCH  11  14
ENDBRANCH   7   8
ENDBRANCH   4   7
BRANCH   5  20
HETATM   20  N4  UNL     1      61.181   2.276  -6.690  1.00  0.00    -0.354 N 
ATOM     21  H4  UNL     1      60.870   2.011  -7.626  1.00  0.00     0.166 HD
BRANCH  20  22
HETATM   22  C20 UNL     1      60.285   2.508  -5.798  1.00  0.00     0.035 A 
HETATM   23  C21 UNL     1      60.238   1.730  -4.661  1.00  0.00     0.046 A 
HETATM   24  C22 UNL     1      59.280   1.960  -3.676  1.00  0.00     0.090 A 
HETATM   25  N5  UNL     1      58.383   2.947  -3.814  1.00  0.00    -0.375 N 
HETATM   26  C23 UNL     1      58.397   3.725  -4.905  1.00  0.00     0.090 A 
ATOM     27  H5  UNL     1      57.687   3.106  -3.086  1.00  0.00     0.164 HD
HETATM   28  C24 UNL     1      59.350   3.510  -5.905  1.00  0.00     0.046 A 
ENDBRANCH  20  22
ENDBRANCH   5  20
BRANCH   1  29
HETATM   29  C4  UNL     1      65.523   0.073  -6.811  1.00  0.00     0.015 A 
HETATM   30  C2  UNL     1      65.354  -1.149  -6.204  1.00  0.00     0.034 A 
HETATM   31  C1  UNL     1      64.363  -1.472  -5.168  1.00  0.00     0.070 C 
HETATM   32  N1  UNL     1      66.261  -2.031  -6.719  1.00  0.00    -0.305 N 
HETATM   33  N2  UNL     1      66.988  -1.394  -7.625  1.00  0.00    -0.311 N 
ATOM     34  H1  UNL     1      66.361  -3.010  -6.452  1.00  0.00     0.186 HD
HETATM   35  C3  UNL     1      66.558  -0.099  -7.705  1.00  0.00     0.121 A 
ATOM     36  H2  UNL     1      67.744  -1.803  -8.173  1.00  0.00     0.186 HD
ENDBRANCH   1  29
TORSDOF 6
ENDMDL
MODEL 2
REMARK VINA RESULT: -10.192186783      1.639      2.642
REMARK  6 active torsions:
REMARK  status: ('A' for Active; 'I' for Inactive)
REMARK    1  A    between atoms: C4_8  and  C5_9 
REMARK    2  A    between atoms: C8_12  and  O1_13 
REMARK    3  A    between atoms: O1_13  and  C9_14 
REMARK    4  A    between atoms: C12_17  and  C13_18 
REMARK    5  A    between atoms: C19_26  and  N4_27 
REMARK    6  A    between atoms: N4_27  and  C20_29 
ROOT
HETATM    1  C5  UNL     1      66.204  -0.006  -6.929  1.00  0.00    -0.020 A 
HETATM    2  C6  UNL     1      66.705   1.272  -6.922  1.00  0.00     0.015 A 
HETATM    3  C7  UNL     1      65.856   2.343  -7.003  1.00  0.00     0.040 A 
HETATM    4  C8  UNL     1      64.460   2.222  -7.095  1.00  0.00     0.102 A 
HETATM    5  C19 UNL     1      63.968   0.937  -7.102  1.00  0.00     0.067 A 
HETATM    6  C25 UNL     1      64.842  -0.155  -7.018  1.00  0.00     0.044 A 
ENDROOT
BRANCH   4   7
HETATM    7  O1  UNL     1      63.684   3.372  -7.173  1.00  0.00    -0.309 OA
BRANCH   7   8
HETATM    8  C9  UNL     1      63.101   4.067  -6.173  1.00  0.00     0.076 A 
HETATM    9  C10 UNL     1      62.083   4.953  -6.420  1.00  0.00     0.038 A 
HETATM   10  C11 UNL     1      61.479   5.672  -5.379  1.00  0.00     0.016 A 
HETATM   11  C12 UNL     1      61.916   5.488  -4.084  1.00  0.00    -0.009 A 
HETATM   12  C17 UNL     1      62.939   4.598  -3.860  1.00  0.00     0.016 A 
HETATM   13  C18 UNL     1      63.550   3.878  -4.859  1.00  0.00     0.038 A 
BRANCH  11  14
HETATM   14  C13 UNL     1      61.293   6.233  -2.997  1.00  0.00     0.042 A 
HETATM   15  C14 UNL     1      60.899   7.554  -3.031  1.00  0.00     0.031 A 
HETATM   16  C15 UNL     1      60.347   7.907  -1.811  1.00  0.00     0.019 A 
HETATM   17  C16 UNL     1      60.418   6.765  -1.034  1.00  0.00     0.088 A 
HETATM   18  N3  UNL     1      60.984   5.787  -1.767  1.00  0.00    -0.365 N 
ATOM     19  H3  UNL     1      61.155   4.838  -1.435  1.00  0.00     0.165 HD
ENDBRANCH  11  14
ENDBRANCH   7   8
ENDBRANCH   4   7
BRANCH   5  20
HETATM   20  N4  UNL     1      62.577   0.688  -7.195  1.00  0.00    -0.354 N 
ATOM     21  H4  UNL     1      62.220   0.264  -8.052  1.00  0.00     0.166 HD
BRANCH  20  22
HETATM   22  C20 UNL     1      61.738   0.967  -6.262  1.00  0.00     0.035 A 
HETATM   23  C21 UNL     1      60.536   1.561  -6.581  1.00  0.00     0.046 A 
HETATM   24  C22 UNL     1      59.606   1.872  -5.591  1.00  0.00     0.090 A 
HETATM   25  N5  UNL     1      59.862   1.596  -4.304  1.00  0.00    -0.375 N 
HETATM   26  C23 UNL     1      61.020   1.017  -3.955  1.00  0.00     0.090 A 
ATOM     27  H5  UNL     1      59.173   1.827  -3.588  1.00  0.00     0.164 HD
HETATM   28  C24 UNL     1      61.966   0.699  -4.933  1.00  0.00     0.046 A 
ENDBRANCH  20  22
ENDBRANCH   5  20
BRANCH   1  29
HETATM   29  C4  UNL     1      67.065  -1.171  -6.844  1.00  0.00     0.015 A 
HETATM   30  C2  UNL     1      67.620  -1.651  -5.682  1.00  0.00     0.034 A 
HETATM   31  C1  UNL     1      67.445  -1.081  -4.338  1.00  0.00     0.070 C 
HETATM   32  N1  UNL     1      68.371  -2.755  -5.970  1.00  0.00    -0.305 N 
HETATM   33  N2  UNL     1      68.299  -2.974  -7.274  1.00  0.00    -0.311 N 
ATOM     34  H1  UNL     1      68.895  -3.314  -5.296  1.00  0.00     0.186 HD
HETATM   35  C3  UNL     1      67.504  -2.018  -7.840  1.00  0.00     0.121 A 
ATOM     36  H2  UNL     1      68.763  -3.733  -7.774  1.00  0.00     0.186 HD
ENDBRANCH   1  29
TORSDOF 6
ENDMDL
MODEL 3
REMARK VINA RESULT: -10.098306052      0.719      1.119
REMARK  6 active torsions:
REMARK  status: ('A' for Active; 'I' for Inactive)
REMARK    1  A    between atoms: C4_8  and  C5_9 
REMARK    2  A    between atoms: C8_12  and  O1_13 
REMARK    3  A    between atoms: O1_13  and  C9_14 
REMARK    4  A    between atoms: C12_17  and  C13_18 
REMARK    5  A    between atoms: C19_26  and  N4_27 
REMARK    6  A    between atoms: N4_27  and  C20_29 
ROOT
HETATM    1  C5  UNL     1      65.138   0.685  -6.620  1.00  0.00    -0.020 A 
HETATM    2  C6  UNL     1      65.737   1.866  -6.256  1.00  0.00     0.015 A 
HETATM    3  C7  UNL     1      64.981   2.994  -6.081  1.00  0.00     0.040 A 
HETATM    4  C8  UNL     1      63.589   3.031  -6.254  1.00  0.00     0.102 A 
HETATM    5  C19 UNL     1      62.998   1.843  -6.619  1.00  0.00     0.067 A 
HETATM    6  C25 UNL     1      63.777   0.691  -6.796  1.00  0.00     0.044 A 
ENDROOT
BRANCH   4   7
HETATM    7  O1  UNL     1      62.912   4.227  -6.053  1.00  0.00    -0.309 OA
BRANCH   7   8
HETATM    8  C9  UNL     1      62.403   4.728  -4.908  1.00  0.00     0.076 A 
HETATM    9  C10 UNL     1      61.747   5.933  -4.886  1.00  0.00     0.038 A 
HETATM   10  C11 UNL     1      61.217   6.448  -3.695  1.00  0.00     0.016 A 
HETATM   11  C12 UNL     1      61.358   5.734  -2.524  1.00  0.00    -0.009 A 
HETATM   12  C17 UNL     1      62.020   4.530  -2.568  1.00  0.00     0.016 A 
HETATM   13  C18 UNL     1      62.549   3.999  -3.719  1.00  0.00     0.038 A 
BRANCH  11  14
HETATM   14  C13 UNL     1      60.810   6.264  -1.281  1.00  0.00     0.042 A 
HETATM   15  C14 UNL     1      60.811   5.636  -0.054  1.00  0.00     0.031 A 
HETATM   16  C15 UNL     1      60.203   6.451   0.887  1.00  0.00     0.019 A 
HETATM   17  C16 UNL     1      59.832   7.590   0.197  1.00  0.00     0.088 A 
HETATM   18  N3  UNL     1      60.207   7.450  -1.089  1.00  0.00    -0.365 N 
ATOM     19  H3  UNL     1      60.054   8.148  -1.817  1.00  0.00     0.165 HD
ENDBRANCH  11  14
ENDBRANCH   7   8
ENDBRANCH   4   7
BRANCH   5  20
HETATM   20  N4  UNL     1      61.599   1.756  -6.826  1.00  0.00    -0.354 N 
ATOM     21  H4  UNL     1      61.265   1.529  -7.764  1.00  0.00     0.166 HD
BRANCH  20  22
HETATM   22  C20 UNL     1      60.727   1.948  -5.902  1.00  0.00     0.035 A 
HETATM   23  C21 UNL     1      60.729   1.142  -4.785  1.00  0.00     0.046 A 
HETATM   24  C22 UNL     1      59.797   1.328  -3.766  1.00  0.00     0.090 A 
HETATM   25  N5  UNL     1      58.879   2.301  -3.852  1.00  0.00    -0.375 N 
HETATM   26  C23 UNL     1      58.845   3.107  -4.923  1.00  0.00     0.090 A 
ATOM     27  H5  UNL     1      58.202   2.428  -3.099  1.00  0.00     0.164 HD
HETATM   28  C24 UNL     1      59.771   2.935  -5.956  1.00  0.00     0.046 A 
ENDBRANCH  20  22
ENDBRANCH   5  20
BRANCH   1  29
HETATM   29  C4  UNL     1      65.897  -0.536  -6.815  1.00  0.00     0.015 A 
HETATM   30  C2  UNL     1      65.759  -1.673  -6.055  1.00  0.00     0.034 A 
HETATM   31  C1  UNL     1      64.834  -1.854  -4.928  1.00  0.00     0.070 C 
HETATM   32  N1  UNL     1      66.626  -2.623  -6.515  1.00  0.00    -0.305 N 
HETATM   33  N2  UNL     1      67.298  -2.110  -7.535  1.00  0.00    -0.311 N 
ATOM     34  H1  UNL     1      66.737  -3.564  -6.138  1.00  0.00     0.186 HD
HETATM   35  C3  UNL     1      66.873  -0.828  -7.745  1.00  0.00     0.121 A 
ATOM     36  H2  UNL     1      68.016  -2.593  -8.075  1.00  0.00     0.186 HD
ENDBRANCH   1  29
TORSDOF 6
ENDMDL
MODEL 4
REMARK VINA RESULT: -9.695683842      1.570      8.155
REMARK  6 active torsions:
REMARK  status: ('A' for Active; 'I' for Inactive)
REMARK    1  A    between atoms: C4_8  and  C5_9 
REMARK    2  A    between atoms: C8_12  and  O1_13 
REMARK    3  A    between atoms: O1_13  and  C9_14 
REMARK    4  A    between atoms: C12_17  and  C13_18 
REMARK    5  A    between atoms: C19_26  and  N4_27 
REMARK    6  A    between atoms: N4_27  and  C20_29 
ROOT
HETATM    1  C5  UNL     1      61.086   6.296  -3.153  1.00  0.00    -0.020 A 
HETATM    2  C6  UNL     1      62.226   6.763  -3.757  1.00  0.00     0.015 A 
HETATM    3  C7  UNL     1      62.670   6.191  -4.919  1.00  0.00     0.040 A 
HETATM    4  C8  UNL     1      62.019   5.125  -5.559  1.00  0.00     0.102 A 
HETATM    5  C19 UNL     1      60.877   4.665  -4.945  1.00  0.00     0.067 A 
HETATM    6  C25 UNL     1      60.427   5.254  -3.756  1.00  0.00     0.044 A 
ENDROOT
BRANCH   4   7
HETATM    7  O1  UNL     1      62.551   4.615  -6.737  1.00  0.00    -0.309 OA
BRANCH   7   8
HETATM    8  C9  UNL     1      63.375   3.559  -6.904  1.00  0.00     0.076 A 
HETATM    9  C10 UNL     1      63.405   2.857  -8.083  1.00  0.00     0.038 A 
HETATM   10  C11 UNL     1      64.265   1.763  -8.253  1.00  0.00     0.016 A 
HETATM   11  C12 UNL     1      65.094   1.383  -7.220  1.00  0.00    -0.009 A 
HETATM   12  C17 UNL     1      65.047   2.099  -6.047  1.00  0.00     0.016 A 
HETATM   13  C18 UNL     1      64.216   3.176  -5.850  1.00  0.00     0.038 A 
BRANCH  11  14
HETATM   14  C13 UNL     1      65.990   0.246  -7.390  1.00  0.00     0.042 A 
HETATM   15  C14 UNL     1      66.016  -0.897  -6.619  1.00  0.00     0.031 A 
HETATM   16  C15 UNL     1      67.002  -1.751  -7.085  1.00  0.00     0.019 A 
HETATM   17  C16 UNL     1      67.574  -1.096  -8.160  1.00  0.00     0.088 A 
HETATM   18  N3  UNL     1      66.951   0.088  -8.316  1.00  0.00    -0.365 N 
ATOM     19  H3  UNL     1      67.177   0.771  -9.040  1.00  0.00     0.165 HD
ENDBRANCH  11  14
ENDBRANCH   7   8
ENDBRANCH   4   7
BRANCH   5  20
HETATM   20  N4  UNL     1      60.135   3.591  -5.495  1.00  0.00    -0.354 N 
ATOM     21  H4  UNL     1      59.179   3.774  -5.804  1.00  0.00     0.166 HD
BRANCH  20  22
HETATM   22  C20 UNL     1      60.596   2.398  -5.627  1.00  0.00     0.035 A 
HETATM   23  C21 UNL     1      60.365   1.703  -6.794  1.00  0.00     0.046 A 
HETATM   24  C22 UNL     1      60.855   0.410  -6.967  1.00  0.00     0.090 A 
HETATM   25  N5  UNL     1      61.565  -0.185  -5.997  1.00  0.00    -0.375 N 
HETATM   26  C23 UNL     1      61.810   0.459  -4.847  1.00  0.00     0.090 A 
ATOM     27  H5  UNL     1      61.919  -1.131  -6.135  1.00  0.00     0.164 HD
HETATM   28  C24 UNL     1      61.327   1.756  -4.655  1.00  0.00     0.046 A 
ENDBRANCH  20  22
ENDBRANCH   5  20
BRANCH   1  29
HETATM   29  C4  UNL     1      60.576   6.871  -1.921  1.00  0.00     0.015 A 
HETATM   30  C2  UNL     1      60.704   6.296  -0.679  1.00  0.00     0.034 A 
HETATM   31  C1  UNL     1      61.367   5.019  -0.379  1.00  0.00     0.070 C 
HETATM   32  N1  UNL     1      60.111   7.105   0.248  1.00  0.00    -0.305 N 
HETATM   33  N2  UNL     1      59.619   8.162  -0.380  1.00  0.00    -0.311 N 
ATOM     34  H1  UNL     1      60.056   6.926   1.251  1.00  0.00     0.186 HD
HETATM   35  C3  UNL     1      59.889   8.048  -1.715  1.00  0.00     0.121 A 
ATOM     36  H2  UNL     1      59.120   8.935   0.060  1.00  0.00     0.186 HD
ENDBRANCH   1  29
TORSDOF 6
ENDMDL
MODEL 5
REMARK VINA RESULT: -9.440180291      1.819      2.972
REMARK  6 active torsions:
REMARK  status: ('A' for Active; 'I' for Inactive)
REMARK    1  A    between atoms: C4_8  and  C5_9 
REMARK    2  A    between atoms: C8_12  and  O1_13 
REMARK    3  A    between atoms: O1_13  and  C9_14 
REMARK    4  A    between atoms: C12_17  and  C13_18 
REMARK    5  A    between atoms: C19_26  and  N4_27 
REMARK    6  A    between atoms: N4_27  and  C20_29 
ROOT
HETATM    1  C5  UNL     1      64.711  -0.711  -6.274  1.00  0.00    -0.020 A 
HETATM    2  C6  UNL     1      64.168  -1.013  -5.050  1.00  0.00     0.015 A 
HETATM    3  C7  UNL     1      63.021  -0.390  -4.636  1.00  0.00     0.040 A 
HETATM    4  C8  UNL     1      62.337   0.568  -5.400  1.00  0.00     0.102 A 
HETATM    5  C19 UNL     1      62.889   0.864  -6.625  1.00  0.00     0.067 A 
HETATM    6  C25 UNL     1      64.063   0.223  -7.045  1.00  0.00     0.044 A 
ENDROOT
BRANCH   4   7
HETATM    7  O1  UNL     1      61.180   1.142  -4.889  1.00  0.00    -0.309 OA
BRANCH   7   8
HETATM    8  C9  UNL     1      61.050   2.254  -4.135  1.00  0.00     0.076 A 
HETATM    9  C10 UNL     1      59.826   2.842  -3.935  1.00  0.00     0.038 A 
HETATM   10  C11 UNL     1      59.695   3.995  -3.150  1.00  0.00     0.016 A 
HETATM   11  C12 UNL     1      60.814   4.552  -2.569  1.00  0.00    -0.009 A 
HETATM   12  C17 UNL     1      62.031   3.949  -2.783  1.00  0.00     0.016 A 
HETATM   13  C18 UNL     1      62.191   2.818  -3.547  1.00  0.00     0.038 A 
BRANCH  11  14
HETATM   14  C13 UNL     1      60.685   5.752  -1.751  1.00  0.00     0.042 A 
HETATM   15  C14 UNL     1      60.484   7.036  -2.210  1.00  0.00     0.031 A 
HETATM   16  C15 UNL     1      60.412   7.909  -1.137  1.00  0.00     0.019 A 
HETATM   17  C16 UNL     1      60.577   7.120  -0.014  1.00  0.00     0.088 A 
HETATM   18  N3  UNL     1      60.736   5.843  -0.411  1.00  0.00    -0.365 N 
ATOM     19  H3  UNL     1      60.876   5.052   0.219  1.00  0.00     0.165 HD
ENDBRANCH  11  14
ENDBRANCH   7   8
ENDBRANCH   4   7
BRANCH   5  20
HETATM   20  N4  UNL     1      62.291   1.817  -7.485  1.00  0.00    -0.354 N 
ATOM     21  H4  UNL     1      62.006   1.513  -8.417  1.00  0.00     0.166 HD
BRANCH  20  22
HETATM   22  C20 UNL     1      62.086   3.043  -7.158  1.00  0.00     0.035 A 
HETATM   23  C21 UNL     1      60.813   3.565  -7.234  1.00  0.00     0.046 A 
HETATM   24  C22 UNL     1      60.560   4.890  -6.884  1.00  0.00     0.090 A 
HETATM   25  N5  UNL     1      61.554   5.685  -6.464  1.00  0.00    -0.375 N 
HETATM   26  C23 UNL     1      62.806   5.214  -6.376  1.00  0.00     0.090 A 
ATOM     27  H5  UNL     1      61.357   6.653  -6.209  1.00  0.00     0.164 HD
HETATM   28  C24 UNL     1      63.080   3.888  -6.723  1.00  0.00     0.046 A 
ENDBRANCH  20  22
ENDBRANCH   5  20
BRANCH   1  29
HETATM   29  C4  UNL     1      65.924  -1.345  -6.757  1.00  0.00     0.015 A 
HETATM   30  C2  UNL     1      67.166  -0.756  -6.760  1.00  0.00     0.034 A 
HETATM   31  C1  UNL     1      67.485   0.597  -6.283  1.00  0.00     0.070 C 
HETATM   32  N1  UNL     1      68.073  -1.634  -7.281  1.00  0.00    -0.305 N 
HETATM   33  N2  UNL     1      67.432  -2.748  -7.602  1.00  0.00    -0.311 N 
ATOM     34  H1  UNL     1      69.071  -1.462  -7.402  1.00  0.00     0.186 HD
HETATM   35  C3  UNL     1      66.109  -2.602  -7.292  1.00  0.00     0.121 A 
ATOM     36  H2  UNL     1      67.856  -3.579  -8.014  1.00  0.00     0.186 HD
ENDBRANCH   1  29
TORSDOF 6
ENDMDL
