MODEL 1
REMARK VINA RESULT: -10.462243986      0.000      0.000
REMARK  14 active torsions:
REMARK  status: ('A' for Active; 'I' for Inactive)
REMARK    1  A    between atoms: C2_2  and  C3_3 
REMARK    2  A    between atoms: C2_2  and  C34_49 
REMARK    3  A    between atoms: C4_4  and  C5_5 
REMARK    4  A    between atoms: C5_5  and  C7_7 
REMARK    5  A    between atoms: C16_17  and  C18_19 
REMARK    6  A    between atoms: C18_19  and  N1_20 
REMARK       I    between atoms: N1_20  and  C19_22 
REMARK    7  A    between atoms: C19_22  and  C20_24 
REMARK    8  A    between atoms: C20_24  and  N2_25 
REMARK    9  A    between atoms: C20_24  and  C21_29 
REMARK   10  A    between atoms: C21_29  and  C22_30 
REMARK   11  A    between atoms: C22_30  and  C23_31 
REMARK   12  A    between atoms: C23_31  and  C24_32 
REMARK   13  A    between atoms: C24_32  and  N3_33 
REMARK       I    between atoms: N3_33  and  C25_35 
REMARK       I    between atoms: C25_35  and  N4_37 
REMARK   14  A    between atoms: C29_42  and  O4_43 
ROOT
HETATM    1  C7  UNL     1      40.849  42.860  52.121  1.00  0.00     0.093 C 
HETATM    2  C8  UNL     1      42.259  42.633  52.496  1.00  0.00     0.141 C 
HETATM    3  O1  UNL     1      43.269  43.276  52.515  1.00  0.00    -0.297 OA
HETATM    4  C9  UNL     1      41.820  41.219  52.839  1.00  0.00     0.072 C 
HETATM    5  C10 UNL     1      41.718  40.925  54.266  1.00  0.00     0.033 C 
HETATM    6  C11 UNL     1      41.771  42.107  55.201  1.00  0.00     0.009 C 
HETATM    7  C12 UNL     1      42.201  41.616  56.579  1.00  0.00     0.006 C 
HETATM    8  C13 UNL     1      41.819  40.183  56.763  1.00  0.00    -0.003 C 
HETATM    9  C14 UNL     1      41.427  39.849  58.197  1.00  0.00     0.006 C 
HETATM   10  C15 UNL     1      40.654  38.580  58.017  1.00  0.00     0.012 C 
HETATM   11  C16 UNL     1      40.345  38.441  56.536  1.00  0.00    -0.018 C 
HETATM   12  C17 UNL     1      41.304  37.449  55.981  1.00  0.00     0.018 C 
HETATM   13  C27 UNL     1      40.501  39.858  56.071  1.00  0.00    -0.000 C 
HETATM   14  C28 UNL     1      39.409  40.637  56.785  1.00  0.00     0.019 C 
HETATM   15  C29 UNL     1      40.531  40.065  54.600  1.00  0.00     0.071 C 
HETATM   16  C30 UNL     1      39.295  40.729  54.062  1.00  0.00     0.040 C 
HETATM   17  C31 UNL     1      39.307  40.970  52.597  1.00  0.00     0.014 C 
HETATM   18  C32 UNL     1      40.604  41.407  52.014  1.00  0.00    -0.019 C 
HETATM   19  C33 UNL     1      40.831  40.766  50.634  1.00  0.00     0.017 C 
ENDROOT
BRANCH  11  20
HETATM   20  C18 UNL     1      38.937  37.934  56.401  1.00  0.00     0.132 C 
BRANCH  20  21
HETATM   21  N1  UNL     1      38.927  36.984  55.277  1.00  0.00    -0.359 N 
HETATM   22  C19 UNL     1      38.228  35.756  55.370  1.00  0.00     0.248 C 
HETATM   23  O2  UNL     1      37.615  35.492  56.427  1.00  0.00    -0.271 OA
ATOM     24  H1  UNL     1      39.431  37.214  54.420  1.00  0.00     0.162 HD
BRANCH  22  25
HETATM   25  C20 UNL     1      38.231  34.815  54.234  1.00  0.00     0.274 C 
BRANCH  25  26
HETATM   26  N2  UNL     1      38.534  33.498  54.723  1.00  0.00    -0.067 N 
ATOM     27  H23 UNL     1      39.328  33.075  54.241  1.00  0.00     0.275 HD
ATOM     28  H22 UNL     1      38.931  33.513  55.663  1.00  0.00     0.275 HD
ATOM     29  H21 UNL     1      37.693  32.923  54.665  1.00  0.00     0.275 HD
ENDBRANCH  25  26
BRANCH  25  30
HETATM   30  C21 UNL     1      36.933  34.854  53.456  1.00  0.00     0.042 C 
BRANCH  30  31
HETATM   31  C22 UNL     1      37.088  35.537  52.117  1.00  0.00     0.004 C 
BRANCH  31  32
HETATM   32  C23 UNL     1      38.505  35.568  51.652  1.00  0.00     0.020 C 
BRANCH  32  33
HETATM   33  C24 UNL     1      38.611  35.808  50.157  1.00  0.00     0.124 C 
BRANCH  33  34
HETATM   34  N3  UNL     1      39.932  35.464  49.698  1.00  0.00    -0.343 N 
HETATM   35  C25 UNL     1      40.221  35.245  48.335  1.00  0.00     0.315 C 
HETATM   36  O3  UNL     1      39.303  35.354  47.508  1.00  0.00    -0.247 OA
HETATM   37  N4  UNL     1      41.521  34.907  47.911  1.00  0.00    -0.347 N 
HETATM   38  C26 UNL     1      41.770  34.692  46.505  1.00  0.00     0.151 C 
ATOM     39  H4  UNL     1      42.278  34.817  48.589  1.00  0.00     0.163 HD
ATOM     40  H3  UNL     1      40.684  35.376  50.381  1.00  0.00     0.164 HD
ENDBRANCH  33  34
ENDBRANCH  32  33
ENDBRANCH  31  32
ENDBRANCH  30  31
ENDBRANCH  25  30
ENDBRANCH  22  25
ENDBRANCH  20  21
ENDBRANCH  11  20
BRANCH  15  41
HETATM   41  O4  UNL     1      40.605  38.830  53.901  1.00  0.00    -0.389 OA
ATOM     42  H4  UNL     1      40.345  38.947  52.995  1.00  0.00     0.210 HD
ENDBRANCH  15  41
BRANCH   1  43
HETATM   43  C5  UNL     1      40.519  43.835  51.078  1.00  0.00    -0.072 C 
HETATM   44  C6  UNL     1      41.586  43.830  50.000  1.00  0.00     0.044 C 
BRANCH  43  45
HETATM   45  C4  UNL     1      40.037  45.158  51.449  1.00  0.00     0.004 C 
HETATM   46  C3  UNL     1      39.445  45.933  50.563  1.00  0.00     0.007 C 
BRANCH  46  47
HETATM   47  C2  UNL     1      38.922  47.270  50.817  1.00  0.00    -0.064 C 
HETATM   48  C1  UNL     1      37.754  47.352  51.427  1.00  0.00     0.019 C 
BRANCH  47  49
HETATM   49  C34 UNL     1      39.616  48.519  50.466  1.00  0.00     0.009 C 
HETATM   50  C35 UNL     1      40.833  48.345  49.612  1.00  0.00     0.014 C 
HETATM   51  C36 UNL     1      38.685  49.489  49.749  1.00  0.00     0.014 C 
ENDBRANCH  47  49
ENDBRANCH  46  47
ENDBRANCH  43  45
ENDBRANCH   1  43
TORSDOF 14
ENDMDL
MODEL 2
REMARK VINA RESULT: -10.420984798      0.896      1.270
REMARK  14 active torsions:
REMARK  status: ('A' for Active; 'I' for Inactive)
REMARK    1  A    between atoms: C2_2  and  C3_3 
REMARK    2  A    between atoms: C2_2  and  C34_49 
REMARK    3  A    between atoms: C4_4  and  C5_5 
REMARK    4  A    between atoms: C5_5  and  C7_7 
REMARK    5  A    between atoms: C16_17  and  C18_19 
REMARK    6  A    between atoms: C18_19  and  N1_20 
REMARK       I    between atoms: N1_20  and  C19_22 
REMARK    7  A    between atoms: C19_22  and  C20_24 
REMARK    8  A    between atoms: C20_24  and  N2_25 
REMARK    9  A    between atoms: C20_24  and  C21_29 
REMARK   10  A    between atoms: C21_29  and  C22_30 
REMARK   11  A    between atoms: C22_30  and  C23_31 
REMARK   12  A    between atoms: C23_31  and  C24_32 
REMARK   13  A    between atoms: C24_32  and  N3_33 
REMARK       I    between atoms: N3_33  and  C25_35 
REMARK       I    between atoms: C25_35  and  N4_37 
REMARK   14  A    between atoms: C29_42  and  O4_43 
ROOT
HETATM    1  C7  UNL     1      41.106  41.937  51.335  1.00  0.00     0.093 C 
HETATM    2  C8  UNL     1      42.482  41.551  51.713  1.00  0.00     0.141 C 
HETATM    3  O1  UNL     1      43.570  42.047  51.660  1.00  0.00    -0.297 OA
HETATM    4  C9  UNL     1      41.861  40.249  52.193  1.00  0.00     0.072 C 
HETATM    5  C10 UNL     1      41.755  40.104  53.642  1.00  0.00     0.033 C 
HETATM    6  C11 UNL     1      41.993  41.348  54.462  1.00  0.00     0.009 C 
HETATM    7  C12 UNL     1      42.385  40.930  55.874  1.00  0.00     0.006 C 
HETATM    8  C13 UNL     1      41.815  39.587  56.197  1.00  0.00    -0.003 C 
HETATM    9  C14 UNL     1      41.417  39.443  57.661  1.00  0.00     0.006 C 
HETATM   10  C15 UNL     1      40.473  38.283  57.610  1.00  0.00     0.012 C 
HETATM   11  C16 UNL     1      40.111  38.053  56.153  1.00  0.00    -0.018 C 
HETATM   12  C17 UNL     1      40.911  36.891  55.682  1.00  0.00     0.018 C 
HETATM   13  C27 UNL     1      40.448  39.387  55.554  1.00  0.00    -0.000 C 
HETATM   14  C28 UNL     1      39.492  40.372  56.205  1.00  0.00     0.019 C 
HETATM   15  C29 UNL     1      40.470  39.451  54.070  1.00  0.00     0.071 C 
HETATM   16  C30 UNL     1      39.324  40.228  53.487  1.00  0.00     0.040 C 
HETATM   17  C31 UNL     1      39.332  40.331  52.005  1.00  0.00     0.014 C 
HETATM   18  C32 UNL     1      40.663  40.528  51.368  1.00  0.00    -0.019 C 
HETATM   19  C33 UNL     1      40.765  39.738  50.052  1.00  0.00     0.017 C 
ENDROOT
BRANCH  11  20
HETATM   20  C18 UNL     1      38.644  37.736  56.082  1.00  0.00     0.132 C 
BRANCH  20  21
HETATM   21  N1  UNL     1      38.471  36.732  55.021  1.00  0.00    -0.359 N 
HETATM   22  C19 UNL     1      37.874  35.477  55.299  1.00  0.00     0.248 C 
HETATM   23  O2  UNL     1      37.493  35.238  56.466  1.00  0.00    -0.271 OA
ATOM     24  H1  UNL     1      38.784  36.942  54.073  1.00  0.00     0.162 HD
BRANCH  22  25
HETATM   25  C20 UNL     1      37.710  34.481  54.223  1.00  0.00     0.274 C 
BRANCH  25  26
HETATM   26  N2  UNL     1      36.830  33.443  54.682  1.00  0.00    -0.067 N 
ATOM     27  H23 UNL     1      36.663  33.489  55.688  1.00  0.00     0.275 HD
ATOM     28  H22 UNL     1      35.868  33.583  54.372  1.00  0.00     0.275 HD
ATOM     29  H21 UNL     1      37.205  32.540  54.392  1.00  0.00     0.275 HD
ENDBRANCH  25  26
BRANCH  25  30
HETATM   30  C21 UNL     1      37.233  35.109  52.931  1.00  0.00     0.042 C 
BRANCH  30  31
HETATM   31  C22 UNL     1      38.277  35.041  51.840  1.00  0.00     0.004 C 
BRANCH  31  32
HETATM   32  C23 UNL     1      38.429  36.336  51.114  1.00  0.00     0.020 C 
BRANCH  32  33
HETATM   33  C24 UNL     1      38.694  36.133  49.634  1.00  0.00     0.124 C 
BRANCH  33  34
HETATM   34  N3  UNL     1      40.033  35.638  49.439  1.00  0.00    -0.343 N 
HETATM   35  C25 UNL     1      40.493  35.191  48.185  1.00  0.00     0.315 C 
HETATM   36  O3  UNL     1      39.717  35.226  47.218  1.00  0.00    -0.247 OA
HETATM   37  N4  UNL     1      41.808  34.709  48.020  1.00  0.00    -0.347 N 
HETATM   38  C26 UNL     1      42.236  34.261  46.716  1.00  0.00     0.151 C 
ATOM     39  H4  UNL     1      42.448  34.678  48.813  1.00  0.00     0.163 HD
ATOM     40  H3  UNL     1      40.669  35.610  50.236  1.00  0.00     0.164 HD
ENDBRANCH  33  34
ENDBRANCH  32  33
ENDBRANCH  31  32
ENDBRANCH  30  31
ENDBRANCH  25  30
ENDBRANCH  22  25
ENDBRANCH  20  21
ENDBRANCH  11  20
BRANCH  15  41
HETATM   41  O4  UNL     1      40.356  38.159  53.489  1.00  0.00    -0.389 OA
ATOM     42  H4  UNL     1      40.089  37.525  54.145  1.00  0.00     0.210 HD
ENDBRANCH  15  41
BRANCH   1  43
HETATM   43  C5  UNL     1      40.888  42.848  50.210  1.00  0.00    -0.072 C 
HETATM   44  C6  UNL     1      42.118  42.891  49.324  1.00  0.00     0.044 C 
BRANCH  43  45
HETATM   45  C4  UNL     1      40.256  44.141  50.435  1.00  0.00     0.004 C 
HETATM   46  C3  UNL     1      40.805  45.248  49.979  1.00  0.00     0.007 C 
BRANCH  46  47
HETATM   47  C2  UNL     1      40.267  46.593  50.141  1.00  0.00    -0.064 C 
HETATM   48  C1  UNL     1      41.076  47.601  49.872  1.00  0.00     0.019 C 
BRANCH  47  49
HETATM   49  C34 UNL     1      38.887  46.897  50.553  1.00  0.00     0.009 C 
HETATM   50  C35 UNL     1      38.547  46.501  51.956  1.00  0.00     0.014 C 
HETATM   51  C36 UNL     1      38.577  48.381  50.405  1.00  0.00     0.014 C 
ENDBRANCH  47  49
ENDBRANCH  46  47
ENDBRANCH  43  45
ENDBRANCH   1  43
TORSDOF 14
ENDMDL
MODEL 3
REMARK VINA RESULT: -10.254958868      2.799      5.229
REMARK  14 active torsions:
REMARK  status: ('A' for Active; 'I' for Inactive)
REMARK    1  A    between atoms: C2_2  and  C3_3 
REMARK    2  A    between atoms: C2_2  and  C34_49 
REMARK    3  A    between atoms: C4_4  and  C5_5 
REMARK    4  A    between atoms: C5_5  and  C7_7 
REMARK    5  A    between atoms: C16_17  and  C18_19 
REMARK    6  A    between atoms: C18_19  and  N1_20 
REMARK       I    between atoms: N1_20  and  C19_22 
REMARK    7  A    between atoms: C19_22  and  C20_24 
REMARK    8  A    between atoms: C20_24  and  N2_25 
REMARK    9  A    between atoms: C20_24  and  C21_29 
REMARK   10  A    between atoms: C21_29  and  C22_30 
REMARK   11  A    between atoms: C22_30  and  C23_31 
REMARK   12  A    between atoms: C23_31  and  C24_32 
REMARK   13  A    between atoms: C24_32  and  N3_33 
REMARK       I    between atoms: N3_33  and  C25_35 
REMARK       I    between atoms: C25_35  and  N4_37 
REMARK   14  A    between atoms: C29_42  and  O4_43 
ROOT
HETATM    1  C7  UNL     1      41.423  43.567  54.858  1.00  0.00     0.093 C 
HETATM    2  C8  UNL     1      42.381  43.063  55.865  1.00  0.00     0.141 C 
HETATM    3  O1  UNL     1      42.985  43.515  56.793  1.00  0.00    -0.297 OA
HETATM    4  C9  UNL     1      42.228  41.720  55.168  1.00  0.00     0.072 C 
HETATM    5  C10 UNL     1      41.431  40.730  55.886  1.00  0.00     0.033 C 
HETATM    6  C11 UNL     1      40.628  41.236  57.059  1.00  0.00     0.009 C 
HETATM    7  C12 UNL     1      40.328  40.061  57.983  1.00  0.00     0.006 C 
HETATM    8  C13 UNL     1      40.315  38.782  57.211  1.00  0.00    -0.003 C 
HETATM    9  C14 UNL     1      39.298  37.777  57.737  1.00  0.00     0.006 C 
HETATM   10  C15 UNL     1      39.138  36.860  56.565  1.00  0.00     0.012 C 
HETATM   11  C16 UNL     1      39.761  37.545  55.361  1.00  0.00    -0.018 C 
HETATM   12  C17 UNL     1      41.093  36.918  55.143  1.00  0.00     0.018 C 
HETATM   13  C27 UNL     1      39.758  38.977  55.807  1.00  0.00    -0.000 C 
HETATM   14  C28 UNL     1      38.292  39.350  55.948  1.00  0.00     0.019 C 
HETATM   15  C29 UNL     1      40.548  39.922  54.976  1.00  0.00     0.071 C 
HETATM   16  C30 UNL     1      39.701  40.868  54.172  1.00  0.00     0.040 C 
HETATM   17  C31 UNL     1      40.464  41.841  53.350  1.00  0.00     0.014 C 
HETATM   18  C32 UNL     1      41.687  42.412  53.975  1.00  0.00    -0.019 C 
HETATM   19  C33 UNL     1      42.810  42.575  52.937  1.00  0.00     0.017 C 
ENDROOT
BRANCH  11  20
HETATM   20  C18 UNL     1      38.872  37.300  54.175  1.00  0.00     0.132 C 
BRANCH  20  21
HETATM   21  N1  UNL     1      38.260  35.975  54.362  1.00  0.00    -0.359 N 
HETATM   22  C19 UNL     1      37.955  35.153  53.250  1.00  0.00     0.248 C 
HETATM   23  O2  UNL     1      38.219  35.572  52.102  1.00  0.00    -0.271 OA
ATOM     24  H1  UNL     1      38.052  35.645  55.304  1.00  0.00     0.162 HD
BRANCH  22  25
HETATM   25  C20 UNL     1      37.339  33.828  53.455  1.00  0.00     0.274 C 
BRANCH  25  26
HETATM   26  N2  UNL     1      38.380  32.841  53.545  1.00  0.00    -0.067 N 
ATOM     27  H23 UNL     1      39.104  32.972  52.838  1.00  0.00     0.275 HD
ATOM     28  H22 UNL     1      38.965  32.966  54.371  1.00  0.00     0.275 HD
ATOM     29  H21 UNL     1      37.959  31.913  53.503  1.00  0.00     0.275 HD
ENDBRANCH  25  26
BRANCH  25  30
HETATM   30  C21 UNL     1      36.421  33.806  54.658  1.00  0.00     0.042 C 
BRANCH  30  31
HETATM   31  C22 UNL     1      35.042  34.334  54.337  1.00  0.00     0.004 C 
BRANCH  31  32
HETATM   32  C23 UNL     1      34.766  35.645  54.996  1.00  0.00     0.020 C 
BRANCH  32  33
HETATM   33  C24 UNL     1      35.159  35.641  56.461  1.00  0.00     0.124 C 
BRANCH  33  34
HETATM   34  N3  UNL     1      34.149  34.969  57.238  1.00  0.00    -0.343 N 
HETATM   35  C25 UNL     1      33.221  35.672  58.033  1.00  0.00     0.315 C 
HETATM   36  O3  UNL     1      33.279  36.911  58.061  1.00  0.00    -0.247 OA
HETATM   37  N4  UNL     1      32.243  34.991  58.786  1.00  0.00    -0.347 N 
HETATM   38  C26 UNL     1      31.313  35.753  59.585  1.00  0.00     0.151 C 
ATOM     39  H4  UNL     1      32.193  33.973  58.765  1.00  0.00     0.163 HD
ATOM     40  H3  UNL     1      34.104  33.950  57.213  1.00  0.00     0.164 HD
ENDBRANCH  33  34
ENDBRANCH  32  33
ENDBRANCH  31  32
ENDBRANCH  30  31
ENDBRANCH  25  30
ENDBRANCH  22  25
ENDBRANCH  20  21
ENDBRANCH  11  20
BRANCH  15  41
HETATM   41  O4  UNL     1      41.333  39.237  54.009  1.00  0.00    -0.389 OA
ATOM     42  H4  UNL     1      40.875  39.204  53.176  1.00  0.00     0.210 HD
ENDBRANCH  15  41
BRANCH   1  43
HETATM   43  C5  UNL     1      41.483  44.967  54.432  1.00  0.00    -0.072 C 
HETATM   44  C6  UNL     1      41.252  45.886  55.616  1.00  0.00     0.044 C 
BRANCH  43  45
HETATM   45  C4  UNL     1      40.818  45.380  53.203  1.00  0.00     0.004 C 
HETATM   46  C3  UNL     1      41.514  45.830  52.179  1.00  0.00     0.007 C 
BRANCH  46  47
HETATM   47  C2  UNL     1      40.961  46.268  50.903  1.00  0.00    -0.064 C 
HETATM   48  C1  UNL     1      41.473  45.732  49.810  1.00  0.00     0.019 C 
BRANCH  47  49
HETATM   49  C34 UNL     1      39.863  47.238  50.757  1.00  0.00     0.009 C 
HETATM   50  C35 UNL     1      40.170  48.408  49.874  1.00  0.00     0.014 C 
HETATM   51  C36 UNL     1      38.602  46.573  50.220  1.00  0.00     0.014 C 
ENDBRANCH  47  49
ENDBRANCH  46  47
ENDBRANCH  43  45
ENDBRANCH   1  43
TORSDOF 14
ENDMDL
MODEL 4
REMARK VINA RESULT: -10.216867668      1.876      2.858
REMARK  14 active torsions:
REMARK  status: ('A' for Active; 'I' for Inactive)
REMARK    1  A    between atoms: C2_2  and  C3_3 
REMARK    2  A    between atoms: C2_2  and  C34_49 
REMARK    3  A    between atoms: C4_4  and  C5_5 
REMARK    4  A    between atoms: C5_5  and  C7_7 
REMARK    5  A    between atoms: C16_17  and  C18_19 
REMARK    6  A    between atoms: C18_19  and  N1_20 
REMARK       I    between atoms: N1_20  and  C19_22 
REMARK    7  A    between atoms: C19_22  and  C20_24 
REMARK    8  A    between atoms: C20_24  and  N2_25 
REMARK    9  A    between atoms: C20_24  and  C21_29 
REMARK   10  A    between atoms: C21_29  and  C22_30 
REMARK   11  A    between atoms: C22_30  and  C23_31 
REMARK   12  A    between atoms: C23_31  and  C24_32 
REMARK   13  A    between atoms: C24_32  and  N3_33 
REMARK       I    between atoms: N3_33  and  C25_35 
REMARK       I    between atoms: C25_35  and  N4_37 
REMARK   14  A    between atoms: C29_42  and  O4_43 
ROOT
HETATM    1  C7  UNL     1      41.348  43.706  54.744  1.00  0.00     0.093 C 
HETATM    2  C8  UNL     1      42.385  43.157  55.642  1.00  0.00     0.141 C 
HETATM    3  O1  UNL     1      43.102  43.578  56.503  1.00  0.00    -0.297 OA
HETATM    4  C9  UNL     1      42.106  41.827  54.961  1.00  0.00     0.072 C 
HETATM    5  C10 UNL     1      41.350  40.863  55.756  1.00  0.00     0.033 C 
HETATM    6  C11 UNL     1      40.696  41.391  57.009  1.00  0.00     0.009 C 
HETATM    7  C12 UNL     1      40.448  40.223  57.956  1.00  0.00     0.006 C 
HETATM    8  C13 UNL     1      40.302  38.951  57.185  1.00  0.00    -0.003 C 
HETATM    9  C14 UNL     1      39.306  37.983  57.812  1.00  0.00     0.006 C 
HETATM   10  C15 UNL     1      38.987  37.082  56.660  1.00  0.00     0.012 C 
HETATM   11  C16 UNL     1      39.507  37.751  55.400  1.00  0.00    -0.018 C 
HETATM   12  C17 UNL     1      40.782  37.073  55.040  1.00  0.00     0.018 C 
HETATM   13  C27 UNL     1      39.609  39.179  55.848  1.00  0.00    -0.000 C 
HETATM   14  C28 UNL     1      38.182  39.609  56.144  1.00  0.00     0.019 C 
HETATM   15  C29 UNL     1      40.344  40.098  54.941  1.00  0.00     0.071 C 
HETATM   16  C30 UNL     1      39.455  41.082  54.235  1.00  0.00     0.040 C 
HETATM   17  C31 UNL     1      40.166  42.031  53.340  1.00  0.00     0.014 C 
HETATM   18  C32 UNL     1      41.470  42.548  53.834  1.00  0.00    -0.019 C 
HETATM   19  C33 UNL     1      42.483  42.675  52.684  1.00  0.00     0.017 C 
ENDROOT
BRANCH  11  20
HETATM   20  C18 UNL     1      38.488  37.551  54.314  1.00  0.00     0.132 C 
BRANCH  20  21
HETATM   21  N1  UNL     1      39.218  37.108  53.115  1.00  0.00    -0.359 N 
HETATM   22  C19 UNL     1      38.548  36.438  52.063  1.00  0.00     0.248 C 
HETATM   23  O2  UNL     1      37.320  36.230  52.169  1.00  0.00    -0.271 OA
ATOM     24  H1  UNL     1      40.220  37.286  53.042  1.00  0.00     0.162 HD
BRANCH  22  25
HETATM   25  C20 UNL     1      39.296  35.999  50.870  1.00  0.00     0.274 C 
BRANCH  25  26
HETATM   26  N2  UNL     1      39.143  34.578  50.722  1.00  0.00    -0.067 N 
ATOM     27  H23 UNL     1      38.740  34.141  51.552  1.00  0.00     0.275 HD
ATOM     28  H22 UNL     1      38.407  34.332  50.061  1.00  0.00     0.275 HD
ATOM     29  H21 UNL     1      40.044  34.174  50.470  1.00  0.00     0.275 HD
ENDBRANCH  25  26
BRANCH  25  30
HETATM   30  C21 UNL     1      38.879  36.753  49.625  1.00  0.00     0.042 C 
BRANCH  30  31
HETATM   31  C22 UNL     1      39.436  38.158  49.592  1.00  0.00     0.004 C 
BRANCH  31  32
HETATM   32  C23 UNL     1      40.877  38.210  49.975  1.00  0.00     0.020 C 
BRANCH  32  33
HETATM   33  C24 UNL     1      41.790  37.894  48.804  1.00  0.00     0.124 C 
BRANCH  33  34
HETATM   34  N3  UNL     1      42.234  36.526  48.884  1.00  0.00    -0.343 N 
HETATM   35  C25 UNL     1      42.394  35.720  47.738  1.00  0.00     0.315 C 
HETATM   36  O3  UNL     1      42.144  36.210  46.626  1.00  0.00    -0.247 OA
HETATM   37  N4  UNL     1      42.828  34.383  47.842  1.00  0.00    -0.347 N 
HETATM   38  C26 UNL     1      42.978  33.595  46.641  1.00  0.00     0.151 C 
ATOM     39  H4  UNL     1      43.034  33.978  48.755  1.00  0.00     0.163 HD
ATOM     40  H3  UNL     1      42.439  36.126  49.799  1.00  0.00     0.164 HD
ENDBRANCH  33  34
ENDBRANCH  32  33
ENDBRANCH  31  32
ENDBRANCH  30  31
ENDBRANCH  25  30
ENDBRANCH  22  25
ENDBRANCH  20  21
ENDBRANCH  11  20
BRANCH  15  41
HETATM   41  O4  UNL     1      40.994  39.390  53.894  1.00  0.00    -0.389 OA
ATOM     42  H4  UNL     1      41.258  38.528  54.194  1.00  0.00     0.210 HD
ENDBRANCH  15  41
BRANCH   1  43
HETATM   43  C5  UNL     1      41.419  45.105  54.318  1.00  0.00    -0.072 C 
HETATM   44  C6  UNL     1      40.362  45.925  55.034  1.00  0.00     0.044 C 
BRANCH  43  45
HETATM   45  C4  UNL     1      41.585  45.427  52.907  1.00  0.00     0.004 C 
HETATM   46  C3  UNL     1      40.555  45.803  52.176  1.00  0.00     0.007 C 
BRANCH  46  47
HETATM   47  C2  UNL     1      40.600  46.151  50.761  1.00  0.00    -0.064 C 
HETATM   48  C1  UNL     1      41.406  45.441  49.993  1.00  0.00     0.019 C 
BRANCH  47  49
HETATM   49  C34 UNL     1      39.793  47.211  50.135  1.00  0.00     0.009 C 
HETATM   50  C35 UNL     1      38.608  47.656  50.936  1.00  0.00     0.014 C 
HETATM   51  C36 UNL     1      40.635  48.444  49.833  1.00  0.00     0.014 C 
ENDBRANCH  47  49
ENDBRANCH  46  47
ENDBRANCH  43  45
ENDBRANCH   1  43
TORSDOF 14
ENDMDL
MODEL 5
REMARK VINA RESULT: -10.102124404      3.114      7.919
REMARK  14 active torsions:
REMARK  status: ('A' for Active; 'I' for Inactive)
REMARK    1  A    between atoms: C2_2  and  C3_3 
REMARK    2  A    between atoms: C2_2  and  C34_49 
REMARK    3  A    between atoms: C4_4  and  C5_5 
REMARK    4  A    between atoms: C5_5  and  C7_7 
REMARK    5  A    between atoms: C16_17  and  C18_19 
REMARK    6  A    between atoms: C18_19  and  N1_20 
REMARK       I    between atoms: N1_20  and  C19_22 
REMARK    7  A    between atoms: C19_22  and  C20_24 
REMARK    8  A    between atoms: C20_24  and  N2_25 
REMARK    9  A    between atoms: C20_24  and  C21_29 
REMARK   10  A    between atoms: C21_29  and  C22_30 
REMARK   11  A    between atoms: C22_30  and  C23_31 
REMARK   12  A    between atoms: C23_31  and  C24_32 
REMARK   13  A    between atoms: C24_32  and  N3_33 
REMARK       I    between atoms: N3_33  and  C25_35 
REMARK       I    between atoms: C25_35  and  N4_37 
REMARK   14  A    between atoms: C29_42  and  O4_43 
ROOT
HETATM    1  C7  UNL     1      38.117  36.844  52.957  1.00  0.00     0.093 C 
HETATM    2  C8  UNL     1      37.069  37.091  53.969  1.00  0.00     0.141 C 
HETATM    3  O1  UNL     1      36.161  36.477  54.449  1.00  0.00    -0.297 OA
HETATM    4  C9  UNL     1      37.689  38.472  54.105  1.00  0.00     0.072 C 
HETATM    5  C10 UNL     1      38.473  38.689  55.317  1.00  0.00     0.033 C 
HETATM    6  C11 UNL     1      38.814  37.462  56.125  1.00  0.00     0.009 C 
HETATM    7  C12 UNL     1      39.119  37.893  57.556  1.00  0.00     0.006 C 
HETATM    8  C13 UNL     1      39.613  39.303  57.580  1.00  0.00    -0.003 C 
HETATM    9  C14 UNL     1      40.657  39.552  58.661  1.00  0.00     0.006 C 
HETATM   10  C15 UNL     1      41.312  40.806  58.173  1.00  0.00     0.012 C 
HETATM   11  C16 UNL     1      40.884  41.013  56.731  1.00  0.00    -0.018 C 
HETATM   12  C17 UNL     1      39.827  42.059  56.735  1.00  0.00     0.018 C 
HETATM   13  C27 UNL     1      40.455  39.626  56.352  1.00  0.00    -0.000 C 
HETATM   14  C28 UNL     1      41.715  38.781  56.431  1.00  0.00     0.019 C 
HETATM   15  C29 UNL     1      39.716  39.497  55.069  1.00  0.00     0.071 C 
HETATM   16  C30 UNL     1      40.511  38.827  53.984  1.00  0.00     0.040 C 
HETATM   17  C31 UNL     1      39.790  38.662  52.696  1.00  0.00     0.014 C 
HETATM   18  C32 UNL     1      38.352  38.293  52.792  1.00  0.00    -0.019 C 
HETATM   19  C33 UNL     1      37.526  39.011  51.711  1.00  0.00     0.017 C 
ENDROOT
BRANCH  11  20
HETATM   20  C18 UNL     1      42.080  41.486  55.954  1.00  0.00     0.132 C 
BRANCH  20  21
HETATM   21  N1  UNL     1      41.661  42.679  55.202  1.00  0.00    -0.359 N 
HETATM   22  C19 UNL     1      42.192  43.956  55.509  1.00  0.00     0.248 C 
HETATM   23  O2  UNL     1      43.029  44.052  56.433  1.00  0.00    -0.271 OA
ATOM     24  H1  UNL     1      40.978  42.586  54.449  1.00  0.00     0.162 HD
BRANCH  22  25
HETATM   25  C20 UNL     1      41.758  45.141  54.746  1.00  0.00     0.274 C 
BRANCH  25  26
HETATM   26  N2  UNL     1      42.879  45.653  54.006  1.00  0.00    -0.067 N 
ATOM     27  H23 UNL     1      43.386  44.920  53.509  1.00  0.00     0.275 HD
ATOM     28  H22 UNL     1      42.592  46.202  53.196  1.00  0.00     0.275 HD
ATOM     29  H21 UNL     1      43.480  46.179  54.640  1.00  0.00     0.275 HD
ENDBRANCH  25  26
BRANCH  25  30
HETATM   30  C21 UNL     1      40.570  44.845  53.856  1.00  0.00     0.042 C 
BRANCH  30  31
HETATM   31  C22 UNL     1      40.490  45.783  52.674  1.00  0.00     0.004 C 
BRANCH  31  32
HETATM   32  C23 UNL     1      40.290  45.059  51.384  1.00  0.00     0.020 C 
BRANCH  32  33
HETATM   33  C24 UNL     1      41.606  44.707  50.717  1.00  0.00     0.124 C 
BRANCH  33  34
HETATM   34  N3  UNL     1      41.702  43.280  50.544  1.00  0.00    -0.343 N 
HETATM   35  C25 UNL     1      42.501  42.474  51.379  1.00  0.00     0.315 C 
HETATM   36  O3  UNL     1      43.143  43.015  52.292  1.00  0.00    -0.247 OA
HETATM   37  N4  UNL     1      42.579  41.079  51.188  1.00  0.00    -0.347 N 
HETATM   38  C26 UNL     1      43.412  40.293  52.068  1.00  0.00     0.151 C 
ATOM     39  H4  UNL     1      42.054  40.632  50.438  1.00  0.00     0.163 HD
ATOM     40  H3  UNL     1      41.173  42.838  49.793  1.00  0.00     0.164 HD
ENDBRANCH  33  34
ENDBRANCH  32  33
ENDBRANCH  31  32
ENDBRANCH  30  31
ENDBRANCH  25  30
ENDBRANCH  22  25
ENDBRANCH  20  21
ENDBRANCH  11  20
BRANCH  15  41
HETATM   41  O4  UNL     1      39.380  40.768  54.530  1.00  0.00    -0.389 OA
ATOM     42  H4  UNL     1      39.316  40.719  53.584  1.00  0.00     0.210 HD
ENDBRANCH  15  41
BRANCH   1  43
HETATM   43  C5  UNL     1      37.860  35.915  51.853  1.00  0.00    -0.072 C 
HETATM   44  C6  UNL     1      37.910  34.483  52.351  1.00  0.00     0.044 C 
BRANCH  43  45
HETATM   45  C4  UNL     1      38.496  36.131  50.561  1.00  0.00     0.004 C 
HETATM   46  C3  UNL     1      39.780  35.890  50.392  1.00  0.00     0.007 C 
BRANCH  46  47
HETATM   47  C2  UNL     1      40.523  36.066  49.150  1.00  0.00    -0.064 C 
HETATM   48  C1  UNL     1      40.180  35.299  48.132  1.00  0.00     0.019 C 
BRANCH  47  49
HETATM   49  C34 UNL     1      41.599  37.050  48.952  1.00  0.00     0.009 C 
HETATM   50  C35 UNL     1      41.155  38.480  48.972  1.00  0.00     0.014 C 
HETATM   51  C36 UNL     1      42.695  36.893  49.999  1.00  0.00     0.014 C 
ENDBRANCH  47  49
ENDBRANCH  46  47
ENDBRANCH  43  45
ENDBRANCH   1  43
TORSDOF 14
ENDMDL
