MODEL 1
REMARK VINA RESULT: -8.300639234      0.000      0.000
REMARK  5 active torsions:
REMARK  status: ('A' for Active; 'I' for Inactive)
REMARK    1  A    between atoms: C5_5  and  C6_6 
REMARK    2  A    between atoms: C6_6  and  C7_7 
REMARK    3  A    between atoms: C12_17  and  N2_18 
REMARK    4  A    between atoms: N3_21  and  C13_22 
REMARK    5  A    between atoms: C13_22  and  C14_23 
ROOT
HETATM    1  C1  UNL     1      86.555  32.400   9.569  1.00  0.00     0.046 C 
HETATM    2  C2  UNL     1      87.055  32.690  10.983  1.00  0.00     0.125 C 
HETATM    3  C3  UNL     1      87.233  31.349  11.648  1.00  0.00     0.046 C 
HETATM    4  C4  UNL     1      86.024  33.571  11.684  1.00  0.00     0.081 C 
HETATM    5  C5  UNL     1      86.584  34.119  12.924  1.00  0.00     0.095 C 
HETATM    6  O1  UNL     1      87.745  33.361  13.223  1.00  0.00    -0.339 OA
HETATM    7  C8  UNL     1      88.681  33.771  12.281  1.00  0.00     0.361 C 
HETATM    8  N1  UNL     1      88.311  33.406  10.924  1.00  0.00    -0.036 N 
ATOM      9  H11 UNL     1      88.280  34.207  10.294  1.00  0.00     0.281 HD
ATOM     10  H12 UNL     1      89.042  32.882  10.443  1.00  0.00     0.281 HD
HETATM   11  C9  UNL     1      88.551  35.250  12.347  1.00  0.00     0.046 A 
HETATM   12  C10 UNL     1      87.251  35.473  12.717  1.00  0.00    -0.006 A 
HETATM   13  C11 UNL     1      86.867  36.777  12.832  1.00  0.00     0.059 A 
HETATM   14  C12 UNL     1      87.786  37.819  12.575  1.00  0.00     0.106 A 
HETATM   15  N3  UNL     1      89.052  37.616  12.213  1.00  0.00    -0.297 N 
HETATM   16  C20 UNL     1      89.415  36.290  12.109  1.00  0.00     0.122 A 
HETATM   17 CL3  UNL     1      91.109  35.921  11.727  1.00  0.00    -0.063 Cl
ENDROOT
BRANCH  15  18
HETATM   18  C13 UNL     1      90.066  38.600  11.984  1.00  0.00     0.113 C 
BRANCH  18  19
HETATM   19  C14 UNL     1      90.128  39.775  12.830  1.00  0.00     0.002 A 
HETATM   20  C15 UNL     1      90.502  39.756  14.149  1.00  0.00     0.014 A 
HETATM   21  C16 UNL     1      90.662  40.908  14.927  1.00  0.00     0.001 A 
HETATM   22  C17 UNL     1      90.441  42.138  14.369  1.00  0.00     0.002 A 
HETATM   23  C18 UNL     1      90.068  42.197  13.067  1.00  0.00     0.024 A 
HETATM   24  C19 UNL     1      89.910  41.045  12.303  1.00  0.00     0.045 A 
HETATM   25 CL2  UNL     1      89.277  41.333  10.685  1.00  0.00    -0.083 Cl
ENDBRANCH  18  19
ENDBRANCH  15  18
BRANCH  14  26
HETATM   26  N2  UNL     1      87.342  38.994  12.703  1.00  0.00    -0.385 N 
ATOM     27  H22 UNL     1      86.405  39.151  13.072  1.00  0.00     0.157 HD
ATOM     28  H21 UNL     1      87.973  39.744  12.421  1.00  0.00     0.157 HD
ENDBRANCH  14  26
BRANCH   5  29
HETATM   29  C6  UNL     1      85.787  34.187  14.151  1.00  0.00     0.058 C 
BRANCH  29  30
HETATM   30  C7  UNL     1      85.050  33.044  14.684  1.00  0.00     0.118 C 
HETATM   31 CL1  UNL     1      84.275  33.250  16.261  1.00  0.00    -0.130 Cl
ENDBRANCH  29  30
ENDBRANCH   5  29
TORSDOF 5
ENDMDL
MODEL 2
REMARK VINA RESULT: -8.214132114      2.950      5.183
REMARK  5 active torsions:
REMARK  status: ('A' for Active; 'I' for Inactive)
REMARK    1  A    between atoms: C5_5  and  C6_6 
REMARK    2  A    between atoms: C6_6  and  C7_7 
REMARK    3  A    between atoms: C12_17  and  N2_18 
REMARK    4  A    between atoms: N3_21  and  C13_22 
REMARK    5  A    between atoms: C13_22  and  C14_23 
ROOT
HETATM    1  C1  UNL     1      85.324  27.705  12.799  1.00  0.00     0.046 C 
HETATM    2  C2  UNL     1      84.766  29.021  12.260  1.00  0.00     0.125 C 
HETATM    3  C3  UNL     1      83.272  28.839  12.175  1.00  0.00     0.046 C 
HETATM    4  C4  UNL     1      85.410  29.294  10.903  1.00  0.00     0.081 C 
HETATM    5  C5  UNL     1      85.140  30.673  10.482  1.00  0.00     0.095 C 
HETATM    6  O1  UNL     1      84.083  31.154  11.296  1.00  0.00    -0.339 OA
HETATM    7  C8  UNL     1      84.665  31.346  12.544  1.00  0.00     0.361 C 
HETATM    8  N1  UNL     1      85.101  30.104  13.158  1.00  0.00    -0.036 N 
ATOM      9  H11 UNL     1      86.089  30.114  13.412  1.00  0.00     0.281 HD
ATOM     10  H12 UNL     1      84.721  29.971  14.095  1.00  0.00     0.281 HD
HETATM   11  C9  UNL     1      85.910  32.077  12.190  1.00  0.00     0.046 A 
HETATM   12  C10 UNL     1      86.224  31.645  10.928  1.00  0.00    -0.006 A 
HETATM   13  C11 UNL     1      87.358  32.164  10.373  1.00  0.00     0.059 A 
HETATM   14  C12 UNL     1      88.143  33.094  11.089  1.00  0.00     0.106 A 
HETATM   15  N3  UNL     1      87.850  33.520  12.317  1.00  0.00    -0.297 N 
HETATM   16  C20 UNL     1      86.698  32.984  12.852  1.00  0.00     0.122 A 
HETATM   17 CL3  UNL     1      86.173  33.567  14.445  1.00  0.00    -0.063 Cl
ENDROOT
BRANCH  15  18
HETATM   18  C13 UNL     1      88.551  34.494  13.097  1.00  0.00     0.113 C 
BRANCH  18  19
HETATM   19  C14 UNL     1      88.477  35.894  12.731  1.00  0.00     0.002 A 
HETATM   20  C15 UNL     1      87.365  36.677  12.901  1.00  0.00     0.014 A 
HETATM   21  C16 UNL     1      87.337  38.053  12.644  1.00  0.00     0.001 A 
HETATM   22  C17 UNL     1      88.468  38.681  12.196  1.00  0.00     0.002 A 
HETATM   23  C18 UNL     1      89.587  37.939  12.014  1.00  0.00     0.024 A 
HETATM   24  C19 UNL     1      89.604  36.571  12.271  1.00  0.00     0.045 A 
HETATM   25 CL2  UNL     1      91.108  35.771  11.827  1.00  0.00    -0.083 Cl
ENDBRANCH  18  19
ENDBRANCH  15  18
BRANCH  14  26
HETATM   26  N2  UNL     1      89.176  33.518  10.500  1.00  0.00    -0.385 N 
ATOM     27  H22 UNL     1      89.478  33.091   9.624  1.00  0.00     0.157 HD
ATOM     28  H21 UNL     1      89.662  34.294  10.949  1.00  0.00     0.157 HD
ENDBRANCH  14  26
BRANCH   5  29
HETATM   29  C6  UNL     1      84.790  30.987   9.094  1.00  0.00     0.058 C 
BRANCH  29  30
HETATM   30  C7  UNL     1      83.899  30.153   8.292  1.00  0.00     0.118 C 
HETATM   31 CL1  UNL     1      82.162  30.315   8.587  1.00  0.00    -0.130 Cl
ENDBRANCH  29  30
ENDBRANCH   5  29
TORSDOF 5
ENDMDL
MODEL 3
REMARK VINA RESULT: -7.841310815      2.378      7.577
REMARK  5 active torsions:
REMARK  status: ('A' for Active; 'I' for Inactive)
REMARK    1  A    between atoms: C5_5  and  C6_6 
REMARK    2  A    between atoms: C6_6  and  C7_7 
REMARK    3  A    between atoms: C12_17  and  N2_18 
REMARK    4  A    between atoms: N3_21  and  C13_22 
REMARK    5  A    between atoms: C13_22  and  C14_23 
ROOT
HETATM    1  C1  UNL     1      90.858  40.826  15.701  1.00  0.00     0.046 C 
HETATM    2  C2  UNL     1      90.703  40.620  14.196  1.00  0.00     0.125 C 
HETATM    3  C3  UNL     1      91.607  41.632  13.539  1.00  0.00     0.046 C 
HETATM    4  C4  UNL     1      89.232  40.813  13.835  1.00  0.00     0.081 C 
HETATM    5  C5  UNL     1      88.978  40.341  12.470  1.00  0.00     0.095 C 
HETATM    6  O1  UNL     1      90.241  40.208  11.838  1.00  0.00    -0.339 OA
HETATM    7  C8  UNL     1      90.809  39.085  12.427  1.00  0.00     0.361 C 
HETATM    8  N1  UNL     1      91.094  39.274  13.839  1.00  0.00    -0.036 N 
ATOM      9  H11 UNL     1      90.656  38.566  14.429  1.00  0.00     0.281 HD
ATOM     10  H12 UNL     1      92.064  39.069  14.078  1.00  0.00     0.281 HD
HETATM   11  C9  UNL     1      89.687  38.111  12.372  1.00  0.00     0.046 A 
HETATM   12  C10 UNL     1      88.553  38.879  12.425  1.00  0.00    -0.006 A 
HETATM   13  C11 UNL     1      87.365  38.208  12.408  1.00  0.00     0.059 A 
HETATM   14  C12 UNL     1      87.341  36.797  12.339  1.00  0.00     0.106 A 
HETATM   15  N3  UNL     1      88.435  36.040  12.288  1.00  0.00    -0.297 N 
HETATM   16  C20 UNL     1      89.622  36.743  12.303  1.00  0.00     0.122 A 
HETATM   17 CL3  UNL     1      91.132  35.823  12.139  1.00  0.00    -0.063 Cl
ENDROOT
BRANCH  15  18
HETATM   18  C13 UNL     1      88.511  34.616  12.163  1.00  0.00     0.113 C 
BRANCH  18  19
HETATM   19  C14 UNL     1      87.472  33.790  12.745  1.00  0.00     0.002 A 
HETATM   20  C15 UNL     1      87.092  33.843  14.060  1.00  0.00     0.014 A 
HETATM   21  C16 UNL     1      86.016  33.119  14.588  1.00  0.00     0.001 A 
HETATM   22  C17 UNL     1      85.283  32.303  13.769  1.00  0.00     0.002 A 
HETATM   23  C18 UNL     1      85.631  32.222  12.462  1.00  0.00     0.024 A 
HETATM   24  C19 UNL     1      86.704  32.945  11.948  1.00  0.00     0.045 A 
HETATM   25 CL2  UNL     1      87.079  32.583  10.266  1.00  0.00    -0.083 Cl
ENDBRANCH  18  19
ENDBRANCH  15  18
BRANCH  14  26
HETATM   26  N2  UNL     1      86.197  36.262  12.331  1.00  0.00    -0.385 N 
ATOM     27  H22 UNL     1      85.477  36.600  11.693  1.00  0.00     0.157 HD
ATOM     28  H21 UNL     1      86.058  35.492  12.985  1.00  0.00     0.157 HD
ENDBRANCH  14  26
BRANCH   5  29
HETATM   29  C6  UNL     1      88.117  41.092  11.555  1.00  0.00     0.058 C 
BRANCH  29  30
HETATM   30  C7  UNL     1      88.636  42.048  10.580  1.00  0.00     0.118 C 
HETATM   31 CL1  UNL     1      89.610  43.387  11.205  1.00  0.00    -0.130 Cl
ENDBRANCH  29  30
ENDBRANCH   5  29
TORSDOF 5
ENDMDL
MODEL 4
REMARK VINA RESULT: -7.397260986      2.120      3.156
REMARK  5 active torsions:
REMARK  status: ('A' for Active; 'I' for Inactive)
REMARK    1  A    between atoms: C5_5  and  C6_6 
REMARK    2  A    between atoms: C6_6  and  C7_7 
REMARK    3  A    between atoms: C12_17  and  N2_18 
REMARK    4  A    between atoms: N3_21  and  C13_22 
REMARK    5  A    between atoms: C13_22  and  C14_23 
ROOT
HETATM    1  C1  UNL     1      86.270  33.709  15.081  1.00  0.00     0.046 C 
HETATM    2  C2  UNL     1      86.331  34.038  13.590  1.00  0.00     0.125 C 
HETATM    3  C3  UNL     1      85.046  33.522  12.994  1.00  0.00     0.046 C 
HETATM    4  C4  UNL     1      87.571  33.369  13.003  1.00  0.00     0.081 C 
HETATM    5  C5  UNL     1      87.839  33.889  11.658  1.00  0.00     0.095 C 
HETATM    6  O1  UNL     1      86.662  34.556  11.231  1.00  0.00    -0.339 OA
HETATM    7  C8  UNL     1      86.629  35.722  11.987  1.00  0.00     0.361 C 
HETATM    8  N1  UNL     1      86.445  35.468  13.405  1.00  0.00    -0.036 N 
ATOM      9  H11 UNL     1      87.179  35.883  13.979  1.00  0.00     0.281 HD
ATOM     10  H12 UNL     1      85.657  35.981  13.800  1.00  0.00     0.281 HD
HETATM   11  C9  UNL     1      88.024  36.216  11.845  1.00  0.00     0.046 A 
HETATM   12  C10 UNL     1      88.780  35.087  11.669  1.00  0.00    -0.006 A 
HETATM   13  C11 UNL     1      90.125  35.272  11.531  1.00  0.00     0.059 A 
HETATM   14  C12 UNL     1      90.676  36.572  11.573  1.00  0.00     0.106 A 
HETATM   15  N3  UNL     1      89.952  37.677  11.745  1.00  0.00    -0.297 N 
HETATM   16  C20 UNL     1      88.597  37.462  11.878  1.00  0.00     0.122 A 
HETATM   17 CL3  UNL     1      87.541  38.883  12.013  1.00  0.00    -0.063 Cl
ENDROOT
BRANCH  15  18
HETATM   18  C13 UNL     1      90.411  39.033  11.748  1.00  0.00     0.113 C 
BRANCH  18  19
HETATM   19  C14 UNL     1      90.206  39.856  12.923  1.00  0.00     0.002 A 
HETATM   20  C15 UNL     1      90.489  39.456  14.203  1.00  0.00     0.014 A 
HETATM   21  C16 UNL     1      90.389  40.296  15.319  1.00  0.00     0.001 A 
HETATM   22  C17 UNL     1      89.988  41.594  15.155  1.00  0.00     0.002 A 
HETATM   23  C18 UNL     1      89.696  42.026  13.904  1.00  0.00     0.024 A 
HETATM   24  C19 UNL     1      89.798  41.182  12.801  1.00  0.00     0.045 A 
HETATM   25 CL2  UNL     1      89.231  41.894  11.294  1.00  0.00    -0.083 Cl
ENDBRANCH  18  19
ENDBRANCH  15  18
BRANCH  14  26
HETATM   26  N2  UNL     1      91.929  36.648  11.439  1.00  0.00    -0.385 N 
ATOM     27  H22 UNL     1      92.451  35.865  11.046  1.00  0.00     0.157 HD
ATOM     28  H21 UNL     1      92.360  37.522  11.741  1.00  0.00     0.157 HD
ENDBRANCH  14  26
BRANCH   5  29
HETATM   29  C6  UNL     1      88.248  33.000  10.568  1.00  0.00     0.058 C 
BRANCH  29  30
HETATM   30  C7  UNL     1      87.761  31.629  10.437  1.00  0.00     0.118 C 
HETATM   31 CL1  UNL     1      86.049  31.416  10.042  1.00  0.00    -0.130 Cl
ENDBRANCH  29  30
ENDBRANCH   5  29
TORSDOF 5
ENDMDL
MODEL 5
REMARK VINA RESULT: -7.321480156      1.049      1.504
REMARK  5 active torsions:
REMARK  status: ('A' for Active; 'I' for Inactive)
REMARK    1  A    between atoms: C5_5  and  C6_6 
REMARK    2  A    between atoms: C6_6  and  C7_7 
REMARK    3  A    between atoms: C12_17  and  N2_18 
REMARK    4  A    between atoms: N3_21  and  C13_22 
REMARK    5  A    between atoms: C13_22  and  C14_23 
ROOT
HETATM    1  C1  UNL     1      86.404  32.416   9.504  1.00  0.00     0.046 C 
HETATM    2  C2  UNL     1      86.933  32.647  10.918  1.00  0.00     0.125 C 
HETATM    3  C3  UNL     1      87.073  31.281  11.541  1.00  0.00     0.046 C 
HETATM    4  C4  UNL     1      85.942  33.541  11.660  1.00  0.00     0.081 C 
HETATM    5  C5  UNL     1      86.538  34.033  12.907  1.00  0.00     0.095 C 
HETATM    6  O1  UNL     1      87.676  33.227  13.166  1.00  0.00    -0.339 OA
HETATM    7  C8  UNL     1      88.613  33.632  12.223  1.00  0.00     0.361 C 
HETATM    8  N1  UNL     1      88.212  33.320  10.862  1.00  0.00    -0.036 N 
ATOM      9  H11 UNL     1      88.200  34.140  10.256  1.00  0.00     0.281 HD
ATOM     10  H12 UNL     1      88.917  32.786  10.355  1.00  0.00     0.281 HD
HETATM   11  C9  UNL     1      88.535  35.112  12.334  1.00  0.00     0.046 A 
HETATM   12  C10 UNL     1      87.248  35.368  12.730  1.00  0.00    -0.006 A 
HETATM   13  C11 UNL     1      86.911  36.681  12.888  1.00  0.00     0.059 A 
HETATM   14  C12 UNL     1      87.863  37.698  12.648  1.00  0.00     0.106 A 
HETATM   15  N3  UNL     1      89.115  37.463  12.262  1.00  0.00    -0.297 N 
HETATM   16  C20 UNL     1      89.431  36.128  12.114  1.00  0.00     0.122 A 
HETATM   17 CL3  UNL     1      91.106  35.713  11.697  1.00  0.00    -0.063 Cl
ENDROOT
BRANCH  15  18
HETATM   18  C13 UNL     1      90.160  38.417  12.047  1.00  0.00     0.113 C 
BRANCH  18  19
HETATM   19  C14 UNL     1      89.841  39.830  12.000  1.00  0.00     0.002 A 
HETATM   20  C15 UNL     1      89.218  40.444  10.945  1.00  0.00     0.014 A 
HETATM   21  C16 UNL     1      88.817  41.785  10.954  1.00  0.00     0.001 A 
HETATM   22  C17 UNL     1      89.048  42.554  12.063  1.00  0.00     0.002 A 
HETATM   23  C18 UNL     1      89.665  41.982  13.125  1.00  0.00     0.024 A 
HETATM   24  C19 UNL     1      90.060  40.647  13.106  1.00  0.00     0.045 A 
HETATM   25 CL2  UNL     1      90.975  40.145  14.524  1.00  0.00    -0.083 Cl
ENDBRANCH  18  19
ENDBRANCH  15  18
BRANCH  14  26
HETATM   26  N2  UNL     1      87.462  38.883  12.817  1.00  0.00    -0.385 N 
ATOM     27  H22 UNL     1      87.210  39.458  12.013  1.00  0.00     0.157 HD
ATOM     28  H21 UNL     1      87.409  39.205  13.783  1.00  0.00     0.157 HD
ENDBRANCH  14  26
BRANCH   5  29
HETATM   29  C6  UNL     1      85.761  34.092  14.147  1.00  0.00     0.058 C 
BRANCH  29  30
HETATM   30  C7  UNL     1      85.063  32.935  14.703  1.00  0.00     0.118 C 
HETATM   31 CL1  UNL     1      84.219  33.166  16.241  1.00  0.00    -0.130 Cl
ENDBRANCH  29  30
ENDBRANCH   5  29
TORSDOF 5
ENDMDL
