MODEL 1
REMARK VINA RESULT: -6.499773072      0.000      0.000
REMARK  16 active torsions:
REMARK  status: ('A' for Active; 'I' for Inactive)
REMARK    1  A    between atoms: C2_2  and  C3_3 
REMARK    2  A    between atoms: C3_3  and  C4_4 
REMARK    3  A    between atoms: C4_4  and  C5_5 
REMARK    4  A    between atoms: C5_5  and  C6_6 
REMARK    5  A    between atoms: C6_6  and  O1_7 
REMARK    6  A    between atoms: C6_6  and  C13_21 
REMARK    7  A    between atoms: O1_7  and  C7_8 
REMARK    8  A    between atoms: C9_10  and  O2_11 
REMARK    9  A    between atoms: C10_13  and  O3_14 
REMARK   10  A    between atoms: C11_16  and  C12_17 
REMARK   11  A    between atoms: C12_17  and  O4_18 
REMARK   12  A    between atoms: C13_21  and  O6_22 
REMARK   13  A    between atoms: C13_21  and  C14_24 
REMARK   14  A    between atoms: C21_31  and  O7_32 
REMARK   15  A    between atoms: C22_34  and  O8_35 
REMARK   16  A    between atoms: C23_37  and  O9_38 
ROOT
HETATM    1  C6  UNL     1     -10.076  76.796 118.808  1.00  0.00     0.154 C 
ENDROOT
BRANCH   1   2
HETATM    2  C5  UNL     1      -9.896  77.642 117.566  1.00  0.00     0.035 C 
BRANCH   2   3
HETATM    3  C4  UNL     1      -8.543  77.664 116.971  1.00  0.00     0.002 C 
BRANCH   3   4
HETATM    4  C3  UNL     1      -8.712  77.664 115.433  1.00  0.00    -0.000 C 
BRANCH   4   5
HETATM    5  C2  UNL     1     -10.224  77.710 115.207  1.00  0.00    -0.005 C 
HETATM    6  C1  UNL     1     -10.620  78.802 114.266  1.00  0.00     0.005 C 
ENDBRANCH   4   5
ENDBRANCH   3   4
ENDBRANCH   2   3
ENDBRANCH   1   2
BRANCH   1   7
HETATM    7  O1  UNL     1     -10.441  77.670 119.833  1.00  0.00    -0.353 OA
BRANCH   7   8
HETATM    8  C7  UNL     1     -11.816  77.899 119.928  1.00  0.00     0.263 C 
HETATM    9  C8  UNL     1     -12.135  78.785 121.103  1.00  0.00     0.095 C 
HETATM   10  C9  UNL     1     -12.816  77.957 122.162  1.00  0.00     0.154 C 
HETATM   11  C10 UNL     1     -14.131  77.383 121.615  1.00  0.00     0.178 C 
HETATM   12  C11 UNL     1     -13.888  76.878 120.189  1.00  0.00     0.179 C 
HETATM   13  O5  UNL     1     -12.538  76.745 119.953  1.00  0.00    -0.351 OA
BRANCH  10  14
HETATM   14  O2  UNL     1     -12.049  76.886 122.579  1.00  0.00    -0.393 OA
ATOM     15  H2  UNL     1     -11.730  76.359 121.856  1.00  0.00     0.210 HD
ENDBRANCH  10  14
BRANCH  11  16
HETATM   16  O3  UNL     1     -14.399  76.259 122.395  1.00  0.00    -0.390 OA
ATOM     17  H3  UNL     1     -15.346  76.179 122.407  1.00  0.00     0.210 HD
ENDBRANCH  11  16
BRANCH  12  18
HETATM   18  C12 UNL     1     -14.624  77.732 119.185  1.00  0.00     0.198 C 
BRANCH  18  19
HETATM   19  O4  UNL     1     -15.456  78.653 119.784  1.00  0.00    -0.398 OA
ATOM     20  H4  UNL     1     -15.984  79.130 119.154  1.00  0.00     0.209 HD
ENDBRANCH  18  19
ENDBRANCH  12  18
ENDBRANCH   7   8
ENDBRANCH   1   7
BRANCH   1  21
HETATM   21  C13 UNL     1      -8.922  75.953 119.167  1.00  0.00     0.158 C 
BRANCH  21  22
HETATM   22  O6  UNL     1      -8.225  76.639 120.195  1.00  0.00    -0.392 OA
ATOM     23  H6  UNL     1      -7.563  77.170 119.766  1.00  0.00     0.210 HD
ENDBRANCH  21  22
BRANCH  21  24
HETATM   24  C14 UNL     1      -9.133  74.520 119.504  1.00  0.00     0.077 C 
HETATM   25  C15 UNL     1      -9.398  73.737 118.219  1.00  0.00    -0.065 C 
HETATM   26  C16 UNL     1     -10.178  72.699 118.240  1.00  0.00    -0.046 C 
HETATM   27  C20 UNL     1      -8.828  74.003 116.857  1.00  0.00     0.039 C 
HETATM   28  C17 UNL     1     -10.267  72.124 116.856  1.00  0.00     0.041 C 
HETATM   29  C21 UNL     1     -10.886  72.130 119.431  1.00  0.00     0.178 C 
HETATM   30  C18 UNL     1      -9.057  72.644 116.169  1.00  0.00    -0.011 C 
HETATM   31  C19 UNL     1      -7.847  71.760 116.290  1.00  0.00     0.010 C 
HETATM   32  C22 UNL     1     -10.511  72.821 120.690  1.00  0.00     0.180 C 
HETATM   33  C23 UNL     1     -10.387  74.319 120.318  1.00  0.00     0.160 C 
BRANCH  29  34
HETATM   34  O7  UNL     1     -10.650  70.758 119.538  1.00  0.00    -0.389 OA
ATOM     35  H7  UNL     1     -10.867  70.315 118.726  1.00  0.00     0.210 HD
ENDBRANCH  29  34
BRANCH  32  36
HETATM   36  O8  UNL     1      -9.315  72.440 121.245  1.00  0.00    -0.390 OA
ATOM     37  H8  UNL     1      -8.629  73.098 121.238  1.00  0.00     0.210 HD
ENDBRANCH  32  36
BRANCH  33  38
HETATM   38  O9  UNL     1     -10.462  74.971 121.519  1.00  0.00    -0.392 OA
ATOM     39  H9  UNL     1     -11.273  74.890 122.006  1.00  0.00     0.210 HD
ENDBRANCH  33  38
ENDBRANCH  21  24
ENDBRANCH   1  21
TORSDOF 16
ENDMDL
MODEL 2
REMARK VINA RESULT: -6.489290048      2.158      6.344
REMARK  16 active torsions:
REMARK  status: ('A' for Active; 'I' for Inactive)
REMARK    1  A    between atoms: C2_2  and  C3_3 
REMARK    2  A    between atoms: C3_3  and  C4_4 
REMARK    3  A    between atoms: C4_4  and  C5_5 
REMARK    4  A    between atoms: C5_5  and  C6_6 
REMARK    5  A    between atoms: C6_6  and  O1_7 
REMARK    6  A    between atoms: C6_6  and  C13_21 
REMARK    7  A    between atoms: O1_7  and  C7_8 
REMARK    8  A    between atoms: C9_10  and  O2_11 
REMARK    9  A    between atoms: C10_13  and  O3_14 
REMARK   10  A    between atoms: C11_16  and  C12_17 
REMARK   11  A    between atoms: C12_17  and  O4_18 
REMARK   12  A    between atoms: C13_21  and  O6_22 
REMARK   13  A    between atoms: C13_21  and  C14_24 
REMARK   14  A    between atoms: C21_31  and  O7_32 
REMARK   15  A    between atoms: C22_34  and  O8_35 
REMARK   16  A    between atoms: C23_37  and  O9_38 
ROOT
HETATM    1  C6  UNL     1     -11.055  74.362 117.040  1.00  0.00     0.154 C 
ENDROOT
BRANCH   1   2
HETATM    2  C5  UNL     1     -10.867  75.361 115.918  1.00  0.00     0.035 C 
BRANCH   2   3
HETATM    3  C4  UNL     1      -9.583  76.093 115.894  1.00  0.00     0.002 C 
BRANCH   3   4
HETATM    4  C3  UNL     1      -9.910  77.603 115.813  1.00  0.00    -0.000 C 
BRANCH   4   5
HETATM    5  C2  UNL     1     -10.900  77.726 114.655  1.00  0.00    -0.005 C 
HETATM    6  C1  UNL     1     -11.603  79.045 114.652  1.00  0.00     0.005 C 
ENDBRANCH   4   5
ENDBRANCH   3   4
ENDBRANCH   2   3
ENDBRANCH   1   2
BRANCH   1   7
HETATM    7  O1  UNL     1     -11.091  73.101 116.444  1.00  0.00    -0.353 OA
BRANCH   7   8
HETATM    8  C7  UNL     1      -9.965  72.314 116.699  1.00  0.00     0.263 C 
HETATM    9  C8  UNL     1     -10.350  70.877 116.924  1.00  0.00     0.095 C 
HETATM   10  C9  UNL     1     -10.158  70.547 118.381  1.00  0.00     0.154 C 
HETATM   11  C10 UNL     1      -8.683  70.720 118.770  1.00  0.00     0.178 C 
HETATM   12  C11 UNL     1      -8.157  72.009 118.129  1.00  0.00     0.179 C 
HETATM   13  O5  UNL     1      -9.207  72.801 117.720  1.00  0.00    -0.351 OA
BRANCH  10  14
HETATM   14  O2  UNL     1     -10.895  71.365 119.217  1.00  0.00    -0.393 OA
ATOM     15  H2  UNL     1     -10.798  71.136 120.134  1.00  0.00     0.210 HD
ENDBRANCH  10  14
BRANCH  11  16
HETATM   16  O3  UNL     1      -8.683  70.931 120.147  1.00  0.00    -0.390 OA
ATOM     17  H3  UNL     1      -7.934  71.491 120.317  1.00  0.00     0.210 HD
ENDBRANCH  11  16
BRANCH  12  18
HETATM   18  C12 UNL     1      -7.143  71.699 117.054  1.00  0.00     0.198 C 
BRANCH  18  19
HETATM   19  O4  UNL     1      -5.920  71.333 117.573  1.00  0.00    -0.398 OA
ATOM     20  H4  UNL     1      -5.423  72.076 117.894  1.00  0.00     0.209 HD
ENDBRANCH  18  19
ENDBRANCH  12  18
ENDBRANCH   7   8
ENDBRANCH   1   7
BRANCH   1  21
HETATM   21  C13 UNL     1     -12.215  74.609 117.913  1.00  0.00     0.158 C 
BRANCH  21  22
HETATM   22  O6  UNL     1     -12.754  73.337 118.238  1.00  0.00    -0.392 OA
ATOM     23  H6  UNL     1     -13.381  73.126 117.555  1.00  0.00     0.210 HD
ENDBRANCH  21  22
BRANCH  21  24
HETATM   24  C14 UNL     1     -12.061  75.467 119.118  1.00  0.00     0.077 C 
HETATM   25  C15 UNL     1     -12.258  76.929 118.720  1.00  0.00    -0.065 C 
HETATM   26  C16 UNL     1     -11.614  77.866 119.347  1.00  0.00    -0.046 C 
HETATM   27  C20 UNL     1     -13.167  77.468 117.655  1.00  0.00     0.039 C 
HETATM   28  C17 UNL     1     -11.986  79.196 118.759  1.00  0.00     0.041 C 
HETATM   29  C21 UNL     1     -10.653  77.691 120.483  1.00  0.00     0.178 C 
HETATM   30  C18 UNL     1     -13.284  78.943 118.083  1.00  0.00    -0.011 C 
HETATM   31  C19 UNL     1     -14.490  79.165 118.952  1.00  0.00     0.010 C 
HETATM   32  C22 UNL     1     -10.577  76.281 120.942  1.00  0.00     0.180 C 
HETATM   33  C23 UNL     1     -10.652  75.423 119.656  1.00  0.00     0.160 C 
BRANCH  29  34
HETATM   34  O7  UNL     1     -10.985  78.534 121.546  1.00  0.00    -0.389 OA
ATOM     35  H7  UNL     1     -10.578  79.386 121.439  1.00  0.00     0.210 HD
ENDBRANCH  29  34
BRANCH  32  36
HETATM   36  O8  UNL     1     -11.595  75.868 121.766  1.00  0.00    -0.390 OA
ATOM     37  H8  UNL     1     -11.916  74.987 121.613  1.00  0.00     0.210 HD
ENDBRANCH  32  36
BRANCH  33  38
HETATM   38  O9  UNL     1     -10.169  74.201 120.037  1.00  0.00    -0.392 OA
ATOM     39  H9  UNL     1      -9.235  74.058 119.949  1.00  0.00     0.210 HD
ENDBRANCH  33  38
ENDBRANCH  21  24
ENDBRANCH   1  21
TORSDOF 16
ENDMDL
MODEL 3
REMARK VINA RESULT: -6.325918268      0.920      1.158
REMARK  16 active torsions:
REMARK  status: ('A' for Active; 'I' for Inactive)
REMARK    1  A    between atoms: C2_2  and  C3_3 
REMARK    2  A    between atoms: C3_3  and  C4_4 
REMARK    3  A    between atoms: C4_4  and  C5_5 
REMARK    4  A    between atoms: C5_5  and  C6_6 
REMARK    5  A    between atoms: C6_6  and  O1_7 
REMARK    6  A    between atoms: C6_6  and  C13_21 
REMARK    7  A    between atoms: O1_7  and  C7_8 
REMARK    8  A    between atoms: C9_10  and  O2_11 
REMARK    9  A    between atoms: C10_13  and  O3_14 
REMARK   10  A    between atoms: C11_16  and  C12_17 
REMARK   11  A    between atoms: C12_17  and  O4_18 
REMARK   12  A    between atoms: C13_21  and  O6_22 
REMARK   13  A    between atoms: C13_21  and  C14_24 
REMARK   14  A    between atoms: C21_31  and  O7_32 
REMARK   15  A    between atoms: C22_34  and  O8_35 
REMARK   16  A    between atoms: C23_37  and  O9_38 
ROOT
HETATM    1  C6  UNL     1     -10.240  76.757 118.769  1.00  0.00     0.154 C 
ENDROOT
BRANCH   1   2
HETATM    2  C5  UNL     1     -10.154  77.583 117.505  1.00  0.00     0.035 C 
BRANCH   2   3
HETATM    3  C4  UNL     1     -10.777  77.006 116.294  1.00  0.00     0.002 C 
BRANCH   3   4
HETATM    4  C3  UNL     1     -11.938  76.095 116.759  1.00  0.00    -0.000 C 
BRANCH   4   5
HETATM    5  C2  UNL     1     -12.186  75.150 115.583  1.00  0.00    -0.005 C 
HETATM    6  C1  UNL     1     -11.370  75.515 114.385  1.00  0.00     0.005 C 
ENDBRANCH   4   5
ENDBRANCH   3   4
ENDBRANCH   2   3
ENDBRANCH   1   2
BRANCH   1   7
HETATM    7  O1  UNL     1     -10.573  77.641 119.797  1.00  0.00    -0.353 OA
BRANCH   7   8
HETATM    8  C7  UNL     1     -11.945  77.863 119.940  1.00  0.00     0.263 C 
HETATM    9  C8  UNL     1     -12.226  78.779 121.101  1.00  0.00     0.095 C 
HETATM   10  C9  UNL     1     -12.857  77.978 122.208  1.00  0.00     0.154 C 
HETATM   11  C10 UNL     1     -14.188  77.378 121.731  1.00  0.00     0.178 C 
HETATM   12  C11 UNL     1     -13.997  76.835 120.311  1.00  0.00     0.179 C 
HETATM   13  O5  UNL     1     -12.656  76.705 120.027  1.00  0.00    -0.351 OA
BRANCH  10  14
HETATM   14  O2  UNL     1     -12.066  76.925 122.625  1.00  0.00    -0.393 OA
ATOM     15  H2  UNL     1     -11.176  76.982 122.299  1.00  0.00     0.210 HD
ENDBRANCH  10  14
BRANCH  11  16
HETATM   16  O3  UNL     1     -14.416  76.276 122.552  1.00  0.00    -0.390 OA
ATOM     17  H3  UNL     1     -15.277  75.955 122.312  1.00  0.00     0.210 HD
ENDBRANCH  11  16
BRANCH  12  18
HETATM   18  C12 UNL     1     -14.779  77.654 119.313  1.00  0.00     0.198 C 
BRANCH  18  19
HETATM   19  O4  UNL     1     -15.669  78.515 119.918  1.00  0.00    -0.398 OA
ATOM     20  H4  UNL     1     -16.067  79.119 119.302  1.00  0.00     0.209 HD
ENDBRANCH  18  19
ENDBRANCH  12  18
ENDBRANCH   7   8
ENDBRANCH   1   7
BRANCH   1  21
HETATM   21  C13 UNL     1      -9.044  75.954 119.079  1.00  0.00     0.158 C 
BRANCH  21  22
HETATM   22  O6  UNL     1      -8.316  76.676 120.060  1.00  0.00    -0.392 OA
ATOM     23  H6  UNL     1      -8.222  77.562 119.730  1.00  0.00     0.210 HD
ENDBRANCH  21  22
BRANCH  21  24
HETATM   24  C14 UNL     1      -9.194  74.521 119.445  1.00  0.00     0.077 C 
HETATM   25  C15 UNL     1      -9.438  73.703 118.178  1.00  0.00    -0.065 C 
HETATM   26  C16 UNL     1     -10.175  72.635 118.226  1.00  0.00    -0.046 C 
HETATM   27  C20 UNL     1      -8.892  73.966 116.806  1.00  0.00     0.039 C 
HETATM   28  C17 UNL     1     -10.254  72.030 116.855  1.00  0.00     0.041 C 
HETATM   29  C21 UNL     1     -10.849  72.061 119.435  1.00  0.00     0.178 C 
HETATM   30  C18 UNL     1      -9.072  72.586 116.146  1.00  0.00    -0.011 C 
HETATM   31  C19 UNL     1      -7.826  71.754 116.271  1.00  0.00     0.010 C 
HETATM   32  C22 UNL     1     -10.491  72.791 120.677  1.00  0.00     0.180 C 
HETATM   33  C23 UNL     1     -10.432  74.285 120.275  1.00  0.00     0.160 C 
BRANCH  29  34
HETATM   34  O7  UNL     1     -10.557  70.702 119.565  1.00  0.00    -0.389 OA
ATOM     35  H7  UNL     1      -9.927  70.559 120.262  1.00  0.00     0.210 HD
ENDBRANCH  29  34
BRANCH  32  36
HETATM   36  O8  UNL     1      -9.275  72.469 121.227  1.00  0.00    -0.390 OA
ATOM     37  H8  UNL     1      -9.016  71.559 121.150  1.00  0.00     0.210 HD
ENDBRANCH  32  36
BRANCH  33  38
HETATM   38  O9  UNL     1     -10.521  74.957 121.464  1.00  0.00    -0.392 OA
ATOM     39  H9  UNL     1     -10.159  74.530 122.230  1.00  0.00     0.210 HD
ENDBRANCH  33  38
ENDBRANCH  21  24
ENDBRANCH   1  21
TORSDOF 16
ENDMDL
MODEL 4
REMARK VINA RESULT: -6.322277246      2.136      6.448
REMARK  16 active torsions:
REMARK  status: ('A' for Active; 'I' for Inactive)
REMARK    1  A    between atoms: C2_2  and  C3_3 
REMARK    2  A    between atoms: C3_3  and  C4_4 
REMARK    3  A    between atoms: C4_4  and  C5_5 
REMARK    4  A    between atoms: C5_5  and  C6_6 
REMARK    5  A    between atoms: C6_6  and  O1_7 
REMARK    6  A    between atoms: C6_6  and  C13_21 
REMARK    7  A    between atoms: O1_7  and  C7_8 
REMARK    8  A    between atoms: C9_10  and  O2_11 
REMARK    9  A    between atoms: C10_13  and  O3_14 
REMARK   10  A    between atoms: C11_16  and  C12_17 
REMARK   11  A    between atoms: C12_17  and  O4_18 
REMARK   12  A    between atoms: C13_21  and  O6_22 
REMARK   13  A    between atoms: C13_21  and  C14_24 
REMARK   14  A    between atoms: C21_31  and  O7_32 
REMARK   15  A    between atoms: C22_34  and  O8_35 
REMARK   16  A    between atoms: C23_37  and  O9_38 
ROOT
HETATM    1  C6  UNL     1     -11.287  74.337 117.382  1.00  0.00     0.154 C 
ENDROOT
BRANCH   1   2
HETATM    2  C5  UNL     1     -10.960  74.978 116.051  1.00  0.00     0.035 C 
BRANCH   2   3
HETATM    3  C4  UNL     1      -9.644  75.644 115.944  1.00  0.00     0.002 C 
BRANCH   3   4
HETATM    4  C3  UNL     1      -9.194  76.018 117.376  1.00  0.00    -0.000 C 
BRANCH   4   5
HETATM    5  C2  UNL     1      -8.672  77.450 117.258  1.00  0.00    -0.005 C 
HETATM    6  C1  UNL     1      -8.224  77.775 115.870  1.00  0.00     0.005 C 
ENDBRANCH   4   5
ENDBRANCH   3   4
ENDBRANCH   2   3
ENDBRANCH   1   2
BRANCH   1   7
HETATM    7  O1  UNL     1     -11.140  72.960 117.204  1.00  0.00    -0.353 OA
BRANCH   7   8
HETATM    8  C7  UNL     1     -10.243  72.360 118.090  1.00  0.00     0.263 C 
HETATM    9  C8  UNL     1      -8.869  72.259 117.481  1.00  0.00     0.095 C 
HETATM   10  C9  UNL     1      -8.584  70.813 117.169  1.00  0.00     0.154 C 
HETATM   11  C10 UNL     1      -8.605  69.983 118.461  1.00  0.00     0.178 C 
HETATM   12  C11 UNL     1      -9.796  70.434 119.313  1.00  0.00     0.179 C 
HETATM   13  O5  UNL     1     -10.683  71.156 118.546  1.00  0.00    -0.351 OA
BRANCH  10  14
HETATM   14  O2  UNL     1      -9.516  70.256 116.315  1.00  0.00    -0.393 OA
ATOM     15  H2  UNL     1      -9.491  70.637 115.445  1.00  0.00     0.210 HD
ENDBRANCH  10  14
BRANCH  11  16
HETATM   16  O3  UNL     1      -8.875  68.676 118.059  1.00  0.00    -0.390 OA
ATOM     17  H3  UNL     1      -8.377  68.122 118.648  1.00  0.00     0.210 HD
ENDBRANCH  11  16
BRANCH  12  18
HETATM   18  C12 UNL     1      -9.326  71.134 120.565  1.00  0.00     0.198 C 
BRANCH  18  19
HETATM   19  O4  UNL     1     -10.353  71.374 121.452  1.00  0.00    -0.398 OA
ATOM     20  H4  UNL     1     -10.211  70.959 122.295  1.00  0.00     0.209 HD
ENDBRANCH  18  19
ENDBRANCH  12  18
ENDBRANCH   7   8
ENDBRANCH   1   7
BRANCH   1  21
HETATM   21  C13 UNL     1     -12.599  74.697 117.949  1.00  0.00     0.158 C 
BRANCH  21  22
HETATM   22  O6  UNL     1     -13.291  73.479 118.172  1.00  0.00    -0.392 OA
ATOM     23  H6  UNL     1     -13.139  73.244 119.080  1.00  0.00     0.210 HD
ENDBRANCH  21  22
BRANCH  21  24
HETATM   24  C14 UNL     1     -12.667  75.596 119.131  1.00  0.00     0.077 C 
HETATM   25  C15 UNL     1     -12.379  77.029 118.689  1.00  0.00    -0.065 C 
HETATM   26  C16 UNL     1     -11.788  77.853 119.499  1.00  0.00    -0.046 C 
HETATM   27  C20 UNL     1     -12.726  77.663 117.374  1.00  0.00     0.039 C 
HETATM   28  C17 UNL     1     -11.624  79.181 118.818  1.00  0.00     0.041 C 
HETATM   29  C21 UNL     1     -11.333  77.568 120.898  1.00  0.00     0.178 C 
HETATM   30  C18 UNL     1     -12.640  79.159 117.734  1.00  0.00    -0.011 C 
HETATM   31  C19 UNL     1     -13.984  79.703 118.131  1.00  0.00     0.010 C 
HETATM   32  C22 UNL     1     -11.741  76.217 121.356  1.00  0.00     0.180 C 
HETATM   33  C23 UNL     1     -11.572  75.294 120.124  1.00  0.00     0.160 C 
BRANCH  29  34
HETATM   34  O7  UNL     1     -11.801  78.545 121.779  1.00  0.00    -0.389 OA
ATOM     35  H7  UNL     1     -11.722  78.252 122.679  1.00  0.00     0.210 HD
ENDBRANCH  29  34
BRANCH  32  36
HETATM   36  O8  UNL     1     -13.042  76.099 121.776  1.00  0.00    -0.390 OA
ATOM     37  H8  UNL     1     -13.169  75.646 122.602  1.00  0.00     0.210 HD
ENDBRANCH  32  36
BRANCH  33  38
HETATM   38  O9  UNL     1     -11.540  74.032 120.651  1.00  0.00    -0.392 OA
ATOM     39  H9  UNL     1     -11.441  73.311 120.040  1.00  0.00     0.210 HD
ENDBRANCH  33  38
ENDBRANCH  21  24
ENDBRANCH   1  21
TORSDOF 16
ENDMDL
MODEL 5
REMARK VINA RESULT: -6.313156689      2.138      6.052
REMARK  16 active torsions:
REMARK  status: ('A' for Active; 'I' for Inactive)
REMARK    1  A    between atoms: C2_2  and  C3_3 
REMARK    2  A    between atoms: C3_3  and  C4_4 
REMARK    3  A    between atoms: C4_4  and  C5_5 
REMARK    4  A    between atoms: C5_5  and  C6_6 
REMARK    5  A    between atoms: C6_6  and  O1_7 
REMARK    6  A    between atoms: C6_6  and  C13_21 
REMARK    7  A    between atoms: O1_7  and  C7_8 
REMARK    8  A    between atoms: C9_10  and  O2_11 
REMARK    9  A    between atoms: C10_13  and  O3_14 
REMARK   10  A    between atoms: C11_16  and  C12_17 
REMARK   11  A    between atoms: C12_17  and  O4_18 
REMARK   12  A    between atoms: C13_21  and  O6_22 
REMARK   13  A    between atoms: C13_21  and  C14_24 
REMARK   14  A    between atoms: C21_31  and  O7_32 
REMARK   15  A    between atoms: C22_34  and  O8_35 
REMARK   16  A    between atoms: C23_37  and  O9_38 
ROOT
HETATM    1  C6  UNL     1     -11.313  77.014 120.690  1.00  0.00     0.154 C 
ENDROOT
BRANCH   1   2
HETATM    2  C5  UNL     1     -12.254  77.332 121.832  1.00  0.00     0.035 C 
BRANCH   2   3
HETATM    3  C4  UNL     1     -13.675  77.535 121.480  1.00  0.00     0.002 C 
BRANCH   3   4
HETATM    4  C3  UNL     1     -14.070  78.958 121.942  1.00  0.00    -0.000 C 
BRANCH   4   5
HETATM    5  C2  UNL     1     -14.285  78.831 123.451  1.00  0.00    -0.005 C 
HETATM    6  C1  UNL     1     -15.015  80.006 124.017  1.00  0.00     0.005 C 
ENDBRANCH   4   5
ENDBRANCH   3   4
ENDBRANCH   2   3
ENDBRANCH   1   2
BRANCH   1   7
HETATM    7  O1  UNL     1     -10.682  75.814 121.021  1.00  0.00    -0.353 OA
BRANCH   7   8
HETATM    8  C7  UNL     1     -10.868  74.792 120.087  1.00  0.00     0.263 C 
HETATM    9  C8  UNL     1     -12.131  75.007 119.296  1.00  0.00     0.095 C 
HETATM   10  C9  UNL     1     -13.147  73.978 119.718  1.00  0.00     0.154 C 
HETATM   11  C10 UNL     1     -12.621  72.567 119.419  1.00  0.00     0.178 C 
HETATM   12  C11 UNL     1     -11.146  72.498 119.826  1.00  0.00     0.179 C 
HETATM   13  O5  UNL     1     -10.830  73.554 120.652  1.00  0.00    -0.351 OA
BRANCH  10  14
HETATM   14  O2  UNL     1     -13.428  74.027 121.070  1.00  0.00    -0.393 OA
ATOM     15  H2  UNL     1     -14.347  73.880 121.260  1.00  0.00     0.210 HD
ENDBRANCH  10  14
BRANCH  11  16
HETATM   16  O3  UNL     1     -13.313  71.721 120.284  1.00  0.00    -0.390 OA
ATOM     17  H3  UNL     1     -14.147  71.552 119.861  1.00  0.00     0.210 HD
ENDBRANCH  11  16
BRANCH  12  18
HETATM   18  C12 UNL     1     -10.260  72.359 118.611  1.00  0.00     0.198 C 
BRANCH  18  19
HETATM   19  O4  UNL     1      -8.976  71.976 118.935  1.00  0.00    -0.398 OA
ATOM     20  H4  UNL     1      -8.340  72.249 118.285  1.00  0.00     0.209 HD
ENDBRANCH  18  19
ENDBRANCH  12  18
ENDBRANCH   7   8
ENDBRANCH   1   7
BRANCH   1  21
HETATM   21  C13 UNL     1     -10.357  78.081 120.346  1.00  0.00     0.158 C 
BRANCH  21  22
HETATM   22  O6  UNL     1      -9.281  77.970 121.264  1.00  0.00    -0.392 OA
ATOM     23  H6  UNL     1      -9.235  78.797 121.729  1.00  0.00     0.210 HD
ENDBRANCH  21  22
BRANCH  21  24
HETATM   24  C14 UNL     1      -9.876  78.216 118.946  1.00  0.00     0.077 C 
HETATM   25  C15 UNL     1     -11.071  78.140 117.997  1.00  0.00    -0.065 C 
HETATM   26  C16 UNL     1     -10.928  77.628 116.812  1.00  0.00    -0.046 C 
HETATM   27  C20 UNL     1     -12.468  78.626 118.251  1.00  0.00     0.039 C 
HETATM   28  C17 UNL     1     -12.246  77.672 116.096  1.00  0.00     0.041 C 
HETATM   29  C21 UNL     1      -9.668  77.079 116.216  1.00  0.00     0.178 C 
HETATM   30  C18 UNL     1     -13.014  78.722 116.814  1.00  0.00    -0.011 C 
HETATM   31  C19 UNL     1     -12.841  80.108 116.256  1.00  0.00     0.010 C 
HETATM   32  C22 UNL     1      -8.493  77.284 117.099  1.00  0.00     0.180 C 
HETATM   33  C23 UNL     1      -9.013  77.048 118.538  1.00  0.00     0.160 C 
BRANCH  29  34
HETATM   34  O7  UNL     1      -9.435  77.633 114.956  1.00  0.00    -0.389 OA
ATOM     35  H7  UNL     1     -10.185  78.141 114.668  1.00  0.00     0.210 HD
ENDBRANCH  29  34
BRANCH  32  36
HETATM   36  O8  UNL     1      -7.937  78.538 117.068  1.00  0.00    -0.390 OA
ATOM     37  H8  UNL     1      -7.315  78.730 117.760  1.00  0.00     0.210 HD
ENDBRANCH  32  36
BRANCH  33  38
HETATM   38  O9  UNL     1      -7.880  76.826 119.273  1.00  0.00    -0.392 OA
ATOM     39  H9  UNL     1      -7.069  77.190 118.939  1.00  0.00     0.210 HD
ENDBRANCH  33  38
ENDBRANCH  21  24
ENDBRANCH   1  21
TORSDOF 16
ENDMDL
