MODEL 1
REMARK VINA RESULT: -6.187985345      0.000      0.000
REMARK  5 active torsions:
REMARK  status: ('A' for Active; 'I' for Inactive)
REMARK    1  A    between atoms: C4_4  and  C5_5 
REMARK    2  A    between atoms: C5_5  and  C6_6 
REMARK    3  A    between atoms: C9_10  and  O2_11 
REMARK    4  A    between atoms: N1_16  and  C13_17 
REMARK    5  A    between atoms: C13_17  and  C14_18 
ROOT
HETATM    1  C6  UNL     1      43.029  30.993   0.925  1.00  0.00     0.082 C 
HETATM    2  O1  UNL     1      43.518  30.322  -0.228  1.00  0.00    -0.364 OA
HETATM    3  C7  UNL     1      42.241  30.445  -0.759  1.00  0.00     0.096 C 
HETATM    4  C8  UNL     1      41.768  29.298  -1.606  1.00  0.00     0.050 C 
HETATM    5  C9  UNL     1      42.077  31.749  -1.451  1.00  0.00     0.153 C 
HETATM    6  C10 UNL     1      43.158  32.673  -0.873  1.00  0.00     0.044 C 
HETATM    7  C11 UNL     1      43.035  32.499   0.615  1.00  0.00     0.042 C 
HETATM    8  C12 UNL     1      41.826  33.219   1.095  1.00  0.00     0.129 C 
HETATM    9  N1  UNL     1      40.930  32.327   1.723  1.00  0.00    -0.389 N 
HETATM   10  C16 UNL     1      40.527  31.216   0.952  1.00  0.00     0.137 C 
HETATM   11  C17 UNL     1      41.752  30.359   0.689  1.00  0.00     0.037 C 
HETATM   12  C18 UNL     1      41.567  28.914   1.002  1.00  0.00     0.023 C 
ENDROOT
BRANCH   1  13
HETATM   13  C5  UNL     1      43.874  30.814   2.131  1.00  0.00     0.067 C 
BRANCH  13  14
HETATM   14  C4  UNL     1      44.998  29.900   1.971  1.00  0.00    -0.022 C 
HETATM   15  C2  UNL     1      45.120  28.757   2.666  1.00  0.00    -0.091 C 
HETATM   16  C1  UNL     1      46.304  27.898   2.427  1.00  0.00     0.042 C 
HETATM   17  C3  UNL     1      44.091  28.376   3.644  1.00  0.00     0.042 C 
ENDBRANCH  13  14
ENDBRANCH   1  13
BRANCH   5  18
HETATM   18  O2  UNL     1      42.436  31.558  -2.789  1.00  0.00    -0.393 OA
ATOM     19  H2  UNL     1      41.649  31.312  -3.261  1.00  0.00     0.210 HD
ENDBRANCH   5  18
BRANCH   9  20
HETATM   20  C13 UNL     1      40.076  32.806   2.729  1.00  0.00     0.092 C 
BRANCH  20  21
HETATM   21  C14 UNL     1      40.348  34.193   3.204  1.00  0.00     0.183 A 
HETATM   22  C15 UNL     1      39.792  34.579   4.521  1.00  0.00     0.206 A 
HETATM   23  O3  UNL     1      41.193  34.285   4.369  1.00  0.00    -0.376 OA
ENDBRANCH  20  21
ENDBRANCH   9  20
TORSDOF 5
ENDMDL
MODEL 2
REMARK VINA RESULT: -6.138022890      2.891      5.620
REMARK  5 active torsions:
REMARK  status: ('A' for Active; 'I' for Inactive)
REMARK    1  A    between atoms: C4_4  and  C5_5 
REMARK    2  A    between atoms: C5_5  and  C6_6 
REMARK    3  A    between atoms: C9_10  and  O2_11 
REMARK    4  A    between atoms: N1_16  and  C13_17 
REMARK    5  A    between atoms: C13_17  and  C14_18 
ROOT
HETATM    1  C6  UNL     1      43.372  28.658   2.358  1.00  0.00     0.082 C 
HETATM    2  O1  UNL     1      43.020  29.852   3.043  1.00  0.00    -0.364 OA
HETATM    3  C7  UNL     1      43.358  30.537   1.882  1.00  0.00     0.096 C 
HETATM    4  C8  UNL     1      43.996  31.883   2.075  1.00  0.00     0.050 C 
HETATM    5  C9  UNL     1      42.204  30.600   0.949  1.00  0.00     0.153 C 
HETATM    6  C10 UNL     1      41.267  29.455   1.358  1.00  0.00     0.044 C 
HETATM    7  C11 UNL     1      42.173  28.263   1.480  1.00  0.00     0.042 C 
HETATM    8  C12 UNL     1      42.549  27.788   0.122  1.00  0.00     0.129 C 
HETATM    9  N1  UNL     1      43.949  27.829  -0.051  1.00  0.00    -0.389 N 
HETATM   10  C16 UNL     1      44.562  29.078   0.185  1.00  0.00     0.137 C 
HETATM   11  C17 UNL     1      44.378  29.420   1.653  1.00  0.00     0.037 C 
HETATM   12  C18 UNL     1      45.632  29.825   2.348  1.00  0.00     0.023 C 
ENDROOT
BRANCH   1  13
HETATM   13  C5  UNL     1      43.632  27.503   3.252  1.00  0.00     0.067 C 
BRANCH  13  14
HETATM   14  C4  UNL     1      44.773  27.656   4.146  1.00  0.00    -0.022 C 
HETATM   15  C2  UNL     1      45.944  27.028   3.956  1.00  0.00    -0.091 C 
HETATM   16  C1  UNL     1      47.042  27.251   4.926  1.00  0.00     0.042 C 
HETATM   17  C3  UNL     1      46.122  26.134   2.802  1.00  0.00     0.042 C 
ENDBRANCH  13  14
ENDBRANCH   1  13
BRANCH   5  18
HETATM   18  O2  UNL     1      41.498  31.772   1.239  1.00  0.00    -0.393 OA
ATOM     19  H2  UNL     1      40.755  31.529   1.778  1.00  0.00     0.210 HD
ENDBRANCH   5  18
BRANCH   9  20
HETATM   20  C13 UNL     1      44.557  26.926  -0.938  1.00  0.00     0.092 C 
BRANCH  20  21
HETATM   21  C14 UNL     1      44.967  27.489  -2.256  1.00  0.00     0.183 A 
HETATM   22  C15 UNL     1      44.773  26.631  -3.447  1.00  0.00     0.206 A 
HETATM   23  O3  UNL     1      43.886  27.733  -3.179  1.00  0.00    -0.376 OA
ENDBRANCH  20  21
ENDBRANCH   9  20
TORSDOF 5
ENDMDL
MODEL 3
REMARK VINA RESULT: -6.083970236      1.469      1.788
REMARK  5 active torsions:
REMARK  status: ('A' for Active; 'I' for Inactive)
REMARK    1  A    between atoms: C4_4  and  C5_5 
REMARK    2  A    between atoms: C5_5  and  C6_6 
REMARK    3  A    between atoms: C9_10  and  O2_11 
REMARK    4  A    between atoms: N1_16  and  C13_17 
REMARK    5  A    between atoms: C13_17  and  C14_18 
ROOT
HETATM    1  C6  UNL     1      44.020  29.846   1.646  1.00  0.00     0.082 C 
HETATM    2  O1  UNL     1      44.387  29.110   0.487  1.00  0.00    -0.364 OA
HETATM    3  C7  UNL     1      43.030  28.969   0.229  1.00  0.00     0.096 C 
HETATM    4  C8  UNL     1      42.610  27.663  -0.382  1.00  0.00     0.050 C 
HETATM    5  C9  UNL     1      42.511  30.131  -0.537  1.00  0.00     0.153 C 
HETATM    6  C10 UNL     1      43.506  31.275  -0.294  1.00  0.00     0.044 C 
HETATM    7  C11 UNL     1      43.704  31.282   1.196  1.00  0.00     0.042 C 
HETATM    8  C12 UNL     1      42.503  31.869   1.848  1.00  0.00     0.129 C 
HETATM    9  N1  UNL     1      41.915  30.942   2.736  1.00  0.00    -0.389 N 
HETATM   10  C16 UNL     1      41.571  29.692   2.180  1.00  0.00     0.137 C 
HETATM   11  C17 UNL     1      42.852  29.001   1.749  1.00  0.00     0.037 C 
HETATM   12  C18 UNL     1      42.984  27.599   2.234  1.00  0.00     0.023 C 
ENDROOT
BRANCH   1  13
HETATM   13  C5  UNL     1      45.099  29.956   2.658  1.00  0.00     0.067 C 
BRANCH  13  14
HETATM   14  C4  UNL     1      46.256  29.100   2.427  1.00  0.00    -0.022 C 
HETATM   15  C2  UNL     1      46.549  28.038   3.196  1.00  0.00    -0.091 C 
HETATM   16  C1  UNL     1      47.750  27.232   2.874  1.00  0.00     0.042 C 
HETATM   17  C3  UNL     1      45.685  27.693   4.335  1.00  0.00     0.042 C 
ENDBRANCH  13  14
ENDBRANCH   1  13
BRANCH   5  18
HETATM   18  O2  UNL     1      42.634  29.822  -1.896  1.00  0.00    -0.393 OA
ATOM     19  H2  UNL     1      41.917  30.250  -2.349  1.00  0.00     0.210 HD
ENDBRANCH   5  18
BRANCH   9  20
HETATM   20  C13 UNL     1      41.201  31.416   3.848  1.00  0.00     0.092 C 
BRANCH  20  21
HETATM   21  C14 UNL     1      40.431  32.675   3.636  1.00  0.00     0.183 A 
HETATM   22  C15 UNL     1      39.900  33.354   4.840  1.00  0.00     0.206 A 
HETATM   23  O3  UNL     1      41.057  33.868   4.152  1.00  0.00    -0.376 OA
ENDBRANCH  20  21
ENDBRANCH   9  20
TORSDOF 5
ENDMDL
MODEL 4
REMARK VINA RESULT: -5.890919531      2.358      5.063
REMARK  5 active torsions:
REMARK  status: ('A' for Active; 'I' for Inactive)
REMARK    1  A    between atoms: C4_4  and  C5_5 
REMARK    2  A    between atoms: C5_5  and  C6_6 
REMARK    3  A    between atoms: C9_10  and  O2_11 
REMARK    4  A    between atoms: N1_16  and  C13_17 
REMARK    5  A    between atoms: C13_17  and  C14_18 
ROOT
HETATM    1  C6  UNL     1      42.745  31.265   0.836  1.00  0.00     0.082 C 
HETATM    2  O1  UNL     1      41.795  32.174   1.377  1.00  0.00    -0.364 OA
HETATM    3  C7  UNL     1      41.307  32.328   0.086  1.00  0.00     0.096 C 
HETATM    4  C8  UNL     1      40.821  33.703  -0.273  1.00  0.00     0.050 C 
HETATM    5  C9  UNL     1      40.297  31.285  -0.228  1.00  0.00     0.153 C 
HETATM    6  C10 UNL     1      40.557  30.136   0.756  1.00  0.00     0.044 C 
HETATM    7  C11 UNL     1      42.040  29.908   0.674  1.00  0.00     0.042 C 
HETATM    8  C12 UNL     1      42.361  29.209  -0.598  1.00  0.00     0.129 C 
HETATM    9  N1  UNL     1      43.244  29.981  -1.383  1.00  0.00    -0.389 N 
HETATM   10  C16 UNL     1      42.819  31.294  -1.675  1.00  0.00     0.137 C 
HETATM   11  C17 UNL     1      42.744  32.064  -0.369  1.00  0.00     0.037 C 
HETATM   12  C18 UNL     1      43.442  33.380  -0.394  1.00  0.00     0.023 C 
ENDROOT
BRANCH   1  13
HETATM   13  C5  UNL     1      43.917  31.024   1.712  1.00  0.00     0.067 C 
BRANCH  13  14
HETATM   14  C4  UNL     1      43.753  29.952   2.686  1.00  0.00    -0.022 C 
HETATM   15  C2  UNL     1      44.671  28.991   2.882  1.00  0.00    -0.091 C 
HETATM   16  C1  UNL     1      44.406  27.945   3.898  1.00  0.00     0.042 C 
HETATM   17  C3  UNL     1      45.912  28.987   2.095  1.00  0.00     0.042 C 
ENDBRANCH  13  14
ENDBRANCH   1  13
BRANCH   5  18
HETATM   18  O2  UNL     1      39.045  31.797   0.130  1.00  0.00    -0.393 OA
ATOM     19  H2  UNL     1      38.529  31.865  -0.665  1.00  0.00     0.210 HD
ENDBRANCH   5  18
BRANCH   9  20
HETATM   20  C13 UNL     1      44.120  29.332  -2.269  1.00  0.00     0.092 C 
BRANCH  20  21
HETATM   21  C14 UNL     1      44.756  28.086  -1.755  1.00  0.00     0.183 A 
HETATM   22  C15 UNL     1      44.599  26.860  -2.572  1.00  0.00     0.206 A 
HETATM   23  O3  UNL     1      45.846  27.581  -2.554  1.00  0.00    -0.376 OA
ENDBRANCH  20  21
ENDBRANCH   9  20
TORSDOF 5
ENDMDL
MODEL 5
REMARK VINA RESULT: -5.754682375      3.241      6.023
REMARK  5 active torsions:
REMARK  status: ('A' for Active; 'I' for Inactive)
REMARK    1  A    between atoms: C4_4  and  C5_5 
REMARK    2  A    between atoms: C5_5  and  C6_6 
REMARK    3  A    between atoms: C9_10  and  O2_11 
REMARK    4  A    between atoms: N1_16  and  C13_17 
REMARK    5  A    between atoms: C13_17  and  C14_18 
ROOT
HETATM    1  C6  UNL     1      44.918  28.997   2.200  1.00  0.00     0.082 C 
HETATM    2  O1  UNL     1      44.187  29.247   3.393  1.00  0.00    -0.364 OA
HETATM    3  C7  UNL     1      43.100  29.552   2.584  1.00  0.00     0.096 C 
HETATM    4  C8  UNL     1      42.203  30.652   3.075  1.00  0.00     0.050 C 
HETATM    5  C9  UNL     1      42.335  28.326   2.240  1.00  0.00     0.153 C 
HETATM    6  C10 UNL     1      43.304  27.152   2.444  1.00  0.00     0.044 C 
HETATM    7  C11 UNL     1      44.555  27.579   1.730  1.00  0.00     0.042 C 
HETATM    8  C12 UNL     1      44.348  27.464   0.262  1.00  0.00     0.129 C 
HETATM    9  N1  UNL     1      44.521  28.716  -0.366  1.00  0.00    -0.389 N 
HETATM   10  C16 UNL     1      43.722  29.768   0.130  1.00  0.00     0.137 C 
HETATM   11  C17 UNL     1      44.136  30.034   1.566  1.00  0.00     0.037 C 
HETATM   12  C18 UNL     1      44.410  31.467   1.868  1.00  0.00     0.023 C 
ENDROOT
BRANCH   1  13
HETATM   13  C5  UNL     1      46.390  29.013   2.380  1.00  0.00     0.067 C 
BRANCH  13  14
HETATM   14  C4  UNL     1      47.025  27.701   2.409  1.00  0.00    -0.022 C 
HETATM   15  C2  UNL     1      47.491  27.135   3.534  1.00  0.00    -0.091 C 
HETATM   16  C1  UNL     1      48.121  25.796   3.453  1.00  0.00     0.042 C 
HETATM   17  C3  UNL     1      47.373  27.842   4.817  1.00  0.00     0.042 C 
ENDBRANCH  13  14
ENDBRANCH   1  13
BRANCH   5  18
HETATM   18  O2  UNL     1      41.350  28.162   3.220  1.00  0.00    -0.393 OA
ATOM     19  H2  UNL     1      41.028  27.270   3.151  1.00  0.00     0.210 HD
ENDBRANCH   5  18
BRANCH   9  20
HETATM   20  C13 UNL     1      44.960  28.760  -1.699  1.00  0.00     0.092 C 
BRANCH  20  21
HETATM   21  C14 UNL     1      44.926  27.464  -2.436  1.00  0.00     0.183 A 
HETATM   22  C15 UNL     1      45.266  27.497  -3.877  1.00  0.00     0.206 A 
HETATM   23  O3  UNL     1      46.206  26.996  -2.908  1.00  0.00    -0.376 OA
ENDBRANCH  20  21
ENDBRANCH   9  20
TORSDOF 5
ENDMDL
