MODEL 1
REMARK VINA RESULT: -8.834699587      0.000      0.000
REMARK  8 active torsions:
REMARK  status: ('A' for Active; 'I' for Inactive)
REMARK       I    between atoms: C1_4  and  N3_6 
REMARK    1  A    between atoms: C2_8  and  N4_9 
REMARK    2  A    between atoms: C2_8  and  C18_32 
REMARK    3  A    between atoms: N4_9  and  C3_11 
REMARK    4  A    between atoms: C3_11  and  C4_12 
REMARK       I    between atoms: C4_12  and  N5_14 
REMARK    5  A    between atoms: N5_14  and  S1_16 
REMARK    6  A    between atoms: S1_16  and  C5_19 
REMARK    7  A    between atoms: C10_24  and  C11_25 
REMARK    8  A    between atoms: C20_34  and  C21_35 
ROOT
HETATM    1  C3  UNL     1      -8.736 -40.328   3.605  1.00  0.00     0.120 C 
HETATM    2  C8  UNL     1      -8.522 -39.222   2.616  1.00  0.00     0.069 C 
HETATM    3  C9  UNL     1      -7.627 -38.256   3.340  1.00  0.00    -0.021 C 
HETATM    4  C10 UNL     1      -7.764 -38.387   4.644  1.00  0.00    -0.077 C 
HETATM    5  C17 UNL     1      -8.773 -39.441   4.890  1.00  0.00     0.075 C 
ENDROOT
BRANCH   1   6
HETATM    6  N4  UNL     1      -7.710 -41.266   3.793  1.00  0.00    -0.361 N 
ATOM      7  H4  UNL     1      -7.887 -41.914   4.560  1.00  0.00     0.162 HD
BRANCH   6   8
HETATM    8  C2  UNL     1      -6.485 -41.495   3.136  1.00  0.00     0.085 C 
HETATM    9  N3  UNL     1      -6.450 -42.230   2.095  1.00  0.00    -0.320 N 
HETATM   10  C1  UNL     1      -7.415 -42.924   1.391  1.00  0.00     0.187 C 
ATOM     11  H3  UNL     1      -5.515 -42.327   1.700  1.00  0.00     0.169 HD
HETATM   12  N1  UNL     1      -7.498 -42.674   0.098  1.00  0.00    -0.373 N 
HETATM   13  N2  UNL     1      -8.306 -43.882   1.954  1.00  0.00    -0.064 NA
ATOM     14  H12 UNL     1      -8.210 -43.186  -0.422  1.00  0.00     0.158 HD
ATOM     15  H11 UNL     1      -6.859 -41.987  -0.305  1.00  0.00     0.158 HD
BRANCH   8  16
HETATM   16  C18 UNL     1      -5.239 -40.950   3.726  1.00  0.00     0.058 C 
HETATM   17  C19 UNL     1      -3.988 -41.754   3.401  1.00  0.00     0.031 C 
HETATM   18  C20 UNL     1      -3.401 -41.843   4.784  1.00  0.00     0.040 C 
HETATM   19  C22 UNL     1      -3.840 -40.571   5.517  1.00  0.00     0.024 C 
HETATM   20  C24 UNL     1      -4.597 -42.483   5.512  1.00  0.00     0.024 C 
HETATM   21  C23 UNL     1      -5.230 -41.110   5.231  1.00  0.00    -0.001 C 
BRANCH  18  22
HETATM   22  C21 UNL     1      -2.097 -42.333   4.982  1.00  0.00     0.239 C 
HETATM   23  N6  UNL     1      -1.172 -41.765   5.890  1.00  0.00    -0.061 NA
HETATM   24  O4  UNL     1      -1.698 -43.353   4.316  1.00  0.00    -0.276 OA
ENDBRANCH  18  22
ENDBRANCH   8  16
ENDBRANCH   6   8
ENDBRANCH   1   6
BRANCH   1  25
HETATM   25  C4  UNL     1     -10.125 -40.885   3.518  1.00  0.00     0.260 C 
HETATM   26  O1  UNL     1     -10.214 -42.098   3.776  1.00  0.00    -0.270 OA
HETATM   27  N5  UNL     1     -11.251 -40.145   3.181  1.00  0.00    -0.252 N 
ATOM     28  H5  UNL     1     -11.035 -39.166   2.992  1.00  0.00     0.181 HD
BRANCH  27  29
HETATM   29  S1  UNL     1     -12.878 -40.487   3.014  1.00  0.00     0.237 S 
HETATM   30  O2  UNL     1     -13.631 -39.160   3.293  1.00  0.00    -0.205 OA
HETATM   31  O3  UNL     1     -13.371 -41.389   4.170  1.00  0.00    -0.205 OA
BRANCH  29  32
HETATM   32  C5  UNL     1     -13.554 -41.139   1.572  1.00  0.00     0.130 A 
HETATM   33  C6  UNL     1     -14.315 -40.457   0.523  1.00  0.00     0.023 A 
HETATM   34  C7  UNL     1     -12.999 -41.085   0.223  1.00  0.00     0.023 A 
ENDBRANCH  29  32
ENDBRANCH  27  29
ENDBRANCH   1  25
BRANCH   4  35
HETATM   35  C11 UNL     1      -7.062 -37.625   5.719  1.00  0.00     0.014 C 
HETATM   36  C12 UNL     1      -8.016 -36.664   6.403  1.00  0.00     0.009 C 
HETATM   37  C13 UNL     1      -7.177 -35.741   7.251  1.00  0.00     0.001 C 
HETATM   38  C14 UNL     1      -6.263 -36.443   8.206  1.00  0.00     0.000 C 
HETATM   39  C15 UNL     1      -5.543 -37.610   7.609  1.00  0.00     0.001 C 
HETATM   40  C16 UNL     1      -6.430 -38.487   6.754  1.00  0.00     0.009 C 
ENDBRANCH   4  35
TORSDOF 8
ENDMDL
MODEL 2
REMARK VINA RESULT: -8.797984554      0.714      1.116
REMARK  8 active torsions:
REMARK  status: ('A' for Active; 'I' for Inactive)
REMARK       I    between atoms: C1_4  and  N3_6 
REMARK    1  A    between atoms: C2_8  and  N4_9 
REMARK    2  A    between atoms: C2_8  and  C18_32 
REMARK    3  A    between atoms: N4_9  and  C3_11 
REMARK    4  A    between atoms: C3_11  and  C4_12 
REMARK       I    between atoms: C4_12  and  N5_14 
REMARK    5  A    between atoms: N5_14  and  S1_16 
REMARK    6  A    between atoms: S1_16  and  C5_19 
REMARK    7  A    between atoms: C10_24  and  C11_25 
REMARK    8  A    between atoms: C20_34  and  C21_35 
ROOT
HETATM    1  C3  UNL     1      -8.534 -40.031   3.977  1.00  0.00     0.120 C 
HETATM    2  C8  UNL     1      -8.430 -38.716   3.265  1.00  0.00     0.069 C 
HETATM    3  C9  UNL     1      -7.614 -37.863   4.195  1.00  0.00    -0.021 C 
HETATM    4  C10 UNL     1      -7.724 -38.297   5.435  1.00  0.00    -0.077 C 
HETATM    5  C17 UNL     1      -8.632 -39.464   5.429  1.00  0.00     0.075 C 
ENDROOT
BRANCH   1   6
HETATM    6  N4  UNL     1      -7.428 -40.893   3.956  1.00  0.00    -0.361 N 
ATOM      7  H4  UNL     1      -7.520 -41.689   4.586  1.00  0.00     0.162 HD
BRANCH   6   8
HETATM    8  C2  UNL     1      -6.213 -40.881   3.241  1.00  0.00     0.085 C 
HETATM    9  N3  UNL     1      -6.202 -41.188   2.003  1.00  0.00    -0.320 N 
HETATM   10  C1  UNL     1      -7.186 -41.566   1.111  1.00  0.00     0.187 C 
ATOM     11  H3  UNL     1      -5.274 -41.145   1.585  1.00  0.00     0.169 HD
HETATM   12  N1  UNL     1      -7.279 -40.861  -0.001  1.00  0.00    -0.373 N 
HETATM   13  N2  UNL     1      -8.087 -42.653   1.301  1.00  0.00    -0.064 NA
ATOM     14  H12 UNL     1      -8.006 -41.140  -0.660  1.00  0.00     0.158 HD
ATOM     15  H11 UNL     1      -6.634 -40.082  -0.136  1.00  0.00     0.158 HD
BRANCH   8  16
HETATM   16  C18 UNL     1      -4.953 -40.603   3.968  1.00  0.00     0.058 C 
HETATM   17  C19 UNL     1      -3.757 -41.408   3.480  1.00  0.00     0.031 C 
HETATM   18  C20 UNL     1      -3.231 -41.878   4.809  1.00  0.00     0.040 C 
HETATM   19  C22 UNL     1      -3.597 -40.789   5.822  1.00  0.00     0.024 C 
HETATM   20  C24 UNL     1      -4.501 -42.571   5.337  1.00  0.00     0.024 C 
HETATM   21  C23 UNL     1      -5.013 -41.122   5.389  1.00  0.00    -0.001 C 
BRANCH  18  22
HETATM   22  C21 UNL     1      -1.979 -42.511   4.906  1.00  0.00     0.239 C 
HETATM   23  N6  UNL     1      -0.985 -42.152   5.848  1.00  0.00    -0.061 NA
HETATM   24  O4  UNL     1      -1.693 -43.472   4.107  1.00  0.00    -0.276 OA
ENDBRANCH  18  22
ENDBRANCH   8  16
ENDBRANCH   6   8
ENDBRANCH   1   6
BRANCH   1  25
HETATM   25  C4  UNL     1      -9.870 -40.674   3.755  1.00  0.00     0.260 C 
HETATM   26  O1  UNL     1      -9.871 -41.914   3.852  1.00  0.00    -0.270 OA
HETATM   27  N5  UNL     1     -11.039 -39.983   3.464  1.00  0.00    -0.252 N 
ATOM     28  H5  UNL     1     -10.895 -38.975   3.411  1.00  0.00     0.181 HD
BRANCH  27  29
HETATM   29  S1  UNL     1     -12.626 -40.421   3.179  1.00  0.00     0.237 S 
HETATM   30  O2  UNL     1     -13.468 -39.128   3.335  1.00  0.00    -0.205 OA
HETATM   31  O3  UNL     1     -13.167 -41.301   4.331  1.00  0.00    -0.205 OA
BRANCH  29  32
HETATM   32  C5  UNL     1     -13.143 -41.168   1.719  1.00  0.00     0.130 A 
HETATM   33  C6  UNL     1     -13.943 -40.603   0.629  1.00  0.00     0.023 A 
HETATM   34  C7  UNL     1     -12.542 -41.047   0.394  1.00  0.00     0.023 A 
ENDBRANCH  29  32
ENDBRANCH  27  29
ENDBRANCH   1  25
BRANCH   4  35
HETATM   35  C11 UNL     1      -7.078 -37.738   6.660  1.00  0.00     0.014 C 
HETATM   36  C12 UNL     1      -5.613 -38.128   6.717  1.00  0.00     0.009 C 
HETATM   37  C13 UNL     1      -5.121 -37.786   8.102  1.00  0.00     0.001 C 
HETATM   38  C14 UNL     1      -5.369 -36.368   8.511  1.00  0.00     0.000 C 
HETATM   39  C15 UNL     1      -6.735 -35.868   8.165  1.00  0.00     0.001 C 
HETATM   40  C16 UNL     1      -7.182 -36.257   6.775  1.00  0.00     0.009 C 
ENDBRANCH   4  35
TORSDOF 8
ENDMDL
MODEL 3
REMARK VINA RESULT: -8.713334771      1.791      2.494
REMARK  8 active torsions:
REMARK  status: ('A' for Active; 'I' for Inactive)
REMARK       I    between atoms: C1_4  and  N3_6 
REMARK    1  A    between atoms: C2_8  and  N4_9 
REMARK    2  A    between atoms: C2_8  and  C18_32 
REMARK    3  A    between atoms: N4_9  and  C3_11 
REMARK    4  A    between atoms: C3_11  and  C4_12 
REMARK       I    between atoms: C4_12  and  N5_14 
REMARK    5  A    between atoms: N5_14  and  S1_16 
REMARK    6  A    between atoms: S1_16  and  C5_19 
REMARK    7  A    between atoms: C10_24  and  C11_25 
REMARK    8  A    between atoms: C20_34  and  C21_35 
ROOT
HETATM    1  C3  UNL     1      -8.083 -38.563   4.889  1.00  0.00     0.120 C 
HETATM    2  C8  UNL     1      -8.529 -37.134   4.981  1.00  0.00     0.069 C 
HETATM    3  C9  UNL     1      -7.666 -36.554   6.065  1.00  0.00    -0.021 C 
HETATM    4  C10 UNL     1      -7.249 -37.501   6.881  1.00  0.00    -0.077 C 
HETATM    5  C17 UNL     1      -7.814 -38.785   6.411  1.00  0.00     0.075 C 
ENDROOT
BRANCH   1   6
HETATM    6  N4  UNL     1      -6.883 -38.847   4.222  1.00  0.00    -0.361 N 
ATOM      7  H4  UNL     1      -6.378 -38.013   3.921  1.00  0.00     0.162 HD
BRANCH   6   8
HETATM    8  C2  UNL     1      -6.231 -40.050   3.884  1.00  0.00     0.085 C 
HETATM    9  N3  UNL     1      -6.324 -40.510   2.698  1.00  0.00    -0.320 N 
HETATM   10  C1  UNL     1      -6.971 -40.073   1.559  1.00  0.00     0.187 C 
ATOM     11  H3  UNL     1      -5.814 -41.382   2.562  1.00  0.00     0.169 HD
HETATM   12  N1  UNL     1      -6.234 -39.942   0.473  1.00  0.00    -0.373 N 
HETATM   13  N2  UNL     1      -8.361 -39.768   1.475  1.00  0.00    -0.064 NA
ATOM     14  H12 UNL     1      -6.711 -39.619  -0.368  1.00  0.00     0.158 HD
ATOM     15  H11 UNL     1      -5.238 -40.160   0.534  1.00  0.00     0.158 HD
BRANCH   8  16
HETATM   16  C18 UNL     1      -5.526 -40.810   4.943  1.00  0.00     0.058 C 
HETATM   17  C19 UNL     1      -4.266 -40.135   5.464  1.00  0.00     0.031 C 
HETATM   18  C20 UNL     1      -3.330 -41.312   5.412  1.00  0.00     0.040 C 
HETATM   19  C22 UNL     1      -4.195 -42.556   5.643  1.00  0.00     0.024 C 
HETATM   20  C24 UNL     1      -3.486 -41.677   3.924  1.00  0.00     0.024 C 
HETATM   21  C23 UNL     1      -4.899 -42.070   4.388  1.00  0.00    -0.001 C 
BRANCH  18  22
HETATM   22  C21 UNL     1      -2.055 -41.246   6.002  1.00  0.00     0.239 C 
HETATM   23  N6  UNL     1      -1.026 -42.187   5.761  1.00  0.00    -0.061 NA
HETATM   24  O4  UNL     1      -1.781 -40.288   6.809  1.00  0.00    -0.276 OA
ENDBRANCH  18  22
ENDBRANCH   8  16
ENDBRANCH   6   8
ENDBRANCH   1   6
BRANCH   1  25
HETATM   25  C4  UNL     1      -9.231 -39.481   4.592  1.00  0.00     0.260 C 
HETATM   26  O1  UNL     1      -8.987 -40.688   4.765  1.00  0.00    -0.270 OA
HETATM   27  N5  UNL     1     -10.483 -39.063   4.159  1.00  0.00    -0.252 N 
ATOM     28  H5  UNL     1     -10.544 -38.050   4.058  1.00  0.00     0.181 HD
BRANCH  27  29
HETATM   29  S1  UNL     1     -11.911 -39.836   3.767  1.00  0.00     0.237 S 
HETATM   30  O2  UNL     1     -12.992 -38.728   3.674  1.00  0.00    -0.205 OA
HETATM   31  O3  UNL     1     -12.420 -40.686   4.955  1.00  0.00    -0.205 OA
BRANCH  29  32
HETATM   32  C5  UNL     1     -12.090 -40.815   2.363  1.00  0.00     0.130 A 
HETATM   33  C6  UNL     1     -11.287 -41.962   1.933  1.00  0.00     0.023 A 
HETATM   34  C7  UNL     1     -12.730 -42.123   2.264  1.00  0.00     0.023 A 
ENDBRANCH  29  32
ENDBRANCH  27  29
ENDBRANCH   1  25
BRANCH   4  35
HETATM   35  C11 UNL     1      -6.375 -37.354   8.083  1.00  0.00     0.014 C 
HETATM   36  C12 UNL     1      -4.946 -37.742   7.754  1.00  0.00     0.009 C 
HETATM   37  C13 UNL     1      -4.208 -37.851   9.066  1.00  0.00     0.001 C 
HETATM   38  C14 UNL     1      -4.304 -36.634   9.930  1.00  0.00     0.000 C 
HETATM   39  C15 UNL     1      -5.679 -36.051  10.005  1.00  0.00     0.001 C 
HETATM   40  C16 UNL     1      -6.376 -35.985   8.665  1.00  0.00     0.009 C 
ENDBRANCH   4  35
TORSDOF 8
ENDMDL
MODEL 4
REMARK VINA RESULT: -8.556510053      1.272      1.413
REMARK  8 active torsions:
REMARK  status: ('A' for Active; 'I' for Inactive)
REMARK       I    between atoms: C1_4  and  N3_6 
REMARK    1  A    between atoms: C2_8  and  N4_9 
REMARK    2  A    between atoms: C2_8  and  C18_32 
REMARK    3  A    between atoms: N4_9  and  C3_11 
REMARK    4  A    between atoms: C3_11  and  C4_12 
REMARK       I    between atoms: C4_12  and  N5_14 
REMARK    5  A    between atoms: N5_14  and  S1_16 
REMARK    6  A    between atoms: S1_16  and  C5_19 
REMARK    7  A    between atoms: C10_24  and  C11_25 
REMARK    8  A    between atoms: C20_34  and  C21_35 
ROOT
HETATM    1  C3  UNL     1      -9.485 -39.879   3.903  1.00  0.00     0.120 C 
HETATM    2  C8  UNL     1      -9.115 -38.873   2.854  1.00  0.00     0.069 C 
HETATM    3  C9  UNL     1      -8.040 -38.050   3.505  1.00  0.00    -0.021 C 
HETATM    4  C10 UNL     1      -8.151 -38.097   4.818  1.00  0.00    -0.077 C 
HETATM    5  C17 UNL     1      -9.320 -38.944   5.143  1.00  0.00     0.075 C 
ENDROOT
BRANCH   1   6
HETATM    6  N4  UNL     1      -8.634 -40.975   4.108  1.00  0.00    -0.361 N 
ATOM      7  H4  UNL     1      -8.854 -41.509   4.948  1.00  0.00     0.162 HD
BRANCH   6   8
HETATM    8  C2  UNL     1      -7.535 -41.487   3.389  1.00  0.00     0.085 C 
HETATM    9  N3  UNL     1      -7.712 -42.419   2.538  1.00  0.00    -0.320 N 
HETATM   10  C1  UNL     1      -8.826 -43.115   2.112  1.00  0.00     0.187 C 
ATOM     11  H3  UNL     1      -6.852 -42.713   2.075  1.00  0.00     0.169 HD
HETATM   12  N1  UNL     1      -9.054 -43.128   0.812  1.00  0.00    -0.373 N 
HETATM   13  N2  UNL     1      -9.727 -43.817   2.964  1.00  0.00    -0.064 NA
ATOM     14  H12 UNL     1      -9.877 -43.642   0.497  1.00  0.00     0.158 HD
ATOM     15  H11 UNL     1      -8.409 -42.625   0.201  1.00  0.00     0.158 HD
BRANCH   8  16
HETATM   16  C18 UNL     1      -6.174 -40.994   3.707  1.00  0.00     0.058 C 
HETATM   17  C19 UNL     1      -5.050 -41.860   3.157  1.00  0.00     0.031 C 
HETATM   18  C20 UNL     1      -4.202 -41.960   4.397  1.00  0.00     0.040 C 
HETATM   19  C22 UNL     1      -4.429 -40.660   5.175  1.00  0.00     0.024 C 
HETATM   20  C24 UNL     1      -5.256 -42.534   5.362  1.00  0.00     0.024 C 
HETATM   21  C23 UNL     1      -5.871 -41.136   5.184  1.00  0.00    -0.001 C 
BRANCH  18  22
HETATM   22  C21 UNL     1      -2.908 -42.509   4.342  1.00  0.00     0.239 C 
HETATM   23  N6  UNL     1      -2.472 -43.396   3.330  1.00  0.00    -0.061 NA
HETATM   24  O4  UNL     1      -2.054 -42.205   5.249  1.00  0.00    -0.276 OA
ENDBRANCH  18  22
ENDBRANCH   8  16
ENDBRANCH   6   8
ENDBRANCH   1   6
BRANCH   1  25
HETATM   25  C4  UNL     1     -10.952 -40.185   3.880  1.00  0.00     0.260 C 
HETATM   26  O1  UNL     1     -11.675 -39.291   4.354  1.00  0.00    -0.270 OA
HETATM   27  N5  UNL     1     -11.506 -41.356   3.379  1.00  0.00    -0.252 N 
ATOM     28  H5  UNL     1     -10.801 -42.002   3.024  1.00  0.00     0.181 HD
BRANCH  27  29
HETATM   29  S1  UNL     1     -13.059 -41.952   3.223  1.00  0.00     0.237 S 
HETATM   30  O2  UNL     1     -13.696 -41.876   4.636  1.00  0.00    -0.205 OA
HETATM   31  O3  UNL     1     -13.039 -43.475   2.958  1.00  0.00    -0.205 OA
BRANCH  29  32
HETATM   32  C5  UNL     1     -14.211 -41.288   2.131  1.00  0.00     0.130 A 
HETATM   33  C6  UNL     1     -14.698 -39.910   2.034  1.00  0.00     0.023 A 
HETATM   34  C7  UNL     1     -13.948 -40.533   0.909  1.00  0.00     0.023 A 
ENDBRANCH  29  32
ENDBRANCH  27  29
ENDBRANCH   1  25
BRANCH   4  35
HETATM   35  C11 UNL     1      -7.289 -37.425   5.834  1.00  0.00     0.014 C 
HETATM   36  C12 UNL     1      -8.088 -36.405   6.623  1.00  0.00     0.009 C 
HETATM   37  C13 UNL     1      -7.096 -35.578   7.404  1.00  0.00     0.001 C 
HETATM   38  C14 UNL     1      -6.162 -36.379   8.255  1.00  0.00     0.000 C 
HETATM   39  C15 UNL     1      -5.605 -37.588   7.572  1.00  0.00     0.001 C 
HETATM   40  C16 UNL     1      -6.640 -38.364   6.790  1.00  0.00     0.009 C 
ENDBRANCH   4  35
TORSDOF 8
ENDMDL
MODEL 5
REMARK VINA RESULT: -8.535992211     13.545     16.385
REMARK  8 active torsions:
REMARK  status: ('A' for Active; 'I' for Inactive)
REMARK       I    between atoms: C1_4  and  N3_6 
REMARK    1  A    between atoms: C2_8  and  N4_9 
REMARK    2  A    between atoms: C2_8  and  C18_32 
REMARK    3  A    between atoms: N4_9  and  C3_11 
REMARK    4  A    between atoms: C3_11  and  C4_12 
REMARK       I    between atoms: C4_12  and  N5_14 
REMARK    5  A    between atoms: N5_14  and  S1_16 
REMARK    6  A    between atoms: S1_16  and  C5_19 
REMARK    7  A    between atoms: C10_24  and  C11_25 
REMARK    8  A    between atoms: C20_34  and  C21_35 
ROOT
HETATM    1  C3  UNL     1       3.682 -30.429   8.297  1.00  0.00     0.120 C 
HETATM    2  C8  UNL     1       4.204 -29.342   9.189  1.00  0.00     0.069 C 
HETATM    3  C9  UNL     1       5.279 -30.017   9.992  1.00  0.00    -0.021 C 
HETATM    4  C10 UNL     1       5.061 -31.315  10.060  1.00  0.00    -0.077 C 
HETATM    5  C17 UNL     1       3.814 -31.604   9.317  1.00  0.00     0.075 C 
ENDROOT
BRANCH   1   6
HETATM    6  N4  UNL     1       4.436 -30.788   7.170  1.00  0.00    -0.361 N 
ATOM      7  H4  UNL     1       4.190 -31.703   6.791  1.00  0.00     0.162 HD
BRANCH   6   8
HETATM    8  C2  UNL     1       5.465 -30.142   6.455  1.00  0.00     0.085 C 
HETATM    9  N3  UNL     1       5.185 -29.165   5.685  1.00  0.00    -0.320 N 
HETATM   10  C1  UNL     1       4.007 -28.528   5.351  1.00  0.00     0.187 C 
ATOM     11  H3  UNL     1       6.002 -28.771   5.220  1.00  0.00     0.169 HD
HETATM   12  N1  UNL     1       3.973 -27.220   5.518  1.00  0.00    -0.373 N 
HETATM   13  N2  UNL     1       2.846 -29.175   4.835  1.00  0.00    -0.064 NA
ATOM     14  H12 UNL     1       3.103 -26.749   5.271  1.00  0.00     0.158 HD
ATOM     15  H11 UNL     1       4.804 -26.756   5.888  1.00  0.00     0.158 HD
BRANCH   8  16
HETATM   16  C18 UNL     1       6.844 -30.675   6.540  1.00  0.00     0.058 C 
HETATM   17  C19 UNL     1       7.464 -31.028   5.195  1.00  0.00     0.031 C 
HETATM   18  C20 UNL     1       8.002 -32.392   5.534  1.00  0.00     0.040 C 
HETATM   19  C22 UNL     1       8.343 -32.356   7.027  1.00  0.00     0.024 C 
HETATM   20  C24 UNL     1       6.696 -33.052   6.012  1.00  0.00     0.024 C 
HETATM   21  C23 UNL     1       6.863 -32.052   7.168  1.00  0.00    -0.001 C 
BRANCH  18  22
HETATM   22  C21 UNL     1       8.863 -33.066   4.650  1.00  0.00     0.239 C 
HETATM   23  N6  UNL     1      10.127 -33.583   5.023  1.00  0.00    -0.061 NA
HETATM   24  O4  UNL     1       8.508 -33.238   3.430  1.00  0.00    -0.276 OA
ENDBRANCH  18  22
ENDBRANCH   8  16
ENDBRANCH   6   8
ENDBRANCH   1   6
BRANCH   1  25
HETATM   25  C4  UNL     1       2.204 -30.306   8.084  1.00  0.00     0.260 C 
HETATM   26  O1  UNL     1       1.566 -31.359   8.258  1.00  0.00    -0.270 OA
HETATM   27  N5  UNL     1       1.554 -29.132   7.724  1.00  0.00    -0.252 N 
ATOM     28  H5  UNL     1       2.196 -28.347   7.613  1.00  0.00     0.181 HD
BRANCH  27  29
HETATM   29  S1  UNL     1      -0.035 -28.708   7.431  1.00  0.00     0.237 S 
HETATM   30  O2  UNL     1      -0.004 -27.695   6.256  1.00  0.00    -0.205 OA
HETATM   31  O3  UNL     1      -0.596 -27.846   8.586  1.00  0.00    -0.205 OA
BRANCH  29  32
HETATM   32  C5  UNL     1      -1.256 -29.859   7.052  1.00  0.00     0.130 A 
HETATM   33  C6  UNL     1      -1.793 -30.938   7.885  1.00  0.00     0.023 A 
HETATM   34  C7  UNL     1      -2.665 -29.821   7.431  1.00  0.00     0.023 A 
ENDBRANCH  29  32
ENDBRANCH  27  29
ENDBRANCH   1  25
BRANCH   4  35
HETATM   35  C11 UNL     1       5.885 -32.347  10.756  1.00  0.00     0.014 C 
HETATM   36  C12 UNL     1       5.651 -33.717  10.148  1.00  0.00     0.009 C 
HETATM   37  C13 UNL     1       6.277 -34.724  11.081  1.00  0.00     0.001 C 
HETATM   38  C14 UNL     1       7.714 -34.459  11.400  1.00  0.00     0.000 C 
HETATM   39  C15 UNL     1       8.014 -33.024  11.698  1.00  0.00     0.001 C 
HETATM   40  C16 UNL     1       7.346 -32.062  10.743  1.00  0.00     0.009 C 
ENDBRANCH   4  35
TORSDOF 8
ENDMDL
