MODEL 1
REMARK VINA RESULT: -9.338950950      0.000      0.000
REMARK  10 active torsions:
REMARK  status: ('A' for Active; 'I' for Inactive)
REMARK    1  A    between atoms: C2_2  and  O1_3 
REMARK    2  A    between atoms: C2_2  and  C24_33 
REMARK    3  A    between atoms: O1_3  and  C3_4 
REMARK    4  A    between atoms: C3_4  and  N2_8 
REMARK    5  A    between atoms: N2_8  and  C4_10 
REMARK    6  A    between atoms: C4_10  and  C5_11 
REMARK    7  A    between atoms: C9_15  and  C10_16 
REMARK       I    between atoms: C10_16  and  N3_18 
REMARK    8  A    between atoms: N3_18  and  C11_20 
REMARK    9  A    between atoms: C11_20  and  C13_22 
REMARK   10  A    between atoms: C13_22  and  C14_23 
ROOT
HETATM    1  C5  UNL     1      -9.815  15.051  39.041  1.00  0.00    -0.028 C 
HETATM    2  C6  UNL     1     -10.005  15.993  37.883  1.00  0.00     0.016 C 
HETATM    3  C7  UNL     1     -11.203  14.643  39.513  1.00  0.00     0.011 C 
HETATM    4  C8  UNL     1     -11.109  14.359  40.991  1.00  0.00     0.015 C 
HETATM    5  C9  UNL     1     -11.046  15.690  41.703  1.00  0.00     0.078 C 
HETATM    6  C22 UNL     1     -10.149  16.603  40.900  1.00  0.00     0.015 C 
HETATM    7  C23 UNL     1      -9.126  15.770  40.159  1.00  0.00     0.011 C 
ENDROOT
BRANCH   1   8
HETATM    8  C4  UNL     1      -9.105  13.782  38.633  1.00  0.00     0.132 C 
BRANCH   8   9
HETATM    9  N2  UNL     1      -7.686  13.906  38.628  1.00  0.00    -0.356 N 
ATOM     10  H2  UNL     1      -7.170  13.894  39.507  1.00  0.00     0.163 HD
BRANCH   9  11
HETATM   11  C3  UNL     1      -6.995  14.045  37.400  1.00  0.00     0.218 C 
HETATM   12  N1  UNL     1      -5.950  14.824  37.276  1.00  0.00    -0.365 N 
ATOM     13  H12 UNL     1      -5.452  14.924  36.392  1.00  0.00     0.159 HD
ATOM     14  H11 UNL     1      -5.675  15.319  38.125  1.00  0.00     0.159 HD
BRANCH  11  15
HETATM   15  O1  UNL     1      -7.370  13.369  36.243  1.00  0.00    -0.276 OA
BRANCH  15  16
HETATM   16  C2  UNL     1      -6.611  12.297  35.743  1.00  0.00     0.153 C 
HETATM   17  C1  UNL     1      -5.775  11.700  36.563  1.00  0.00     0.056 C 
BRANCH  16  18
HETATM   18  C24 UNL     1      -6.729  11.840  34.351  1.00  0.00     0.438 C 
HETATM   19  F1  UNL     1      -6.094  12.731  33.510  1.00  0.00    -0.164 F 
HETATM   20  F2  UNL     1      -6.086  10.622  34.216  1.00  0.00    -0.164 F 
HETATM   21  F3  UNL     1      -8.054  11.725  33.978  1.00  0.00    -0.164 F 
ENDBRANCH  16  18
ENDBRANCH  15  16
ENDBRANCH  11  15
ENDBRANCH   9  11
ENDBRANCH   8   9
ENDBRANCH   1   8
BRANCH   5  22
HETATM   22  C10 UNL     1     -12.408  16.210  41.847  1.00  0.00     0.222 C 
HETATM   23  O2  UNL     1     -12.680  17.429  41.580  1.00  0.00    -0.273 OA
HETATM   24  N3  UNL     1     -13.512  15.414  42.289  1.00  0.00    -0.356 N 
ATOM     25  H3  UNL     1     -13.345  14.434  42.516  1.00  0.00     0.162 HD
BRANCH  24  26
HETATM   26  C11 UNL     1     -14.845  15.931  42.428  1.00  0.00     0.084 C 
HETATM   27  C12 UNL     1     -15.550  15.328  43.642  1.00  0.00     0.032 C 
BRANCH  26  28
HETATM   28  C13 UNL     1     -15.680  15.803  41.187  1.00  0.00     0.063 C 
BRANCH  28  29
HETATM   29  C14 UNL     1     -15.949  14.416  40.795  1.00  0.00    -0.055 A 
HETATM   30  C15 UNL     1     -17.237  13.928  40.911  1.00  0.00     0.013 A 
HETATM   31  C16 UNL     1     -17.560  12.628  40.560  1.00  0.00    -0.061 A 
HETATM   32  C17 UNL     1     -18.942  12.089  40.679  1.00  0.00     0.048 C 
HETATM   33  C18 UNL     1     -16.581  11.784  40.079  1.00  0.00     0.013 A 
HETATM   34  C19 UNL     1     -15.293  12.238  39.954  1.00  0.00    -0.061 A 
HETATM   35  C20 UNL     1     -14.243  11.342  39.441  1.00  0.00     0.048 C 
HETATM   36  C21 UNL     1     -14.998  13.542  40.311  1.00  0.00     0.013 A 
ENDBRANCH  28  29
ENDBRANCH  26  28
ENDBRANCH  24  26
ENDBRANCH   5  22
TORSDOF 10
ENDMDL
MODEL 2
REMARK VINA RESULT: -9.328400300      0.098      1.640
REMARK  10 active torsions:
REMARK  status: ('A' for Active; 'I' for Inactive)
REMARK    1  A    between atoms: C2_2  and  O1_3 
REMARK    2  A    between atoms: C2_2  and  C24_33 
REMARK    3  A    between atoms: O1_3  and  C3_4 
REMARK    4  A    between atoms: C3_4  and  N2_8 
REMARK    5  A    between atoms: N2_8  and  C4_10 
REMARK    6  A    between atoms: C4_10  and  C5_11 
REMARK    7  A    between atoms: C9_15  and  C10_16 
REMARK       I    between atoms: C10_16  and  N3_18 
REMARK    8  A    between atoms: N3_18  and  C11_20 
REMARK    9  A    between atoms: C11_20  and  C13_22 
REMARK   10  A    between atoms: C13_22  and  C14_23 
ROOT
HETATM    1  C5  UNL     1      -9.873  15.114  38.993  1.00  0.00    -0.028 C 
HETATM    2  C6  UNL     1     -10.059  16.068  37.845  1.00  0.00     0.016 C 
HETATM    3  C7  UNL     1     -11.262  14.687  39.444  1.00  0.00     0.011 C 
HETATM    4  C8  UNL     1     -11.183  14.386  40.920  1.00  0.00     0.015 C 
HETATM    5  C9  UNL     1     -11.141  15.710  41.648  1.00  0.00     0.078 C 
HETATM    6  C22 UNL     1     -10.244  16.641  40.867  1.00  0.00     0.015 C 
HETATM    7  C23 UNL     1      -9.204  15.827  40.127  1.00  0.00     0.011 C 
ENDROOT
BRANCH   1   8
HETATM    8  C4  UNL     1      -9.146  13.857  38.579  1.00  0.00     0.132 C 
BRANCH   8   9
HETATM    9  N2  UNL     1      -7.729  14.000  38.575  1.00  0.00    -0.356 N 
ATOM     10  H2  UNL     1      -7.214  14.001  39.455  1.00  0.00     0.163 HD
BRANCH   9  11
HETATM   11  C3  UNL     1      -7.037  14.140  37.348  1.00  0.00     0.218 C 
HETATM   12  N1  UNL     1      -6.014  14.946  37.216  1.00  0.00    -0.365 N 
ATOM     13  H12 UNL     1      -5.515  15.047  36.332  1.00  0.00     0.159 HD
ATOM     14  H11 UNL     1      -5.756  15.461  38.058  1.00  0.00     0.159 HD
BRANCH  11  15
HETATM   15  O1  UNL     1      -7.389  13.438  36.200  1.00  0.00    -0.276 OA
BRANCH  15  16
HETATM   16  C2  UNL     1      -6.619  12.356  35.738  1.00  0.00     0.153 C 
HETATM   17  C1  UNL     1      -5.785  11.791  36.583  1.00  0.00     0.056 C 
BRANCH  16  18
HETATM   18  C24 UNL     1      -6.723  11.856  34.361  1.00  0.00     0.438 C 
HETATM   19  F1  UNL     1      -8.051  11.764  33.996  1.00  0.00    -0.164 F 
HETATM   20  F2  UNL     1      -6.126  12.761  33.501  1.00  0.00    -0.164 F 
HETATM   21  F3  UNL     1      -6.129  10.615  34.237  1.00  0.00    -0.164 F 
ENDBRANCH  16  18
ENDBRANCH  15  16
ENDBRANCH  11  15
ENDBRANCH   9  11
ENDBRANCH   8   9
ENDBRANCH   1   8
BRANCH   5  22
HETATM   22  C10 UNL     1     -12.509  16.215  41.783  1.00  0.00     0.222 C 
HETATM   23  O2  UNL     1     -12.804  17.415  41.461  1.00  0.00    -0.273 OA
HETATM   24  N3  UNL     1     -13.596  15.423  42.274  1.00  0.00    -0.356 N 
ATOM     25  H3  UNL     1     -13.411  14.458  42.546  1.00  0.00     0.162 HD
BRANCH  24  26
HETATM   26  C11 UNL     1     -14.936  15.926  42.404  1.00  0.00     0.084 C 
HETATM   27  C12 UNL     1     -15.647  15.306  43.606  1.00  0.00     0.032 C 
BRANCH  26  28
HETATM   28  C13 UNL     1     -15.756  15.798  41.153  1.00  0.00     0.063 C 
BRANCH  28  29
HETATM   29  C14 UNL     1     -16.080  14.414  40.796  1.00  0.00    -0.055 A 
HETATM   30  C15 UNL     1     -15.073  13.595  40.319  1.00  0.00     0.013 A 
HETATM   31  C16 UNL     1     -15.309  12.278  39.963  1.00  0.00    -0.061 A 
HETATM   32  C17 UNL     1     -14.234  11.385  39.448  1.00  0.00     0.048 C 
HETATM   33  C18 UNL     1     -16.579  11.753  40.081  1.00  0.00     0.013 A 
HETATM   34  C19 UNL     1     -17.600  12.540  40.550  1.00  0.00    -0.061 A 
HETATM   35  C20 UNL     1     -18.957  11.985  40.678  1.00  0.00     0.048 C 
HETATM   36  C21 UNL     1     -17.335  13.852  40.899  1.00  0.00     0.013 A 
ENDBRANCH  28  29
ENDBRANCH  26  28
ENDBRANCH  24  26
ENDBRANCH   5  22
TORSDOF 10
ENDMDL
MODEL 3
REMARK VINA RESULT: -9.309557100      2.424      3.462
REMARK  10 active torsions:
REMARK  status: ('A' for Active; 'I' for Inactive)
REMARK    1  A    between atoms: C2_2  and  O1_3 
REMARK    2  A    between atoms: C2_2  and  C24_33 
REMARK    3  A    between atoms: O1_3  and  C3_4 
REMARK    4  A    between atoms: C3_4  and  N2_8 
REMARK    5  A    between atoms: N2_8  and  C4_10 
REMARK    6  A    between atoms: C4_10  and  C5_11 
REMARK    7  A    between atoms: C9_15  and  C10_16 
REMARK       I    between atoms: C10_16  and  N3_18 
REMARK    8  A    between atoms: N3_18  and  C11_20 
REMARK    9  A    between atoms: C11_20  and  C13_22 
REMARK   10  A    between atoms: C13_22  and  C14_23 
ROOT
HETATM    1  C5  UNL     1     -11.491  16.374  40.222  1.00  0.00    -0.028 C 
HETATM    2  C6  UNL     1     -11.671  16.868  38.812  1.00  0.00     0.016 C 
HETATM    3  C7  UNL     1     -12.342  15.121  40.364  1.00  0.00     0.011 C 
HETATM    4  C8  UNL     1     -12.777  15.035  41.806  1.00  0.00     0.015 C 
HETATM    5  C9  UNL     1     -13.885  16.044  42.003  1.00  0.00     0.078 C 
HETATM    6  C22 UNL     1     -13.511  17.297  41.245  1.00  0.00     0.015 C 
HETATM    7  C23 UNL     1     -12.003  17.406  41.178  1.00  0.00     0.011 C 
ENDROOT
BRANCH   1   8
HETATM    8  C4  UNL     1     -10.065  15.966  40.507  1.00  0.00     0.132 C 
BRANCH   8   9
HETATM    9  N2  UNL     1      -9.703  14.725  39.909  1.00  0.00    -0.356 N 
ATOM     10  H2  UNL     1     -10.180  13.867  40.184  1.00  0.00     0.163 HD
BRANCH   9  11
HETATM   11  C3  UNL     1      -8.681  14.686  38.931  1.00  0.00     0.218 C 
HETATM   12  N1  UNL     1      -7.435  14.972  39.216  1.00  0.00    -0.365 N 
ATOM     13  H12 UNL     1      -6.698  14.943  38.512  1.00  0.00     0.159 HD
ATOM     14  H11 UNL     1      -7.261  15.224  40.189  1.00  0.00     0.159 HD
BRANCH  11  15
HETATM   15  O1  UNL     1      -8.919  14.341  37.604  1.00  0.00    -0.276 OA
BRANCH  15  16
HETATM   16  C2  UNL     1      -8.300  15.029  36.546  1.00  0.00     0.153 C 
HETATM   17  C1  UNL     1      -7.347  14.411  35.885  1.00  0.00     0.056 C 
BRANCH  16  18
HETATM   18  C24 UNL     1      -8.686  16.397  36.173  1.00  0.00     0.438 C 
HETATM   19  F1  UNL     1      -7.929  16.821  35.100  1.00  0.00    -0.164 F 
HETATM   20  F2  UNL     1     -10.009  16.401  35.766  1.00  0.00    -0.164 F 
HETATM   21  F3  UNL     1      -8.508  17.268  37.230  1.00  0.00    -0.164 F 
ENDBRANCH  16  18
ENDBRANCH  15  16
ENDBRANCH  11  15
ENDBRANCH   9  11
ENDBRANCH   8   9
ENDBRANCH   1   8
BRANCH   5  22
HETATM   22  C10 UNL     1     -15.145  15.454  41.544  1.00  0.00     0.222 C 
HETATM   23  O2  UNL     1     -15.822  15.994  40.606  1.00  0.00    -0.273 OA
HETATM   24  N3  UNL     1     -15.701  14.257  42.097  1.00  0.00    -0.356 N 
ATOM     25  H3  UNL     1     -15.197  13.789  42.850  1.00  0.00     0.162 HD
BRANCH  24  26
HETATM   26  C11 UNL     1     -16.938  13.684  41.642  1.00  0.00     0.084 C 
HETATM   27  C12 UNL     1     -18.055  13.893  42.663  1.00  0.00     0.032 C 
BRANCH  26  28
HETATM   28  C13 UNL     1     -16.827  12.244  41.234  1.00  0.00     0.063 C 
BRANCH  28  29
HETATM   29  C14 UNL     1     -15.858  12.005  40.161  1.00  0.00    -0.055 A 
HETATM   30  C15 UNL     1     -16.324  11.793  38.876  1.00  0.00     0.013 A 
HETATM   31  C16 UNL     1     -15.464  11.561  37.816  1.00  0.00    -0.061 A 
HETATM   32  C17 UNL     1     -15.952  11.330  36.429  1.00  0.00     0.048 C 
HETATM   33  C18 UNL     1     -14.102  11.538  38.030  1.00  0.00     0.013 A 
HETATM   34  C19 UNL     1     -13.608  11.745  39.293  1.00  0.00    -0.061 A 
HETATM   35  C20 UNL     1     -12.155  11.722  39.528  1.00  0.00     0.048 C 
HETATM   36  C21 UNL     1     -14.490  11.975  40.333  1.00  0.00     0.013 A 
ENDBRANCH  28  29
ENDBRANCH  26  28
ENDBRANCH  24  26
ENDBRANCH   5  22
TORSDOF 10
ENDMDL
MODEL 4
REMARK VINA RESULT: -9.305501144      2.741      3.917
REMARK  10 active torsions:
REMARK  status: ('A' for Active; 'I' for Inactive)
REMARK    1  A    between atoms: C2_2  and  O1_3 
REMARK    2  A    between atoms: C2_2  and  C24_33 
REMARK    3  A    between atoms: O1_3  and  C3_4 
REMARK    4  A    between atoms: C3_4  and  N2_8 
REMARK    5  A    between atoms: N2_8  and  C4_10 
REMARK    6  A    between atoms: C4_10  and  C5_11 
REMARK    7  A    between atoms: C9_15  and  C10_16 
REMARK       I    between atoms: C10_16  and  N3_18 
REMARK    8  A    between atoms: N3_18  and  C11_20 
REMARK    9  A    between atoms: C11_20  and  C13_22 
REMARK   10  A    between atoms: C13_22  and  C14_23 
ROOT
HETATM    1  C5  UNL     1     -10.393  16.261  39.980  1.00  0.00    -0.028 C 
HETATM    2  C6  UNL     1     -11.693  16.785  40.526  1.00  0.00     0.016 C 
HETATM    3  C7  UNL     1     -10.742  15.275  38.875  1.00  0.00     0.011 C 
HETATM    4  C8  UNL     1      -9.641  14.245  38.827  1.00  0.00     0.015 C 
HETATM    5  C9  UNL     1      -9.851  13.308  39.995  1.00  0.00     0.078 C 
HETATM    6  C22 UNL     1     -10.260  14.139  41.189  1.00  0.00     0.015 C 
HETATM    7  C23 UNL     1      -9.662  15.524  41.059  1.00  0.00     0.011 C 
ENDROOT
BRANCH   1   8
HETATM    8  C4  UNL     1      -9.560  17.349  39.345  1.00  0.00     0.132 C 
BRANCH   8   9
HETATM    9  N2  UNL     1      -8.257  17.464  39.907  1.00  0.00    -0.356 N 
ATOM     10  H2  UNL     1      -8.104  17.240  40.890  1.00  0.00     0.163 HD
BRANCH   9  11
HETATM   11  C3  UNL     1      -7.176  17.890  39.100  1.00  0.00     0.218 C 
HETATM   12  N1  UNL     1      -6.110  18.455  39.609  1.00  0.00    -0.365 N 
ATOM     13  H12 UNL     1      -5.330  18.762  39.027  1.00  0.00     0.159 HD
ATOM     14  H11 UNL     1      -6.119  18.564  40.623  1.00  0.00     0.159 HD
BRANCH  11  15
HETATM   15  O1  UNL     1      -7.163  17.741  37.717  1.00  0.00    -0.276 OA
BRANCH  15  16
HETATM   16  C2  UNL     1      -7.036  16.476  37.117  1.00  0.00     0.153 C 
HETATM   17  C1  UNL     1      -6.200  15.620  37.661  1.00  0.00     0.056 C 
BRANCH  16  18
HETATM   18  C24 UNL     1      -7.801  16.100  35.921  1.00  0.00     0.438 C 
HETATM   19  F1  UNL     1      -7.566  17.009  34.910  1.00  0.00    -0.164 F 
HETATM   20  F2  UNL     1      -7.363  14.866  35.470  1.00  0.00    -0.164 F 
HETATM   21  F3  UNL     1      -9.155  16.057  36.191  1.00  0.00    -0.164 F 
ENDBRANCH  16  18
ENDBRANCH  15  16
ENDBRANCH  11  15
ENDBRANCH   9  11
ENDBRANCH   8   9
ENDBRANCH   1   8
BRANCH   5  22
HETATM   22  C10 UNL     1     -10.857  12.311  39.622  1.00  0.00     0.222 C 
HETATM   23  O2  UNL     1     -10.518  11.129  39.281  1.00  0.00    -0.273 OA
HETATM   24  N3  UNL     1     -12.264  12.577  39.611  1.00  0.00    -0.356 N 
ATOM     25  H3  UNL     1     -12.585  13.508  39.876  1.00  0.00     0.162 HD
BRANCH  24  26
HETATM   26  C11 UNL     1     -13.245  11.593  39.245  1.00  0.00     0.084 C 
HETATM   27  C12 UNL     1     -13.960  11.980  37.952  1.00  0.00     0.032 C 
BRANCH  26  28
HETATM   28  C13 UNL     1     -14.220  11.271  40.339  1.00  0.00     0.063 C 
BRANCH  28  29
HETATM   29  C14 UNL     1     -15.264  12.284  40.519  1.00  0.00    -0.055 A 
HETATM   30  C15 UNL     1     -16.590  11.893  40.469  1.00  0.00     0.013 A 
HETATM   31  C16 UNL     1     -17.625  12.798  40.630  1.00  0.00    -0.061 A 
HETATM   32  C17 UNL     1     -19.056  12.391  40.579  1.00  0.00     0.048 C 
HETATM   33  C18 UNL     1     -17.344  14.130  40.848  1.00  0.00     0.013 A 
HETATM   34  C19 UNL     1     -16.039  14.550  40.901  1.00  0.00    -0.061 A 
HETATM   35  C20 UNL     1     -15.732  15.971  41.134  1.00  0.00     0.048 C 
HETATM   36  C21 UNL     1     -15.024  13.624  40.738  1.00  0.00     0.013 A 
ENDBRANCH  28  29
ENDBRANCH  26  28
ENDBRANCH  24  26
ENDBRANCH   5  22
TORSDOF 10
ENDMDL
MODEL 5
REMARK VINA RESULT: -9.250867389      2.425      3.636
REMARK  10 active torsions:
REMARK  status: ('A' for Active; 'I' for Inactive)
REMARK    1  A    between atoms: C2_2  and  O1_3 
REMARK    2  A    between atoms: C2_2  and  C24_33 
REMARK    3  A    between atoms: O1_3  and  C3_4 
REMARK    4  A    between atoms: C3_4  and  N2_8 
REMARK    5  A    between atoms: N2_8  and  C4_10 
REMARK    6  A    between atoms: C4_10  and  C5_11 
REMARK    7  A    between atoms: C9_15  and  C10_16 
REMARK       I    between atoms: C10_16  and  N3_18 
REMARK    8  A    between atoms: N3_18  and  C11_20 
REMARK    9  A    between atoms: C11_20  and  C13_22 
REMARK   10  A    between atoms: C13_22  and  C14_23 
ROOT
HETATM    1  C5  UNL     1     -11.536  16.426  40.176  1.00  0.00    -0.028 C 
HETATM    2  C6  UNL     1     -11.724  16.911  38.764  1.00  0.00     0.016 C 
HETATM    3  C7  UNL     1     -12.383  15.172  40.330  1.00  0.00     0.011 C 
HETATM    4  C8  UNL     1     -12.810  15.093  41.775  1.00  0.00     0.015 C 
HETATM    5  C9  UNL     1     -13.919  16.101  41.971  1.00  0.00     0.078 C 
HETATM    6  C22 UNL     1     -13.552  17.350  41.205  1.00  0.00     0.015 C 
HETATM    7  C23 UNL     1     -12.044  17.463  41.129  1.00  0.00     0.011 C 
ENDROOT
BRANCH   1   8
HETATM    8  C4  UNL     1     -10.107  16.023  40.455  1.00  0.00     0.132 C 
BRANCH   8   9
HETATM    9  N2  UNL     1      -9.754  14.766  39.887  1.00  0.00    -0.356 N 
ATOM     10  H2  UNL     1     -10.252  13.921  40.167  1.00  0.00     0.163 HD
BRANCH   9  11
HETATM   11  C3  UNL     1      -8.711  14.691  38.933  1.00  0.00     0.218 C 
HETATM   12  N1  UNL     1      -7.466  14.953  39.243  1.00  0.00    -0.365 N 
ATOM     13  H12 UNL     1      -6.715  14.899  38.556  1.00  0.00     0.159 HD
ATOM     14  H11 UNL     1      -7.308  15.213  40.217  1.00  0.00     0.159 HD
BRANCH  11  15
HETATM   15  O1  UNL     1      -8.928  14.335  37.606  1.00  0.00    -0.276 OA
BRANCH  15  16
HETATM   16  C2  UNL     1      -8.303  15.024  36.552  1.00  0.00     0.153 C 
HETATM   17  C1  UNL     1      -7.346  14.407  35.896  1.00  0.00     0.056 C 
BRANCH  16  18
HETATM   18  C24 UNL     1      -8.689  16.391  36.177  1.00  0.00     0.438 C 
HETATM   19  F1  UNL     1      -7.926  16.816  35.108  1.00  0.00    -0.164 F 
HETATM   20  F2  UNL     1     -10.009  16.394  35.762  1.00  0.00    -0.164 F 
HETATM   21  F3  UNL     1      -8.519  17.263  37.234  1.00  0.00    -0.164 F 
ENDBRANCH  16  18
ENDBRANCH  15  16
ENDBRANCH  11  15
ENDBRANCH   9  11
ENDBRANCH   8   9
ENDBRANCH   1   8
BRANCH   5  22
HETATM   22  C10 UNL     1     -15.180  15.506  41.523  1.00  0.00     0.222 C 
HETATM   23  O2  UNL     1     -15.865  16.040  40.587  1.00  0.00    -0.273 OA
HETATM   24  N3  UNL     1     -15.730  14.309  42.085  1.00  0.00    -0.356 N 
ATOM     25  H3  UNL     1     -15.219  13.846  42.837  1.00  0.00     0.162 HD
BRANCH  24  26
HETATM   26  C11 UNL     1     -16.967  13.731  41.639  1.00  0.00     0.084 C 
HETATM   27  C12 UNL     1     -18.087  13.973  42.650  1.00  0.00     0.032 C 
BRANCH  26  28
HETATM   28  C13 UNL     1     -16.862  12.280  41.271  1.00  0.00     0.063 C 
BRANCH  28  29
HETATM   29  C14 UNL     1     -15.958  12.017  40.148  1.00  0.00    -0.055 A 
HETATM   30  C15 UNL     1     -14.595  12.000  40.377  1.00  0.00     0.013 A 
HETATM   31  C16 UNL     1     -13.685  11.760  39.361  1.00  0.00    -0.061 A 
HETATM   32  C17 UNL     1     -12.216  11.739  39.594  1.00  0.00     0.048 C 
HETATM   33  C18 UNL     1     -14.136  11.529  38.078  1.00  0.00     0.013 A 
HETATM   34  C19 UNL     1     -15.483  11.540  37.818  1.00  0.00    -0.061 A 
HETATM   35  C20 UNL     1     -15.970  11.293  36.450  1.00  0.00     0.048 C 
HETATM   36  C21 UNL     1     -16.369  11.782  38.852  1.00  0.00     0.013 A 
ENDBRANCH  28  29
ENDBRANCH  26  28
ENDBRANCH  24  26
ENDBRANCH   5  22
TORSDOF 10
ENDMDL
