MODEL 1
REMARK VINA RESULT: -7.217360431      0.000      0.000
REMARK  7 active torsions:
REMARK  status: ('A' for Active; 'I' for Inactive)
REMARK    1  A    between atoms: C2_2  and  N1_4 
REMARK    2  A    between atoms: N1_4  and  C4_6 
REMARK    3  A    between atoms: C5_7  and  C6_8 
REMARK    4  A    between atoms: C7_14  and  N4_15 
REMARK    5  A    between atoms: C8_18  and  N5_19 
REMARK    6  A    between atoms: N5_19  and  C9_21 
REMARK    7  A    between atoms: C9_21  and  C10_22 
ROOT
HETATM    1  C4  UNL     1      42.490  36.182  53.262  1.00  0.00     0.060 A 
HETATM    2  C5  UNL     1      42.630  36.972  54.380  1.00  0.00     0.068 A 
HETATM    3  C8  UNL     1      43.896  37.399  54.768  1.00  0.00     0.116 A 
HETATM    4  N6  UNL     1      44.965  37.056  54.074  1.00  0.00    -0.341 N 
ATOM      5  H6  UNL     1      45.888  37.374  54.372  1.00  0.00     0.167 HD
HETATM    6  C14 UNL     1      44.846  36.298  52.989  1.00  0.00     0.049 A 
HETATM    7  C15 UNL     1      45.996  36.010  52.301  1.00  0.00     0.030 A 
HETATM    8  C16 UNL     1      45.953  35.247  51.130  1.00  0.00     0.005 A 
HETATM    9  C17 UNL     1      44.758  34.772  50.649  1.00  0.00     0.043 A 
HETATM   10  C18 UNL     1      43.597  35.077  51.367  1.00  0.00     0.131 A 
HETATM   11  F1  UNL     1      42.453  34.660  50.826  1.00  0.00    -0.205 F 
HETATM   12  C19 UNL     1      43.620  35.817  52.517  1.00  0.00     0.057 A 
ENDROOT
BRANCH   2  13
HETATM   13  C6  UNL     1      41.484  37.431  55.174  1.00  0.00     0.118 A 
HETATM   14  N2  UNL     1      40.785  36.820  56.143  1.00  0.00    -0.237 N 
HETATM   15  O1  UNL     1      39.843  37.590  56.598  1.00  0.00    -0.155 OA
ATOM     16  H2  UNL     1      40.970  35.875  56.479  1.00  0.00     0.197 HD
HETATM   17  N3  UNL     1      39.877  38.722  55.962  1.00  0.00    -0.224 N 
HETATM   18  C7  UNL     1      40.875  38.687  55.063  1.00  0.00     0.151 A 
ATOM     19  H3  UNL     1      39.248  39.509  56.120  1.00  0.00     0.198 HD
BRANCH  18  20
HETATM   20  N4  UNL     1      41.184  39.647  54.273  1.00  0.00    -0.382 N 
ATOM     21  H42 UNL     1      41.534  39.532  53.322  1.00  0.00     0.157 HD
ATOM     22  H41 UNL     1      41.131  40.649  54.452  1.00  0.00     0.157 HD
ENDBRANCH  18  20
ENDBRANCH   2  13
BRANCH   1  23
HETATM   23  N1  UNL     1      41.242  35.670  52.831  1.00  0.00    -0.384 N 
ATOM     24  H1  UNL     1      41.017  34.730  53.155  1.00  0.00     0.160 HD
BRANCH  23  25
HETATM   25  C2  UNL     1      40.256  36.286  52.008  1.00  0.00     0.073 C 
HETATM   26  C1  UNL     1      40.840  37.607  51.439  1.00  0.00     0.031 C 
HETATM   27  C3  UNL     1      38.985  36.732  52.695  1.00  0.00     0.031 C 
ENDBRANCH  23  25
ENDBRANCH   1  23
BRANCH   3  28
HETATM   28  N5  UNL     1      43.998  38.130  55.808  1.00  0.00    -0.375 N 
ATOM     29  H5  UNL     1      43.692  37.769  56.712  1.00  0.00     0.161 HD
BRANCH  28  30
HETATM   30  C9  UNL     1      44.540  39.450  55.718  1.00  0.00     0.129 C 
BRANCH  30  31
HETATM   31  C10 UNL     1      45.867  39.582  56.425  1.00  0.00    -0.035 C 
HETATM   32  C11 UNL     1      46.006  38.665  57.599  1.00  0.00     0.016 C 
HETATM   33  C12 UNL     1      45.945  41.019  56.954  1.00  0.00     0.016 C 
HETATM   34  C13 UNL     1      46.993  39.439  55.424  1.00  0.00     0.016 C 
ENDBRANCH  30  31
ENDBRANCH  28  30
ENDBRANCH   3  28
TORSDOF 7
ENDMDL
MODEL 2
REMARK VINA RESULT: -7.103407482      1.021      1.570
REMARK  7 active torsions:
REMARK  status: ('A' for Active; 'I' for Inactive)
REMARK    1  A    between atoms: C2_2  and  N1_4 
REMARK    2  A    between atoms: N1_4  and  C4_6 
REMARK    3  A    between atoms: C5_7  and  C6_8 
REMARK    4  A    between atoms: C7_14  and  N4_15 
REMARK    5  A    between atoms: C8_18  and  N5_19 
REMARK    6  A    between atoms: N5_19  and  C9_21 
REMARK    7  A    between atoms: C9_21  and  C10_22 
ROOT
HETATM    1  C4  UNL     1      42.760  36.675  53.148  1.00  0.00     0.060 A 
HETATM    2  C5  UNL     1      42.928  37.497  54.239  1.00  0.00     0.068 A 
HETATM    3  C8  UNL     1      44.193  37.991  54.542  1.00  0.00     0.116 A 
HETATM    4  N6  UNL     1      45.234  37.681  53.793  1.00  0.00    -0.341 N 
ATOM      5  H6  UNL     1      46.157  38.048  54.029  1.00  0.00     0.167 HD
HETATM    6  C14 UNL     1      45.088  36.893  52.733  1.00  0.00     0.049 A 
HETATM    7  C15 UNL     1      46.208  36.643  51.984  1.00  0.00     0.030 A 
HETATM    8  C16 UNL     1      46.132  35.851  50.834  1.00  0.00     0.005 A 
HETATM    9  C17 UNL     1      44.935  35.311  50.434  1.00  0.00     0.043 A 
HETATM   10  C18 UNL     1      43.805  35.579  51.213  1.00  0.00     0.131 A 
HETATM   11  F1  UNL     1      42.652  35.098  50.750  1.00  0.00    -0.205 F 
HETATM   12  C19 UNL     1      43.860  36.346  52.344  1.00  0.00     0.057 A 
ENDROOT
BRANCH   2  13
HETATM   13  C6  UNL     1      41.810  37.922  55.090  1.00  0.00     0.118 A 
HETATM   14  N2  UNL     1      41.327  37.403  56.230  1.00  0.00    -0.237 N 
HETATM   15  O1  UNL     1      40.322  38.098  56.672  1.00  0.00    -0.155 OA
ATOM     16  H2  UNL     1      41.700  36.572  56.689  1.00  0.00     0.197 HD
HETATM   17  N3  UNL     1      40.101  39.086  55.861  1.00  0.00    -0.224 N 
HETATM   18  C7  UNL     1      40.992  39.034  54.855  1.00  0.00     0.151 A 
ATOM     19  H3  UNL     1      39.369  39.789  55.968  1.00  0.00     0.198 HD
BRANCH  18  20
HETATM   20  N4  UNL     1      41.054  39.867  53.886  1.00  0.00    -0.382 N 
ATOM     21  H42 UNL     1      41.849  39.974  53.256  1.00  0.00     0.157 HD
ATOM     22  H41 UNL     1      40.345  40.536  53.586  1.00  0.00     0.157 HD
ENDBRANCH  18  20
ENDBRANCH   2  13
BRANCH   1  23
HETATM   23  N1  UNL     1      41.514  36.098  52.802  1.00  0.00    -0.384 N 
ATOM     24  H1  UNL     1      40.969  36.612  52.111  1.00  0.00     0.160 HD
BRANCH  23  25
HETATM   25  C2  UNL     1      40.916  34.898  53.284  1.00  0.00     0.073 C 
HETATM   26  C1  UNL     1      39.560  35.254  53.951  1.00  0.00     0.031 C 
HETATM   27  C3  UNL     1      41.661  34.164  54.376  1.00  0.00     0.031 C 
ENDBRANCH  23  25
ENDBRANCH   1  23
BRANCH   3  28
HETATM   28  N5  UNL     1      44.321  38.749  55.560  1.00  0.00    -0.375 N 
ATOM     29  H5  UNL     1      43.861  39.659  55.575  1.00  0.00     0.161 HD
BRANCH  28  30
HETATM   30  C9  UNL     1      45.107  38.334  56.680  1.00  0.00     0.129 C 
BRANCH  30  31
HETATM   31  C10 UNL     1      46.155  39.350  57.062  1.00  0.00    -0.035 C 
HETATM   32  C11 UNL     1      45.794  40.748  56.673  1.00  0.00     0.016 C 
HETATM   33  C12 UNL     1      47.431  38.977  56.297  1.00  0.00     0.016 C 
HETATM   34  C13 UNL     1      46.488  39.210  58.531  1.00  0.00     0.016 C 
ENDBRANCH  30  31
ENDBRANCH  28  30
ENDBRANCH   3  28
TORSDOF 7
ENDMDL
MODEL 3
REMARK VINA RESULT: -7.053626498      3.406      6.519
REMARK  7 active torsions:
REMARK  status: ('A' for Active; 'I' for Inactive)
REMARK    1  A    between atoms: C2_2  and  N1_4 
REMARK    2  A    between atoms: N1_4  and  C4_6 
REMARK    3  A    between atoms: C5_7  and  C6_8 
REMARK    4  A    between atoms: C7_14  and  N4_15 
REMARK    5  A    between atoms: C8_18  and  N5_19 
REMARK    6  A    between atoms: N5_19  and  C9_21 
REMARK    7  A    between atoms: C9_21  and  C10_22 
ROOT
HETATM    1  C4  UNL     1      45.252  40.479  55.661  1.00  0.00     0.060 A 
HETATM    2  C5  UNL     1      44.805  39.387  54.953  1.00  0.00     0.068 A 
HETATM    3  C8  UNL     1      44.961  38.110  55.484  1.00  0.00     0.116 A 
HETATM    4  N6  UNL     1      45.533  37.935  56.660  1.00  0.00    -0.341 N 
ATOM      5  H6  UNL     1      45.644  36.992  57.035  1.00  0.00     0.167 HD
HETATM    6  C14 UNL     1      45.967  38.979  57.358  1.00  0.00     0.049 A 
HETATM    7  C15 UNL     1      46.520  38.722  58.586  1.00  0.00     0.030 A 
HETATM    8  C16 UNL     1      46.969  39.769  59.397  1.00  0.00     0.005 A 
HETATM    9  C17 UNL     1      46.863  41.072  58.979  1.00  0.00     0.043 A 
HETATM   10  C18 UNL     1      46.297  41.312  57.724  1.00  0.00     0.131 A 
HETATM   11  F1  UNL     1      46.146  42.592  57.389  1.00  0.00    -0.205 F 
HETATM   12  C19 UNL     1      45.856  40.301  56.913  1.00  0.00     0.057 A 
ENDROOT
BRANCH   2  13
HETATM   13  C6  UNL     1      44.117  39.507  53.662  1.00  0.00     0.118 A 
HETATM   14  N2  UNL     1      42.816  39.666  53.371  1.00  0.00    -0.237 N 
HETATM   15  O1  UNL     1      42.629  39.740  52.088  1.00  0.00    -0.155 OA
ATOM     16  H2  UNL     1      42.072  39.720  54.067  1.00  0.00     0.197 HD
HETATM   17  N3  UNL     1      43.774  39.636  51.486  1.00  0.00    -0.224 N 
HETATM   18  C7  UNL     1      44.741  39.490  52.408  1.00  0.00     0.151 A 
ATOM     19  H3  UNL     1      43.917  39.662  50.477  1.00  0.00     0.198 HD
BRANCH  18  20
HETATM   20  N4  UNL     1      45.989  39.366  52.151  1.00  0.00    -0.382 N 
ATOM     21  H42 UNL     1      46.740  39.823  52.667  1.00  0.00     0.157 HD
ATOM     22  H41 UNL     1      46.426  38.808  51.417  1.00  0.00     0.157 HD
ENDBRANCH  18  20
ENDBRANCH   2  13
BRANCH   1  23
HETATM   23  N1  UNL     1      45.170  41.804  55.168  1.00  0.00    -0.384 N 
ATOM     24  H1  UNL     1      46.060  42.237  54.923  1.00  0.00     0.160 HD
BRANCH  23  25
HETATM   25  C2  UNL     1      44.018  42.616  54.965  1.00  0.00     0.073 C 
HETATM   26  C1  UNL     1      43.960  43.028  53.469  1.00  0.00     0.031 C 
HETATM   27  C3  UNL     1      43.988  43.940  55.694  1.00  0.00     0.031 C 
ENDBRANCH  23  25
ENDBRANCH   1  23
BRANCH   3  28
HETATM   28  N5  UNL     1      44.538  37.115  54.807  1.00  0.00    -0.375 N 
ATOM     29  H5  UNL     1      44.788  37.029  53.823  1.00  0.00     0.161 HD
BRANCH  28  30
HETATM   30  C9  UNL     1      43.716  36.118  55.420  1.00  0.00     0.129 C 
BRANCH  30  31
HETATM   31  C10 UNL     1      42.283  36.180  54.951  1.00  0.00    -0.035 C 
HETATM   32  C11 UNL     1      41.487  37.255  55.620  1.00  0.00     0.016 C 
HETATM   33  C12 UNL     1      41.640  34.837  55.318  1.00  0.00     0.016 C 
HETATM   34  C13 UNL     1      42.245  36.267  53.440  1.00  0.00     0.016 C 
ENDBRANCH  30  31
ENDBRANCH  28  30
ENDBRANCH   3  28
TORSDOF 7
ENDMDL
MODEL 4
REMARK VINA RESULT: -7.052711521      2.354      4.690
REMARK  7 active torsions:
REMARK  status: ('A' for Active; 'I' for Inactive)
REMARK    1  A    between atoms: C2_2  and  N1_4 
REMARK    2  A    between atoms: N1_4  and  C4_6 
REMARK    3  A    between atoms: C5_7  and  C6_8 
REMARK    4  A    between atoms: C7_14  and  N4_15 
REMARK    5  A    between atoms: C8_18  and  N5_19 
REMARK    6  A    between atoms: N5_19  and  C9_21 
REMARK    7  A    between atoms: C9_21  and  C10_22 
ROOT
HETATM    1  C4  UNL     1      42.665  36.377  53.116  1.00  0.00     0.060 A 
HETATM    2  C5  UNL     1      43.900  36.587  53.686  1.00  0.00     0.068 A 
HETATM    3  C8  UNL     1      43.986  37.091  54.980  1.00  0.00     0.116 A 
HETATM    4  N6  UNL     1      42.894  37.370  55.668  1.00  0.00    -0.341 N 
ATOM      5  H6  UNL     1      42.972  37.742  56.615  1.00  0.00     0.167 HD
HETATM    6  C14 UNL     1      41.695  37.169  55.134  1.00  0.00     0.049 A 
HETATM    7  C15 UNL     1      40.608  37.450  55.920  1.00  0.00     0.030 A 
HETATM    8  C16 UNL     1      39.310  37.233  55.444  1.00  0.00     0.005 A 
HETATM    9  C17 UNL     1      39.103  36.735  54.182  1.00  0.00     0.043 A 
HETATM   10  C18 UNL     1      40.225  36.456  53.397  1.00  0.00     0.131 A 
HETATM   11  F1  UNL     1      39.981  35.906  52.208  1.00  0.00    -0.205 F 
HETATM   12  C19 UNL     1      41.502  36.666  53.842  1.00  0.00     0.057 A 
ENDROOT
BRANCH   2  13
HETATM   13  C6  UNL     1      45.156  36.256  53.000  1.00  0.00     0.118 A 
HETATM   14  N2  UNL     1      46.069  37.045  52.413  1.00  0.00    -0.237 N 
HETATM   15  O1  UNL     1      47.050  36.344  51.928  1.00  0.00    -0.155 OA
ATOM     16  H2  UNL     1      46.001  38.061  52.354  1.00  0.00     0.197 HD
HETATM   17  N3  UNL     1      46.832  35.087  52.169  1.00  0.00    -0.224 N 
HETATM   18  C7  UNL     1      45.670  34.965  52.834  1.00  0.00     0.151 A 
ATOM     19  H3  UNL     1      47.444  34.318  51.898  1.00  0.00     0.198 HD
BRANCH  18  20
HETATM   20  N4  UNL     1      45.165  33.857  53.229  1.00  0.00    -0.382 N 
ATOM     21  H42 UNL     1      44.994  33.607  54.204  1.00  0.00     0.157 HD
ATOM     22  H41 UNL     1      44.855  33.069  52.661  1.00  0.00     0.157 HD
ENDBRANCH  18  20
ENDBRANCH   2  13
BRANCH   1  23
HETATM   23  N1  UNL     1      42.497  35.910  51.790  1.00  0.00    -0.384 N 
ATOM     24  H1  UNL     1      42.240  34.927  51.700  1.00  0.00     0.160 HD
BRANCH  23  25
HETATM   25  C2  UNL     1      42.637  36.621  50.564  1.00  0.00     0.073 C 
HETATM   26  C1  UNL     1      43.889  36.083  49.819  1.00  0.00     0.031 C 
HETATM   27  C3  UNL     1      42.903  38.105  50.670  1.00  0.00     0.031 C 
ENDBRANCH  23  25
ENDBRANCH   1  23
BRANCH   3  28
HETATM   28  N5  UNL     1      45.142  37.276  55.485  1.00  0.00    -0.375 N 
ATOM     29  H5  UNL     1      45.956  36.830  55.063  1.00  0.00     0.161 HD
BRANCH  28  30
HETATM   30  C9  UNL     1      45.307  38.107  56.637  1.00  0.00     0.129 C 
BRANCH  30  31
HETATM   31  C10 UNL     1      46.353  39.176  56.436  1.00  0.00    -0.035 C 
HETATM   32  C11 UNL     1      46.989  39.136  55.083  1.00  0.00     0.016 C 
HETATM   33  C12 UNL     1      47.457  38.913  57.468  1.00  0.00     0.016 C 
HETATM   34  C13 UNL     1      45.770  40.530  56.778  1.00  0.00     0.016 C 
ENDBRANCH  30  31
ENDBRANCH  28  30
ENDBRANCH   3  28
TORSDOF 7
ENDMDL
MODEL 5
REMARK VINA RESULT: -6.901706538      2.777      5.454
REMARK  7 active torsions:
REMARK  status: ('A' for Active; 'I' for Inactive)
REMARK    1  A    between atoms: C2_2  and  N1_4 
REMARK    2  A    between atoms: N1_4  and  C4_6 
REMARK    3  A    between atoms: C5_7  and  C6_8 
REMARK    4  A    between atoms: C7_14  and  N4_15 
REMARK    5  A    between atoms: C8_18  and  N5_19 
REMARK    6  A    between atoms: N5_19  and  C9_21 
REMARK    7  A    between atoms: C9_21  and  C10_22 
ROOT
HETATM    1  C4  UNL     1      42.564  38.241  54.946  1.00  0.00     0.060 A 
HETATM    2  C5  UNL     1      41.573  38.873  54.229  1.00  0.00     0.068 A 
HETATM    3  C8  UNL     1      41.685  40.232  53.949  1.00  0.00     0.116 A 
HETATM    4  N6  UNL     1      42.732  40.921  54.363  1.00  0.00    -0.341 N 
ATOM      5  H6  UNL     1      42.799  41.917  54.153  1.00  0.00     0.167 HD
HETATM    6  C14 UNL     1      43.699  40.325  55.052  1.00  0.00     0.049 A 
HETATM    7  C15 UNL     1      44.770  41.097  55.419  1.00  0.00     0.030 A 
HETATM    8  C16 UNL     1      45.845  40.537  56.116  1.00  0.00     0.005 A 
HETATM    9  C17 UNL     1      45.847  39.204  56.445  1.00  0.00     0.043 A 
HETATM   10  C18 UNL     1      44.744  38.435  56.062  1.00  0.00     0.131 A 
HETATM   11  F1  UNL     1      44.820  37.133  56.336  1.00  0.00    -0.205 F 
HETATM   12  C19 UNL     1      43.681  38.965  55.384  1.00  0.00     0.057 A 
ENDROOT
BRANCH   2  13
HETATM   13  C6  UNL     1      40.404  38.163  53.697  1.00  0.00     0.118 A 
HETATM   14  N2  UNL     1      39.246  37.817  54.280  1.00  0.00    -0.237 N 
HETATM   15  O1  UNL     1      38.466  37.201  53.444  1.00  0.00    -0.155 OA
ATOM     16  H2  UNL     1      39.010  38.011  55.253  1.00  0.00     0.197 HD
HETATM   17  N3  UNL     1      39.062  37.115  52.294  1.00  0.00    -0.224 N 
HETATM   18  C7  UNL     1      40.271  37.694  52.384  1.00  0.00     0.151 A 
ATOM     19  H3  UNL     1      38.675  36.678  51.457  1.00  0.00     0.198 HD
BRANCH  18  20
HETATM   20  N4  UNL     1      41.114  37.787  51.424  1.00  0.00    -0.382 N 
ATOM     21  H42 UNL     1      41.989  38.310  51.463  1.00  0.00     0.157 HD
ATOM     22  H41 UNL     1      41.058  37.367  50.497  1.00  0.00     0.157 HD
ENDBRANCH  18  20
ENDBRANCH   2  13
BRANCH   1  23
HETATM   23  N1  UNL     1      42.499  36.874  55.309  1.00  0.00    -0.384 N 
ATOM     24  H1  UNL     1      42.420  36.689  56.308  1.00  0.00     0.160 HD
BRANCH  23  25
HETATM   25  C2  UNL     1      42.529  35.721  54.473  1.00  0.00     0.073 C 
HETATM   26  C1  UNL     1      41.330  34.808  54.845  1.00  0.00     0.031 C 
HETATM   27  C3  UNL     1      43.725  34.809  54.624  1.00  0.00     0.031 C 
ENDBRANCH  23  25
ENDBRANCH   1  23
BRANCH   3  28
HETATM   28  N5  UNL     1      40.753  40.794  53.284  1.00  0.00    -0.375 N 
ATOM     29  H5  UNL     1      39.789  40.485  53.404  1.00  0.00     0.161 HD
BRANCH  28  30
HETATM   30  C9  UNL     1      41.050  41.855  52.373  1.00  0.00     0.129 C 
BRANCH  30  31
HETATM   31  C10 UNL     1      40.356  41.688  51.043  1.00  0.00    -0.035 C 
HETATM   32  C11 UNL     1      41.217  41.047  50.002  1.00  0.00     0.016 C 
HETATM   33  C12 UNL     1      40.009  43.097  50.546  1.00  0.00     0.016 C 
HETATM   34  C13 UNL     1      39.037  40.974  51.244  1.00  0.00     0.016 C 
ENDBRANCH  30  31
ENDBRANCH  28  30
ENDBRANCH   3  28
TORSDOF 7
ENDMDL
