MODEL 1
REMARK VINA RESULT: -8.543984686      0.000      0.000
REMARK  1 active torsions:
REMARK  status: ('A' for Active; 'I' for Inactive)
REMARK    1  A    between atoms: C1_2  and  C2_5 
ROOT
HETATM    1  C2  UNL     1     -12.507   5.639   2.881  1.00  0.00     0.136 C 
HETATM    2  C3  UNL     1     -11.710   5.567   4.127  1.00  0.00     0.236 C 
HETATM    3  C4  UNL     1     -11.857   6.655   5.130  1.00  0.00     0.038 C 
HETATM    4  C5  UNL     1     -10.662   6.520   6.098  1.00  0.00     0.020 C 
HETATM    5  C6  UNL     1     -10.943   5.259   6.889  1.00  0.00     0.086 C 
HETATM    6 BR1  UNL     1      -9.579   4.897   8.187  1.00  0.00    -0.089 Br
HETATM    7  C7  UNL     1     -11.027   4.108   5.912  1.00  0.00     0.288 C 
HETATM    8  N1  UNL     1     -12.014   4.330   4.885  1.00  0.00     0.095 N 
HETATM    9  C8  UNL     1     -12.078   3.168   4.066  1.00  0.00     0.273 C 
HETATM   10  C9  UNL     1     -11.077   3.106   2.951  1.00  0.00     0.031 C 
HETATM   11  C10 UNL     1     -11.581   3.730   1.680  1.00  0.00     0.013 C 
HETATM   12  C11 UNL     1     -11.622   5.242   1.735  1.00  0.00    -0.016 C 
HETATM   13  C12 UNL     1     -10.202   5.794   1.833  1.00  0.00     0.044 C 
HETATM   14  C13 UNL     1     -10.222   5.977   0.356  1.00  0.00     0.196 C 
HETATM   15  N2  UNL     1      -9.565   5.017  -0.465  1.00  0.00    -0.062 N 
ATOM     16  H21 UNL     1      -9.585   4.079  -0.065  1.00  0.00     0.278 HD
ATOM     17  H22 UNL     1      -8.553   5.140  -0.480  1.00  0.00     0.278 HD
HETATM   18  C14 UNL     1     -10.151   5.071  -1.782  1.00  0.00     0.215 C 
HETATM   19  C15 UNL     1      -9.474   4.158  -2.779  1.00  0.00     0.038 C 
HETATM   20  C16 UNL     1     -10.562   3.530  -3.589  1.00  0.00     0.007 C 
HETATM   21  C17 UNL     1     -11.807   3.542  -2.768  1.00  0.00     0.036 C 
HETATM   22  C18 UNL     1     -11.523   4.474  -1.657  1.00  0.00    -0.053 C 
HETATM   23  C19 UNL     1     -12.234   4.861  -0.612  1.00  0.00    -0.014 C 
HETATM   24  C20 UNL     1     -11.729   5.839   0.412  1.00  0.00     0.048 C 
ENDROOT
BRANCH   1  25
HETATM   25  C1  UNL     1     -13.294   6.883   2.625  1.00  0.00     0.394 C 
HETATM   26  F1  UNL     1     -12.585   8.013   2.396  1.00  0.00    -0.171 F 
HETATM   27  F2  UNL     1     -14.260   6.596   1.675  1.00  0.00    -0.171 F 
HETATM   28  F3  UNL     1     -14.081   7.126   3.763  1.00  0.00    -0.171 F 
ENDBRANCH   1  25
TORSDOF 1
ENDMDL
MODEL 2
REMARK VINA RESULT: -7.590547469      3.396      4.506
REMARK  1 active torsions:
REMARK  status: ('A' for Active; 'I' for Inactive)
REMARK    1  A    between atoms: C1_2  and  C2_5 
ROOT
HETATM    1  C2  UNL     1     -11.336   7.550   4.026  1.00  0.00     0.136 C 
HETATM    2  C3  UNL     1     -12.017   8.826   4.344  1.00  0.00     0.236 C 
HETATM    3  C4  UNL     1     -12.526   9.037   5.725  1.00  0.00     0.038 C 
HETATM    4  C5  UNL     1     -13.496  10.236   5.654  1.00  0.00     0.020 C 
HETATM    5  C6  UNL     1     -12.609  11.439   5.408  1.00  0.00     0.086 C 
HETATM    6 BR1  UNL     1     -13.611  13.070   5.302  1.00  0.00    -0.089 Br
HETATM    7  C7  UNL     1     -11.873  11.214   4.107  1.00  0.00     0.288 C 
HETATM    8  N1  UNL     1     -11.123   9.983   4.105  1.00  0.00     0.095 N 
HETATM    9  C8  UNL     1     -10.405   9.898   2.880  1.00  0.00     0.273 C 
HETATM   10  C9  UNL     1     -11.164   9.319   1.723  1.00  0.00     0.031 C 
HETATM   11  C10 UNL     1     -11.027   7.825   1.623  1.00  0.00     0.013 C 
HETATM   12  C11 UNL     1     -11.816   7.084   2.682  1.00  0.00    -0.016 C 
HETATM   13  C12 UNL     1     -13.311   7.294   2.454  1.00  0.00     0.044 C 
HETATM   14  C13 UNL     1     -13.332   6.000   1.718  1.00  0.00     0.196 C 
HETATM   15  N2  UNL     1     -13.328   6.020   0.295  1.00  0.00    -0.062 N 
ATOM     16  H21 UNL     1     -12.819   6.818  -0.086  1.00  0.00     0.278 HD
ATOM     17  H22 UNL     1     -14.243   6.239  -0.098  1.00  0.00     0.278 HD
HETATM   18  C14 UNL     1     -12.811   4.757  -0.174  1.00  0.00     0.215 C 
HETATM   19  C15 UNL     1     -12.843   4.616  -1.679  1.00  0.00     0.038 C 
HETATM   20  C16 UNL     1     -11.555   3.965  -2.073  1.00  0.00     0.007 C 
HETATM   21  C17 UNL     1     -10.551   4.260  -1.010  1.00  0.00     0.036 C 
HETATM   22  C18 UNL     1     -11.341   4.764   0.133  1.00  0.00    -0.053 C 
HETATM   23  C19 UNL     1     -10.998   5.204   1.331  1.00  0.00    -0.014 C 
HETATM   24  C20 UNL     1     -11.995   5.678   2.352  1.00  0.00     0.048 C 
ENDROOT
BRANCH   1  25
HETATM   25  C1  UNL     1     -11.340   6.477   5.066  1.00  0.00     0.394 C 
HETATM   26  F1  UNL     1     -12.548   5.972   5.412  1.00  0.00    -0.171 F 
HETATM   27  F2  UNL     1     -10.389   5.533   4.718  1.00  0.00    -0.171 F 
HETATM   28  F3  UNL     1     -10.783   7.021   6.236  1.00  0.00    -0.171 F 
ENDBRANCH   1  25
TORSDOF 1
ENDMDL
MODEL 3
REMARK VINA RESULT: -7.095705589      2.096      2.683
REMARK  1 active torsions:
REMARK  status: ('A' for Active; 'I' for Inactive)
REMARK    1  A    between atoms: C1_2  and  C2_5 
ROOT
HETATM    1  C2  UNL     1     -12.527   5.734   2.520  1.00  0.00     0.136 C 
HETATM    2  C3  UNL     1     -11.814   4.773   3.392  1.00  0.00     0.236 C 
HETATM    3  C4  UNL     1     -12.038   4.841   4.860  1.00  0.00     0.038 C 
HETATM    4  C5  UNL     1     -10.908   4.016   5.513  1.00  0.00     0.020 C 
HETATM    5  C6  UNL     1     -11.227   2.577   5.165  1.00  0.00     0.086 C 
HETATM    6 BR1  UNL     1      -9.948   1.352   5.900  1.00  0.00    -0.089 Br
HETATM    7  C7  UNL     1     -11.235   2.455   3.658  1.00  0.00     0.288 C 
HETATM    8  N1  UNL     1     -12.154   3.374   3.037  1.00  0.00     0.095 N 
HETATM    9  C8  UNL     1     -12.151   3.132   1.635  1.00  0.00     0.273 C 
HETATM   10  C9  UNL     1     -11.078   3.836   0.858  1.00  0.00     0.031 C 
HETATM   11  C10 UNL     1     -11.503   5.194   0.374  1.00  0.00     0.013 C 
HETATM   12  C11 UNL     1     -11.564   6.227   1.479  1.00  0.00    -0.016 C 
HETATM   13  C12 UNL     1     -10.159   6.493   2.015  1.00  0.00     0.044 C 
HETATM   14  C13 UNL     1     -10.084   7.665   1.101  1.00  0.00     0.196 C 
HETATM   15  N2  UNL     1      -9.364   7.539  -0.120  1.00  0.00    -0.062 N 
ATOM     16  H21 UNL     1      -9.400   6.593  -0.502  1.00  0.00     0.278 HD
ATOM     17  H22 UNL     1      -8.355   7.597   0.011  1.00  0.00     0.278 HD
HETATM   18  C14 UNL     1      -9.862   8.529  -1.044  1.00  0.00     0.215 C 
HETATM   19  C15 UNL     1      -9.111   8.559  -2.355  1.00  0.00     0.038 C 
HETATM   20  C16 UNL     1     -10.137   8.729  -3.430  1.00  0.00     0.007 C 
HETATM   21  C17 UNL     1     -11.433   8.208  -2.910  1.00  0.00     0.036 C 
HETATM   22  C18 UNL     1     -11.233   8.072  -1.452  1.00  0.00    -0.053 C 
HETATM   23  C19 UNL     1     -12.015   7.637  -0.480  1.00  0.00    -0.014 C 
HETATM   24  C20 UNL     1     -11.590   7.587   0.962  1.00  0.00     0.048 C 
ENDROOT
BRANCH   1  25
HETATM   25  C1  UNL     1     -13.309   6.826   3.175  1.00  0.00     0.394 C 
HETATM   26  F1  UNL     1     -12.612   7.917   3.571  1.00  0.00    -0.171 F 
HETATM   27  F2  UNL     1     -14.419   7.093   2.393  1.00  0.00    -0.171 F 
HETATM   28  F3  UNL     1     -13.901   6.287   4.330  1.00  0.00    -0.171 F 
ENDBRANCH   1  25
TORSDOF 1
ENDMDL
MODEL 4
REMARK VINA RESULT: -6.980224048      3.863      6.338
REMARK  1 active torsions:
REMARK  status: ('A' for Active; 'I' for Inactive)
REMARK    1  A    between atoms: C1_2  and  C2_5 
ROOT
HETATM    1  C2  UNL     1     -12.509   5.040  -0.901  1.00  0.00     0.136 C 
HETATM    2  C3  UNL     1     -11.581   6.078  -1.405  1.00  0.00     0.236 C 
HETATM    3  C4  UNL     1     -11.422   6.240  -2.874  1.00  0.00     0.038 C 
HETATM    4  C5  UNL     1     -10.149   7.088  -3.085  1.00  0.00     0.020 C 
HETATM    5  C6  UNL     1     -10.523   8.475  -2.607  1.00  0.00     0.086 C 
HETATM    6 BR1  UNL     1      -9.079   9.722  -2.795  1.00  0.00    -0.089 Br
HETATM    7  C7  UNL     1     -10.916   8.375  -1.151  1.00  0.00     0.288 C 
HETATM    8  N1  UNL     1     -11.979   7.426  -0.932  1.00  0.00     0.095 N 
HETATM    9  C8  UNL     1     -12.332   7.458   0.446  1.00  0.00     0.273 C 
HETATM   10  C9  UNL     1     -11.506   6.589   1.347  1.00  0.00     0.031 C 
HETATM   11  C10 UNL     1     -12.063   5.200   1.490  1.00  0.00     0.013 C 
HETATM   12  C11 UNL     1     -11.855   4.346   0.257  1.00  0.00    -0.016 C 
HETATM   13  C12 UNL     1     -10.363   4.085   0.056  1.00  0.00     0.044 C 
HETATM   14  C13 UNL     1     -10.545   2.788   0.765  1.00  0.00     0.196 C 
HETATM   15  N2  UNL     1     -10.161   2.693   2.132  1.00  0.00    -0.062 N 
ATOM     16  H21 UNL     1     -10.278   3.573   2.636  1.00  0.00     0.278 HD
ATOM     17  H22 UNL     1      -9.152   2.599   2.252  1.00  0.00     0.278 HD
HETATM   18  C14 UNL     1     -10.895   1.607   2.734  1.00  0.00     0.215 C 
HETATM   19  C15 UNL     1     -10.506   1.342   4.171  1.00  0.00     0.038 C 
HETATM   20  C16 UNL     1     -11.776   1.073   4.913  1.00  0.00     0.007 C 
HETATM   21  C17 UNL     1     -12.887   1.737   4.172  1.00  0.00     0.036 C 
HETATM   22  C18 UNL     1     -12.317   2.074   2.851  1.00  0.00    -0.053 C 
HETATM   23  C19 UNL     1     -12.816   2.691   1.794  1.00  0.00    -0.014 C 
HETATM   24  C20 UNL     1     -12.034   2.929   0.532  1.00  0.00     0.048 C 
ENDROOT
BRANCH   1  25
HETATM   25  C1  UNL     1     -13.115   4.102  -1.895  1.00  0.00     0.394 C 
HETATM   26  F1  UNL     1     -12.268   3.242  -2.510  1.00  0.00    -0.171 F 
HETATM   27  F2  UNL     1     -14.226   3.515  -1.315  1.00  0.00    -0.171 F 
HETATM   28  F3  UNL     1     -13.702   4.879  -2.907  1.00  0.00    -0.171 F 
ENDBRANCH   1  25
TORSDOF 1
ENDMDL
MODEL 5
REMARK VINA RESULT: -6.403387835      2.601      3.190
REMARK  1 active torsions:
REMARK  status: ('A' for Active; 'I' for Inactive)
REMARK    1  A    between atoms: C1_2  and  C2_5 
ROOT
HETATM    1  C2  UNL     1     -12.267   8.113   0.417  1.00  0.00     0.136 C 
HETATM    2  C3  UNL     1     -11.883   8.295   1.835  1.00  0.00     0.236 C 
HETATM    3  C4  UNL     1     -11.651   9.674   2.339  1.00  0.00     0.038 C 
HETATM    4  C5  UNL     1     -10.910   9.527   3.686  1.00  0.00     0.020 C 
HETATM    5  C6  UNL     1     -11.943   8.964   4.639  1.00  0.00     0.086 C 
HETATM    6 BR1  UNL     1     -11.242   8.713   6.405  1.00  0.00    -0.089 Br
HETATM    7  C7  UNL     1     -12.407   7.635   4.087  1.00  0.00     0.288 C 
HETATM    8  N1  UNL     1     -12.918   7.745   2.744  1.00  0.00     0.095 N 
HETATM    9  C8  UNL     1     -13.401   6.469   2.342  1.00  0.00     0.273 C 
HETATM   10  C9  UNL     1     -12.374   5.539   1.768  1.00  0.00     0.031 C 
HETATM   11  C10 UNL     1     -12.226   5.679   0.278  1.00  0.00     0.013 C 
HETATM   12  C11 UNL     1     -11.502   6.943  -0.131  1.00  0.00    -0.016 C 
HETATM   13  C12 UNL     1     -10.050   6.882   0.340  1.00  0.00     0.044 C 
HETATM   14  C13 UNL     1      -9.682   6.387  -1.015  1.00  0.00     0.196 C 
HETATM   15  N2  UNL     1      -9.458   4.994  -1.201  1.00  0.00    -0.062 N 
ATOM     16  H21 UNL     1     -10.032   4.418  -0.583  1.00  0.00     0.278 HD
ATOM     17  H22 UNL     1      -8.545   4.694  -0.861  1.00  0.00     0.278 HD
HETATM   18  C14 UNL     1      -9.661   4.685  -2.595  1.00  0.00     0.215 C 
HETATM   19  C15 UNL     1      -9.362   3.244  -2.941  1.00  0.00     0.038 C 
HETATM   20  C16 UNL     1     -10.433   2.801  -3.885  1.00  0.00     0.007 C 
HETATM   21  C17 UNL     1     -11.632   3.656  -3.649  1.00  0.00     0.036 C 
HETATM   22  C18 UNL     1     -11.139   4.789  -2.839  1.00  0.00    -0.053 C 
HETATM   23  C19 UNL     1     -11.744   5.838  -2.310  1.00  0.00    -0.014 C 
HETATM   24  C20 UNL     1     -11.025   6.886  -1.505  1.00  0.00     0.048 C 
ENDROOT
BRANCH   1  25
HETATM   25  C1  UNL     1     -12.243   9.313  -0.474  1.00  0.00     0.394 C 
HETATM   26  F1  UNL     1     -11.041   9.911  -0.652  1.00  0.00    -0.171 F 
HETATM   27  F2  UNL     1     -12.920   9.000  -1.640  1.00  0.00    -0.171 F 
HETATM   28  F3  UNL     1     -13.091  10.278   0.095  1.00  0.00    -0.171 F 
ENDBRANCH   1  25
TORSDOF 1
ENDMDL
