MODEL 1
REMARK VINA RESULT: -8.881639311      0.000      0.000
REMARK  6 active torsions:
REMARK  status: ('A' for Active; 'I' for Inactive)
REMARK       I    between atoms: C1_2  and  N1_3 
REMARK    1  A    between atoms: C1_2  and  C2_8 
REMARK    2  A    between atoms: N1_3  and  N2_5 
REMARK    3  A    between atoms: N2_5  and  O2_6 
REMARK    4  A    between atoms: C5_14  and  N3_15 
REMARK    5  A    between atoms: N3_15  and  C6_17 
REMARK    6  A    between atoms: C7_22  and  C8_23 
ROOT
HETATM    1  N3  UNL     1      27.712  62.335 -28.135  1.00  0.00    -0.194 N 
ATOM      2  H3  UNL     1      27.839  63.043 -28.857  1.00  0.00     0.180 HD
ENDROOT
BRANCH   1   3
HETATM    3  C5  UNL     1      28.594  62.451 -27.060  1.00  0.00     0.314 C 
HETATM    4  C4  UNL     1      30.009  62.145 -27.454  1.00  0.00     0.195 C 
HETATM    5  S1  UNL     1      30.917  62.010 -25.904  1.00  0.00     0.150 S 
HETATM    6  C3  UNL     1      30.462  63.472 -24.978  1.00  0.00     0.183 C 
HETATM    7  O3  UNL     1      30.375  60.785 -25.202  1.00  0.00    -0.228 OA
HETATM    8  O4  UNL     1      32.381  61.924 -26.134  1.00  0.00    -0.228 OA
HETATM    9  C2  UNL     1      28.969  63.616 -24.995  1.00  0.00     0.294 C 
HETATM   10  N11 UNL     1      28.430  63.688 -26.337  1.00  0.00    -0.039 N 
ATOM     11 2H11 UNL     1      27.453  63.983 -26.327  1.00  0.00     0.280 HD
ATOM     12 1H11 UNL     1      28.830  64.472 -26.854  1.00  0.00     0.280 HD
BRANCH   9  13
HETATM   13  C1  UNL     1      28.566  64.845 -24.264  1.00  0.00     0.266 C 
HETATM   14  O1  UNL     1      29.298  65.859 -24.182  1.00  0.00    -0.270 OA
HETATM   15  N1  UNL     1      27.299  64.887 -23.623  1.00  0.00    -0.246 N 
ATOM     16  H1  UNL     1      26.684  64.075 -23.674  1.00  0.00     0.187 HD
BRANCH  15  17
HETATM   17  N2  UNL     1      26.881  66.024 -22.924  1.00  0.00     0.021 NA
BRANCH  17  18
HETATM   18  O2  UNL     1      27.462  66.075 -21.711  1.00  0.00    -0.277 OA
ATOM     19  H2  UNL     1      26.815  65.956 -21.025  1.00  0.00     0.240 HD
ENDBRANCH  17  18
ENDBRANCH  15  17
ENDBRANCH   9  13
ENDBRANCH   1   3
BRANCH   1  20
HETATM   20  C6  UNL     1      26.782  61.507 -28.377  1.00  0.00     0.696 A 
HETATM   21  N4  UNL     1      25.905  61.503 -29.387  1.00  0.00    -0.130 N 
HETATM   22  N5  UNL     1      25.122  60.432 -29.215  1.00  0.00    -0.268 N 
ATOM     23  H4  UNL     1      25.845  62.184 -30.144  1.00  0.00     0.205 HD
HETATM   24  C7  UNL     1      25.464  59.742 -28.124  1.00  0.00     0.183 A 
ATOM     25  H5  UNL     1      24.358  60.175 -29.839  1.00  0.00     0.189 HD
HETATM   26  N10 UNL     1      26.495  60.404 -27.596  1.00  0.00    -0.170 N 
ATOM     27  H10 UNL     1      26.995  60.137 -26.747  1.00  0.00     0.186 HD
BRANCH  24  28
HETATM   28  C8  UNL     1      24.873  58.524 -27.579  1.00  0.00     0.184 A 
HETATM   29  N6  UNL     1      25.050  57.992 -26.354  1.00  0.00    -0.266 N 
HETATM   30  N7  UNL     1      24.339  56.895 -26.271  1.00  0.00    -0.226 N 
ATOM     31  H6  UNL     1      25.639  58.379 -25.616  1.00  0.00     0.190 HD
HETATM   32  N8  UNL     1      23.699  56.686 -27.403  1.00  0.00    -0.226 N 
ATOM     33  H7  UNL     1      24.288  56.291 -25.451  1.00  0.00     0.210 HD
HETATM   34  N9  UNL     1      24.026  57.688 -28.210  1.00  0.00    -0.266 N 
ATOM     35  H8  UNL     1      23.075  55.908 -27.618  1.00  0.00     0.210 HD
ATOM     36  H9  UNL     1      23.688  57.807 -29.164  1.00  0.00     0.190 HD
ENDBRANCH  24  28
ENDBRANCH   1  20
TORSDOF 6
ENDMDL
MODEL 2
REMARK VINA RESULT: -8.865989264      7.896     10.583
REMARK  6 active torsions:
REMARK  status: ('A' for Active; 'I' for Inactive)
REMARK       I    between atoms: C1_2  and  N1_3 
REMARK    1  A    between atoms: C1_2  and  C2_8 
REMARK    2  A    between atoms: N1_3  and  N2_5 
REMARK    3  A    between atoms: N2_5  and  O2_6 
REMARK    4  A    between atoms: C5_14  and  N3_15 
REMARK    5  A    between atoms: N3_15  and  C6_17 
REMARK    6  A    between atoms: C7_22  and  C8_23 
ROOT
HETATM    1  N3  UNL     1      23.074  58.273 -32.200  1.00  0.00    -0.194 N 
ATOM      2  H3  UNL     1      22.119  58.619 -32.280  1.00  0.00     0.180 HD
ENDROOT
BRANCH   1   3
HETATM    3  C5  UNL     1      23.497  57.508 -33.288  1.00  0.00     0.314 C 
HETATM    4  C4  UNL     1      24.642  58.146 -34.017  1.00  0.00     0.195 C 
HETATM    5  S1  UNL     1      24.813  57.213 -35.549  1.00  0.00     0.150 S 
HETATM    6  C3  UNL     1      24.820  55.498 -35.041  1.00  0.00     0.183 C 
HETATM    7  O3  UNL     1      23.562  57.491 -36.353  1.00  0.00    -0.228 OA
HETATM    8  O4  UNL     1      26.047  57.588 -36.283  1.00  0.00    -0.228 OA
HETATM    9  C2  UNL     1      23.670  55.259 -34.108  1.00  0.00     0.294 C 
HETATM   10  N11 UNL     1      23.705  56.122 -32.946  1.00  0.00    -0.039 N 
ATOM     11 2H11 UNL     1      23.040  55.813 -32.237  1.00  0.00     0.280 HD
ATOM     12 1H11 UNL     1      24.570  55.999 -32.421  1.00  0.00     0.280 HD
BRANCH   9  13
HETATM   13  C1  UNL     1      23.676  53.848 -33.641  1.00  0.00     0.266 C 
HETATM   14  O1  UNL     1      24.020  52.890 -34.373  1.00  0.00    -0.270 OA
HETATM   15  N1  UNL     1      23.274  53.557 -32.311  1.00  0.00    -0.246 N 
ATOM     16  H1  UNL     1      22.988  54.317 -31.694  1.00  0.00     0.187 HD
BRANCH  15  17
HETATM   17  N2  UNL     1      23.264  52.243 -31.832  1.00  0.00     0.021 NA
BRANCH  17  18
HETATM   18  O2  UNL     1      22.370  51.498 -32.507  1.00  0.00    -0.277 OA
ATOM     19  H2  UNL     1      21.928  50.893 -31.923  1.00  0.00     0.240 HD
ENDBRANCH  17  18
ENDBRANCH  15  17
ENDBRANCH   9  13
ENDBRANCH   1   3
BRANCH   1  20
HETATM   20  C6  UNL     1      23.663  58.615 -31.131  1.00  0.00     0.696 A 
HETATM   21  N4  UNL     1      24.194  59.800 -30.808  1.00  0.00    -0.130 N 
HETATM   22  N5  UNL     1      24.701  59.674 -29.576  1.00  0.00    -0.268 N 
ATOM     23  H4  UNL     1      24.208  60.639 -31.388  1.00  0.00     0.205 HD
HETATM   24  C7  UNL     1      24.517  58.444 -29.091  1.00  0.00     0.183 A 
ATOM     25  H5  UNL     1      25.172  60.424 -29.071  1.00  0.00     0.189 HD
HETATM   26  N10 UNL     1      23.872  57.778 -30.052  1.00  0.00    -0.170 N 
ATOM     27  H10 UNL     1      23.579  56.802 -29.998  1.00  0.00     0.186 HD
BRANCH  24  28
HETATM   28  C8  UNL     1      24.913  57.891 -27.800  1.00  0.00     0.184 A 
HETATM   29  N6  UNL     1      26.110  57.985 -27.190  1.00  0.00    -0.266 N 
HETATM   30  N7  UNL     1      26.045  57.349 -26.047  1.00  0.00    -0.226 N 
ATOM     31  H6  UNL     1      26.930  58.470 -27.557  1.00  0.00     0.190 HD
HETATM   32  N8  UNL     1      24.842  56.838 -25.884  1.00  0.00    -0.226 N 
ATOM     33  H7  UNL     1      26.812  57.261 -25.380  1.00  0.00     0.210 HD
HETATM   34  N9  UNL     1      24.143  57.171 -26.962  1.00  0.00    -0.266 N 
ATOM     35  H8  UNL     1      24.513  56.294 -25.086  1.00  0.00     0.210 HD
ATOM     36  H9  UNL     1      23.170  56.919 -27.131  1.00  0.00     0.190 HD
ENDBRANCH  24  28
ENDBRANCH   1  20
TORSDOF 6
ENDMDL
MODEL 3
REMARK VINA RESULT: -8.698050926      1.809      2.304
REMARK  6 active torsions:
REMARK  status: ('A' for Active; 'I' for Inactive)
REMARK       I    between atoms: C1_2  and  N1_3 
REMARK    1  A    between atoms: C1_2  and  C2_8 
REMARK    2  A    between atoms: N1_3  and  N2_5 
REMARK    3  A    between atoms: N2_5  and  O2_6 
REMARK    4  A    between atoms: C5_14  and  N3_15 
REMARK    5  A    between atoms: N3_15  and  C6_17 
REMARK    6  A    between atoms: C7_22  and  C8_23 
ROOT
HETATM    1  N3  UNL     1      28.438  61.943 -27.912  1.00  0.00    -0.194 N 
ATOM      2  H3  UNL     1      28.160  62.180 -28.864  1.00  0.00     0.180 HD
ENDROOT
BRANCH   1   3
HETATM    3  C5  UNL     1      29.166  62.942 -27.264  1.00  0.00     0.314 C 
HETATM    4  C4  UNL     1      29.642  64.000 -28.214  1.00  0.00     0.195 C 
HETATM    5  S1  UNL     1      30.823  64.987 -27.276  1.00  0.00     0.150 S 
HETATM    6  C3  UNL     1      29.985  65.366 -25.742  1.00  0.00     0.183 C 
HETATM    7  O3  UNL     1      31.999  64.080 -26.993  1.00  0.00    -0.228 OA
HETATM    8  O4  UNL     1      31.222  66.210 -28.016  1.00  0.00    -0.228 OA
HETATM    9  C2  UNL     1      29.404  64.103 -25.177  1.00  0.00     0.294 C 
HETATM   10  N11 UNL     1      28.493  63.449 -26.093  1.00  0.00    -0.039 N 
ATOM     11 2H11 UNL     1      27.963  62.714 -25.625  1.00  0.00     0.280 HD
ATOM     12 1H11 UNL     1      27.722  64.066 -26.350  1.00  0.00     0.280 HD
BRANCH   9  13
HETATM   13  C1  UNL     1      28.669  64.396 -23.919  1.00  0.00     0.266 C 
HETATM   14  O1  UNL     1      28.065  63.516 -23.262  1.00  0.00    -0.270 OA
HETATM   15  N1  UNL     1      28.639  65.729 -23.428  1.00  0.00    -0.246 N 
ATOM     16  H1  UNL     1      29.121  66.465 -23.944  1.00  0.00     0.187 HD
BRANCH  15  17
HETATM   17  N2  UNL     1      27.959  66.047 -22.249  1.00  0.00     0.021 NA
BRANCH  17  18
HETATM   18  O2  UNL     1      26.673  66.348 -22.509  1.00  0.00    -0.277 OA
ATOM     19  H2  UNL     1      26.164  66.362 -21.707  1.00  0.00     0.240 HD
ENDBRANCH  17  18
ENDBRANCH  15  17
ENDBRANCH   9  13
ENDBRANCH   1   3
BRANCH   1  20
HETATM   20  C6  UNL     1      28.060  60.794 -27.532  1.00  0.00     0.696 A 
HETATM   21  N4  UNL     1      28.764  59.844 -26.906  1.00  0.00    -0.130 N 
HETATM   22  N5  UNL     1      27.935  58.811 -26.714  1.00  0.00    -0.268 N 
ATOM     23  H4  UNL     1      29.744  59.897 -26.628  1.00  0.00     0.205 HD
HETATM   24  C7  UNL     1      26.716  59.062 -27.196  1.00  0.00     0.183 A 
ATOM     25  H5  UNL     1      28.202  57.940 -26.256  1.00  0.00     0.189 HD
HETATM   26  N10 UNL     1      26.784  60.293 -27.708  1.00  0.00    -0.170 N 
ATOM     27  H10 UNL     1      26.014  60.787 -28.159  1.00  0.00     0.186 HD
BRANCH  24  28
HETATM   28  C8  UNL     1      25.529  58.212 -27.193  1.00  0.00     0.184 A 
HETATM   29  N6  UNL     1      24.517  58.199 -28.082  1.00  0.00    -0.266 N 
HETATM   30  N7  UNL     1      23.652  57.287 -27.712  1.00  0.00    -0.226 N 
ATOM     31  H6  UNL     1      24.438  58.798 -28.904  1.00  0.00     0.190 HD
HETATM   32  N8  UNL     1      24.062  56.699 -26.607  1.00  0.00    -0.226 N 
ATOM     33  H7  UNL     1      22.788  57.065 -28.206  1.00  0.00     0.210 HD
HETATM   34  N9  UNL     1      25.218  57.268 -26.285  1.00  0.00    -0.266 N 
ATOM     35  H8  UNL     1      23.585  55.955 -26.098  1.00  0.00     0.210 HD
ATOM     36  H9  UNL     1      25.785  57.025 -25.474  1.00  0.00     0.190 HD
ENDBRANCH  24  28
ENDBRANCH   1  20
TORSDOF 6
ENDMDL
MODEL 4
REMARK VINA RESULT: -8.671725497      1.322      1.584
REMARK  6 active torsions:
REMARK  status: ('A' for Active; 'I' for Inactive)
REMARK       I    between atoms: C1_2  and  N1_3 
REMARK    1  A    between atoms: C1_2  and  C2_8 
REMARK    2  A    between atoms: N1_3  and  N2_5 
REMARK    3  A    between atoms: N2_5  and  O2_6 
REMARK    4  A    between atoms: C5_14  and  N3_15 
REMARK    5  A    between atoms: N3_15  and  C6_17 
REMARK    6  A    between atoms: C7_22  and  C8_23 
ROOT
HETATM    1  N3  UNL     1      29.378  61.002 -27.028  1.00  0.00    -0.194 N 
ATOM      2  H3  UNL     1      30.045  60.759 -27.759  1.00  0.00     0.180 HD
ENDROOT
BRANCH   1   3
HETATM    3  C5  UNL     1      29.955  61.580 -25.897  1.00  0.00     0.314 C 
HETATM    4  C4  UNL     1      31.452  61.488 -25.917  1.00  0.00     0.195 C 
HETATM    5  S1  UNL     1      31.982  61.961 -24.261  1.00  0.00     0.150 S 
HETATM    6  C3  UNL     1      31.108  63.484 -23.919  1.00  0.00     0.183 C 
HETATM    7  O3  UNL     1      31.480  60.877 -23.332  1.00  0.00    -0.228 OA
HETATM    8  O4  UNL     1      33.455  62.128 -24.184  1.00  0.00    -0.228 OA
HETATM    9  C2  UNL     1      29.656  63.300 -24.249  1.00  0.00     0.294 C 
HETATM   10  N11 UNL     1      29.443  62.901 -25.624  1.00  0.00    -0.039 N 
ATOM     11 2H11 UNL     1      28.458  62.974 -25.881  1.00  0.00     0.280 HD
ATOM     12 1H11 UNL     1      29.830  63.587 -26.272  1.00  0.00     0.280 HD
BRANCH   9  13
HETATM   13  C1  UNL     1      28.914  64.564 -24.009  1.00  0.00     0.266 C 
HETATM   14  O1  UNL     1      29.380  65.692 -24.294  1.00  0.00    -0.270 OA
HETATM   15  N1  UNL     1      27.618  64.508 -23.430  1.00  0.00    -0.246 N 
ATOM     16  H1  UNL     1      27.215  63.603 -23.188  1.00  0.00     0.187 HD
BRANCH  15  17
HETATM   17  N2  UNL     1      26.885  65.674 -23.188  1.00  0.00     0.021 NA
BRANCH  17  18
HETATM   18  O2  UNL     1      27.219  66.205 -21.997  1.00  0.00    -0.277 OA
ATOM     19  H2  UNL     1      27.283  65.528 -21.334  1.00  0.00     0.240 HD
ENDBRANCH  17  18
ENDBRANCH  15  17
ENDBRANCH   9  13
ENDBRANCH   1   3
BRANCH   1  20
HETATM   20  C6  UNL     1      28.174  60.723 -27.310  1.00  0.00     0.696 A 
HETATM   21  N4  UNL     1      27.265  61.474 -27.943  1.00  0.00    -0.130 N 
HETATM   22  N5  UNL     1      26.141  60.751 -28.005  1.00  0.00    -0.268 N 
ATOM     23  H4  UNL     1      27.403  62.417 -28.309  1.00  0.00     0.205 HD
HETATM   24  C7  UNL     1      26.292  59.555 -27.432  1.00  0.00     0.183 A 
ATOM     25  H5  UNL     1      25.275  61.074 -28.436  1.00  0.00     0.189 HD
HETATM   26  N10 UNL     1      27.553  59.529 -26.996  1.00  0.00    -0.170 N 
ATOM     27  H10 UNL     1      27.992  58.748 -26.507  1.00  0.00     0.186 HD
BRANCH  24  28
HETATM   28  C8  UNL     1      25.324  58.473 -27.284  1.00  0.00     0.184 A 
HETATM   29  N6  UNL     1      24.291  58.168 -28.093  1.00  0.00    -0.266 N 
HETATM   30  N7  UNL     1      23.671  57.125 -27.599  1.00  0.00    -0.226 N 
ATOM     31  H6  UNL     1      24.035  58.666 -28.946  1.00  0.00     0.190 HD
HETATM   32  N8  UNL     1      24.262  56.733 -26.489  1.00  0.00    -0.226 N 
ATOM     33  H7  UNL     1      22.850  56.682 -28.012  1.00  0.00     0.210 HD
HETATM   34  N9  UNL     1      25.281  57.562 -26.293  1.00  0.00    -0.266 N 
ATOM     35  H8  UNL     1      23.991  55.948 -25.897  1.00  0.00     0.210 HD
ATOM     36  H9  UNL     1      25.932  57.515 -25.511  1.00  0.00     0.190 HD
ENDBRANCH  24  28
ENDBRANCH   1  20
TORSDOF 6
ENDMDL
MODEL 5
REMARK VINA RESULT: -8.472297518      7.464      9.804
REMARK  6 active torsions:
REMARK  status: ('A' for Active; 'I' for Inactive)
REMARK       I    between atoms: C1_2  and  N1_3 
REMARK    1  A    between atoms: C1_2  and  C2_8 
REMARK    2  A    between atoms: N1_3  and  N2_5 
REMARK    3  A    between atoms: N2_5  and  O2_6 
REMARK    4  A    between atoms: C5_14  and  N3_15 
REMARK    5  A    between atoms: N3_15  and  C6_17 
REMARK    6  A    between atoms: C7_22  and  C8_23 
ROOT
HETATM    1  N3  UNL     1      23.909  60.298 -32.138  1.00  0.00    -0.194 N 
ATOM      2  H3  UNL     1      23.349  61.139 -32.276  1.00  0.00     0.180 HD
ENDROOT
BRANCH   1   3
HETATM    3  C5  UNL     1      24.066  59.521 -33.287  1.00  0.00     0.314 C 
HETATM    4  C4  UNL     1      25.342  59.834 -34.010  1.00  0.00     0.195 C 
HETATM    5  S1  UNL     1      25.202  59.006 -35.604  1.00  0.00     0.150 S 
HETATM    6  C3  UNL     1      24.694  57.337 -35.209  1.00  0.00     0.183 C 
HETATM    7  O3  UNL     1      24.085  59.706 -36.347  1.00  0.00    -0.228 OA
HETATM    8  O4  UNL     1      26.483  59.041 -36.353  1.00  0.00    -0.228 OA
HETATM    9  C2  UNL     1      23.537  57.390 -34.256  1.00  0.00     0.294 C 
HETATM   10  N11 UNL     1      23.847  58.117 -33.042  1.00  0.00    -0.039 N 
ATOM     11 2H11 UNL     1      23.128  57.973 -32.333  1.00  0.00     0.280 HD
ATOM     12 1H11 UNL     1      24.640  57.700 -32.555  1.00  0.00     0.280 HD
BRANCH   9  13
HETATM   13  C1  UNL     1      23.119  56.014 -33.882  1.00  0.00     0.266 C 
HETATM   14  O1  UNL     1      21.935  55.716 -33.596  1.00  0.00    -0.270 OA
HETATM   15  N1  UNL     1      24.092  54.981 -33.840  1.00  0.00    -0.246 N 
ATOM     16  H1  UNL     1      25.063  55.196 -34.067  1.00  0.00     0.187 HD
BRANCH  15  17
HETATM   17  N2  UNL     1      23.741  53.673 -33.492  1.00  0.00     0.021 NA
BRANCH  17  18
HETATM   18  O2  UNL     1      23.484  53.584 -32.174  1.00  0.00    -0.277 OA
ATOM     19  H2  UNL     1      22.549  53.530 -32.018  1.00  0.00     0.240 HD
ENDBRANCH  17  18
ENDBRANCH  15  17
ENDBRANCH   9  13
ENDBRANCH   1   3
BRANCH   1  20
HETATM   20  C6  UNL     1      24.337  60.148 -30.954  1.00  0.00     0.696 A 
HETATM   21  N4  UNL     1      25.163  60.934 -30.254  1.00  0.00    -0.130 N 
HETATM   22  N5  UNL     1      25.320  60.361 -29.056  1.00  0.00    -0.268 N 
ATOM     23  H4  UNL     1      25.591  61.803 -30.574  1.00  0.00     0.205 HD
HETATM   24  C7  UNL     1      24.621  59.228 -28.956  1.00  0.00     0.183 A 
ATOM     25  H5  UNL     1      25.902  60.742 -28.310  1.00  0.00     0.189 HD
HETATM   26  N10 UNL     1      24.007  59.087 -30.133  1.00  0.00    -0.170 N 
ATOM     27  H10 UNL     1      23.389  58.315 -30.386  1.00  0.00     0.186 HD
BRANCH  24  28
HETATM   28  C8  UNL     1      24.515  58.304 -27.831  1.00  0.00     0.184 A 
HETATM   29  N6  UNL     1      23.816  57.155 -27.765  1.00  0.00    -0.266 N 
HETATM   30  N7  UNL     1      23.990  56.631 -26.576  1.00  0.00    -0.226 N 
ATOM     31  H6  UNL     1      23.247  56.759 -28.513  1.00  0.00     0.190 HD
HETATM   32  N8  UNL     1      24.782  57.399 -25.857  1.00  0.00    -0.226 N 
ATOM     33  H7  UNL     1      23.573  55.757 -26.255  1.00  0.00     0.210 HD
HETATM   34  N9  UNL     1      25.107  58.430 -26.628  1.00  0.00    -0.266 N 
ATOM     35  H8  UNL     1      25.085  57.234 -24.897  1.00  0.00     0.210 HD
ATOM     36  H9  UNL     1      25.713  59.201 -26.351  1.00  0.00     0.190 HD
ENDBRANCH  24  28
ENDBRANCH   1  20
TORSDOF 6
ENDMDL
