MODEL 1
REMARK VINA RESULT: -9.518330842      0.000      0.000
REMARK  6 active torsions:
REMARK  status: ('A' for Active; 'I' for Inactive)
REMARK    1  A    between atoms: C2_2  and  C3_3 
REMARK    2  A    between atoms: C3_3  and  S1_4 
REMARK    3  A    between atoms: S1_4  and  C4_6 
REMARK    4  A    between atoms: S1_4  and  N4_19 
REMARK    5  A    between atoms: C4_6  and  C5_7 
REMARK    6  A    between atoms: C8_13  and  N2_14 
ROOT
HETATM    1  S1  UNL     1      24.687  57.766 -31.998  1.00  0.00     0.035 S 
HETATM    2  O1  UNL     1      22.909  58.164 -32.930  1.00  0.00    -0.249 OA
ENDROOT
BRANCH   1   3
HETATM    3  C3  UNL     1      25.416  58.927 -33.472  1.00  0.00     0.144 C 
BRANCH   3   4
HETATM    4  C2  UNL     1      26.460  59.878 -32.994  1.00  0.00    -0.024 C 
HETATM    5  C1  UNL     1      26.196  61.089 -32.547  1.00  0.00     0.008 C 
ENDBRANCH   3   4
ENDBRANCH   1   3
BRANCH   1   6
HETATM    6  C4  UNL     1      23.882  58.871 -30.556  1.00  0.00     0.175 C 
BRANCH   6   7
HETATM    7  C5  UNL     1      24.566  58.700 -29.216  1.00  0.00     0.044 A 
HETATM    8  C6  UNL     1      25.653  59.459 -28.866  1.00  0.00     0.101 A 
HETATM    9  C7  UNL     1      26.236  59.257 -27.627  1.00  0.00     0.261 A 
HETATM   10  O2  UNL     1      27.233  59.915 -27.240  1.00  0.00    -0.268 OA
HETATM   11  N1  UNL     1      25.713  58.313 -26.799  1.00  0.00    -0.156 N 
HETATM   12  C8  UNL     1      24.656  57.574 -27.138  1.00  0.00     0.678 A 
ATOM     13  H1  UNL     1      26.144  58.165 -25.886  1.00  0.00     0.187 HD
HETATM   14  N3  UNL     1      24.106  57.790 -28.351  1.00  0.00    -0.195 N 
ATOM     15  H3  UNL     1      23.297  57.231 -28.622  1.00  0.00     0.184 HD
BRANCH  12  16
HETATM   16  N2  UNL     1      24.161  56.677 -26.349  1.00  0.00    -0.234 N 
ATOM     17  H22 UNL     1      24.773  56.000 -25.892  1.00  0.00     0.174 HD
ATOM     18  H21 UNL     1      23.161  56.614 -26.159  1.00  0.00     0.174 HD
ENDBRANCH  12  16
ENDBRANCH   6   7
ENDBRANCH   1   6
BRANCH   1  19
HETATM   19  N4  UNL     1      24.176  56.115 -32.355  1.00  0.00    -0.304 N 
HETATM   20  C9  UNL     1      24.180  55.049 -32.928  1.00  0.00     0.110 C 
HETATM   21  C10 UNL     1      25.094  54.713 -34.053  1.00  0.00     0.308 C 
HETATM   22  N6  UNL     1      23.266  54.003 -32.545  1.00  0.00    -0.376 N 
HETATM   23  N5  UNL     1      24.379  53.836 -34.948  1.00  0.00    -0.067 N 
HETATM   24  C11 UNL     1      24.087  52.551 -34.356  1.00  0.00     0.252 C 
ATOM     25  H52 UNL     1      23.529  54.281 -35.295  1.00  0.00     0.277 HD
ATOM     26  H51 UNL     1      24.880  53.727 -35.830  1.00  0.00     0.277 HD
HETATM   27  C12 UNL     1      23.461  52.641 -33.002  1.00  0.00     0.148 C 
ATOM     28  H6  UNL     1      22.472  54.223 -31.944  1.00  0.00     0.160 HD
ATOM     29  H4  UNL     1      23.435  55.976 -31.667  1.00  0.00     0.176 HD
ENDBRANCH   1  19
TORSDOF 6
ENDMDL
MODEL 2
REMARK VINA RESULT: -9.420019079      0.671      1.176
REMARK  6 active torsions:
REMARK  status: ('A' for Active; 'I' for Inactive)
REMARK    1  A    between atoms: C2_2  and  C3_3 
REMARK    2  A    between atoms: C3_3  and  S1_4 
REMARK    3  A    between atoms: S1_4  and  C4_6 
REMARK    4  A    between atoms: S1_4  and  N4_19 
REMARK    5  A    between atoms: C4_6  and  C5_7 
REMARK    6  A    between atoms: C8_13  and  N2_14 
ROOT
HETATM    1  S1  UNL     1      24.674  57.871 -32.075  1.00  0.00     0.035 S 
HETATM    2  O1  UNL     1      22.842  58.232 -32.912  1.00  0.00    -0.249 OA
ENDROOT
BRANCH   1   3
HETATM    3  C3  UNL     1      25.307  59.001 -33.616  1.00  0.00     0.144 C 
BRANCH   3   4
HETATM    4  C2  UNL     1      25.659  58.192 -34.818  1.00  0.00    -0.024 C 
HETATM    5  C1  UNL     1      24.873  58.062 -35.867  1.00  0.00     0.008 C 
ENDBRANCH   3   4
ENDBRANCH   1   3
BRANCH   1   6
HETATM    6  C4  UNL     1      23.943  59.006 -30.617  1.00  0.00     0.175 C 
BRANCH   6   7
HETATM    7  C5  UNL     1      24.603  58.759 -29.276  1.00  0.00     0.044 A 
HETATM    8  C6  UNL     1      25.708  59.468 -28.882  1.00  0.00     0.101 A 
HETATM    9  C7  UNL     1      26.268  59.198 -27.645  1.00  0.00     0.261 A 
HETATM   10  O2  UNL     1      27.280  59.808 -27.219  1.00  0.00    -0.268 OA
HETATM   11  N1  UNL     1      25.704  58.238 -26.862  1.00  0.00    -0.156 N 
HETATM   12  C8  UNL     1      24.630  57.548 -27.245  1.00  0.00     0.678 A 
ATOM     13  H1  UNL     1      26.117  58.040 -25.951  1.00  0.00     0.187 HD
HETATM   14  N3  UNL     1      24.103  57.830 -28.454  1.00  0.00    -0.195 N 
ATOM     15  H3  UNL     1      23.280  57.309 -28.758  1.00  0.00     0.184 HD
BRANCH  12  16
HETATM   16  N2  UNL     1      24.095  56.636 -26.498  1.00  0.00    -0.234 N 
ATOM     17  H22 UNL     1      24.596  55.767 -26.312  1.00  0.00     0.174 HD
ATOM     18  H21 UNL     1      23.173  56.751 -26.079  1.00  0.00     0.174 HD
ENDBRANCH  12  16
ENDBRANCH   6   7
ENDBRANCH   1   6
BRANCH   1  19
HETATM   19  N4  UNL     1      24.159  56.208 -32.361  1.00  0.00    -0.304 N 
HETATM   20  C9  UNL     1      24.153  55.123 -32.896  1.00  0.00     0.110 C 
HETATM   21  C10 UNL     1      25.040  54.748 -34.030  1.00  0.00     0.308 C 
HETATM   22  N6  UNL     1      23.250  54.089 -32.455  1.00  0.00    -0.376 N 
HETATM   23  N5  UNL     1      24.307  53.839 -34.876  1.00  0.00    -0.067 N 
HETATM   24  C11 UNL     1      24.032  52.576 -34.233  1.00  0.00     0.252 C 
ATOM     25  H52 UNL     1      23.448  54.270 -35.218  1.00  0.00     0.277 HD
ATOM     26  H51 UNL     1      24.787  53.700 -35.765  1.00  0.00     0.277 HD
HETATM   27  C12 UNL     1      23.438  52.713 -32.868  1.00  0.00     0.148 C 
ATOM     28  H6  UNL     1      22.470  54.329 -31.843  1.00  0.00     0.160 HD
ATOM     29  H4  UNL     1      23.435  56.092 -31.651  1.00  0.00     0.176 HD
ENDBRANCH   1  19
TORSDOF 6
ENDMDL
MODEL 3
REMARK VINA RESULT: -9.046371496      1.848      2.407
REMARK  6 active torsions:
REMARK  status: ('A' for Active; 'I' for Inactive)
REMARK    1  A    between atoms: C2_2  and  C3_3 
REMARK    2  A    between atoms: C3_3  and  S1_4 
REMARK    3  A    between atoms: S1_4  and  C4_6 
REMARK    4  A    between atoms: S1_4  and  N4_19 
REMARK    5  A    between atoms: C4_6  and  C5_7 
REMARK    6  A    between atoms: C8_13  and  N2_14 
ROOT
HETATM    1  S1  UNL     1      24.186  57.536 -33.536  1.00  0.00     0.035 S 
HETATM    2  O1  UNL     1      22.335  57.444 -34.403  1.00  0.00    -0.249 OA
ENDROOT
BRANCH   1   3
HETATM    3  C3  UNL     1      24.745  58.033 -35.404  1.00  0.00     0.144 C 
BRANCH   3   4
HETATM    4  C2  UNL     1      25.669  57.035 -36.015  1.00  0.00    -0.024 C 
HETATM    5  C1  UNL     1      26.218  57.178 -37.204  1.00  0.00     0.008 C 
ENDBRANCH   3   4
ENDBRANCH   1   3
BRANCH   1   6
HETATM    6  C4  UNL     1      23.384  59.093 -32.597  1.00  0.00     0.175 C 
BRANCH   6   7
HETATM    7  C5  UNL     1      23.978  59.338 -31.226  1.00  0.00     0.044 A 
HETATM    8  C6  UNL     1      24.777  60.424 -30.978  1.00  0.00     0.101 A 
HETATM    9  C7  UNL     1      25.292  60.596 -29.704  1.00  0.00     0.261 A 
HETATM   10  O2  UNL     1      26.031  61.566 -29.404  1.00  0.00    -0.268 OA
HETATM   11  N1  UNL     1      24.988  59.682 -28.742  1.00  0.00    -0.156 N 
HETATM   12  C8  UNL     1      24.211  58.626 -28.983  1.00  0.00     0.678 A 
ATOM     13  H1  UNL     1      25.368  59.810 -27.804  1.00  0.00     0.187 HD
HETATM   14  N3  UNL     1      23.722  58.481 -30.232  1.00  0.00    -0.195 N 
ATOM     15  H3  UNL     1      23.126  57.677 -30.428  1.00  0.00     0.184 HD
BRANCH  12  16
HETATM   16  N2  UNL     1      23.924  57.759 -28.067  1.00  0.00    -0.234 N 
ATOM     17  H22 UNL     1      24.216  57.916 -27.101  1.00  0.00     0.174 HD
ATOM     18  H21 UNL     1      23.407  56.905 -28.271  1.00  0.00     0.174 HD
ENDBRANCH  12  16
ENDBRANCH   6   7
ENDBRANCH   1   6
BRANCH   1  19
HETATM   19  N4  UNL     1      23.779  55.861 -33.159  1.00  0.00    -0.304 N 
HETATM   20  C9  UNL     1      23.786  54.658 -33.293  1.00  0.00     0.110 C 
HETATM   21  C10 UNL     1      24.526  53.944 -34.367  1.00  0.00     0.308 C 
HETATM   22  N6  UNL     1      23.050  53.812 -32.387  1.00  0.00    -0.376 N 
HETATM   23  N5  UNL     1      23.757  52.778 -34.726  1.00  0.00    -0.067 N 
HETATM   24  C11 UNL     1      23.688  51.805 -33.662  1.00  0.00     0.252 C 
ATOM     25  H52 UNL     1      22.823  53.039 -35.044  1.00  0.00     0.277 HD
ATOM     26  H51 UNL     1      24.111  52.356 -35.585  1.00  0.00     0.277 HD
HETATM   27  C12 UNL     1      23.292  52.384 -32.342  1.00  0.00     0.148 C 
ATOM     28  H6  UNL     1      22.351  54.224 -31.769  1.00  0.00     0.160 HD
ATOM     29  H4  UNL     1      23.180  55.974 -32.341  1.00  0.00     0.176 HD
ENDBRANCH   1  19
TORSDOF 6
ENDMDL
MODEL 4
REMARK VINA RESULT: -8.974542970      1.085      1.480
REMARK  6 active torsions:
REMARK  status: ('A' for Active; 'I' for Inactive)
REMARK    1  A    between atoms: C2_2  and  C3_3 
REMARK    2  A    between atoms: C3_3  and  S1_4 
REMARK    3  A    between atoms: S1_4  and  C4_6 
REMARK    4  A    between atoms: S1_4  and  N4_19 
REMARK    5  A    between atoms: C4_6  and  C5_7 
REMARK    6  A    between atoms: C8_13  and  N2_14 
ROOT
HETATM    1  S1  UNL     1      25.128  57.898 -32.687  1.00  0.00     0.035 S 
HETATM    2  O1  UNL     1      23.733  58.264 -34.138  1.00  0.00    -0.249 OA
ENDROOT
BRANCH   1   3
HETATM    3  C3  UNL     1      26.108  59.385 -33.625  1.00  0.00     0.144 C 
BRANCH   3   4
HETATM    4  C2  UNL     1      26.802  60.305 -32.680  1.00  0.00    -0.024 C 
HETATM    5  C1  UNL     1      26.576  61.602 -32.623  1.00  0.00     0.008 C 
ENDBRANCH   3   4
ENDBRANCH   1   3
BRANCH   1   6
HETATM    6  C4  UNL     1      23.708  58.622 -31.502  1.00  0.00     0.175 C 
BRANCH   6   7
HETATM    7  C5  UNL     1      24.176  58.866 -30.083  1.00  0.00     0.044 A 
HETATM    8  C6  UNL     1      24.756  60.053 -29.716  1.00  0.00     0.101 A 
HETATM    9  C7  UNL     1      25.165  60.217 -28.403  1.00  0.00     0.261 A 
HETATM   10  O2  UNL     1      25.704  61.276 -27.996  1.00  0.00    -0.268 OA
HETATM   11  N1  UNL     1      24.978  59.197 -27.522  1.00  0.00    -0.156 N 
HETATM   12  C8  UNL     1      24.415  58.042 -27.878  1.00  0.00     0.678 A 
ATOM     13  H1  UNL     1      25.280  59.320 -26.555  1.00  0.00     0.187 HD
HETATM   14  N3  UNL     1      24.025  57.907 -29.163  1.00  0.00    -0.195 N 
ATOM     15  H3  UNL     1      23.592  57.028 -29.447  1.00  0.00     0.184 HD
BRANCH  12  16
HETATM   16  N2  UNL     1      24.239  57.074 -27.038  1.00  0.00    -0.234 N 
ATOM     17  H22 UNL     1      24.589  56.140 -27.251  1.00  0.00     0.174 HD
ATOM     18  H21 UNL     1      23.753  57.207 -26.152  1.00  0.00     0.174 HD
ENDBRANCH  12  16
ENDBRANCH   6   7
ENDBRANCH   1   6
BRANCH   1  19
HETATM   19  N4  UNL     1      25.056  56.296 -33.422  1.00  0.00    -0.304 N 
HETATM   20  C9  UNL     1      24.620  55.186 -33.628  1.00  0.00     0.110 C 
HETATM   21  C10 UNL     1      23.419  54.624 -32.954  1.00  0.00     0.308 C 
HETATM   22  N6  UNL     1      25.262  54.305 -34.572  1.00  0.00    -0.376 N 
HETATM   23  N5  UNL     1      23.633  53.208 -32.788  1.00  0.00    -0.067 N 
HETATM   24  C11 UNL     1      23.675  52.498 -34.044  1.00  0.00     0.252 C 
ATOM     25  H52 UNL     1      24.473  53.027 -32.237  1.00  0.00     0.277 HD
ATOM     26  H51 UNL     1      22.936  52.804 -32.162  1.00  0.00     0.277 HD
HETATM   27  C12 UNL     1      24.591  53.114 -35.052  1.00  0.00     0.148 C 
ATOM     28  H6  UNL     1      26.200  54.524 -34.906  1.00  0.00     0.160 HD
ATOM     29  H4  UNL     1      25.862  56.320 -34.047  1.00  0.00     0.176 HD
ENDBRANCH   1  19
TORSDOF 6
ENDMDL
MODEL 5
REMARK VINA RESULT: -8.758460547      2.182      2.993
REMARK  6 active torsions:
REMARK  status: ('A' for Active; 'I' for Inactive)
REMARK    1  A    between atoms: C2_2  and  C3_3 
REMARK    2  A    between atoms: C3_3  and  S1_4 
REMARK    3  A    between atoms: S1_4  and  C4_6 
REMARK    4  A    between atoms: S1_4  and  N4_19 
REMARK    5  A    between atoms: C4_6  and  C5_7 
REMARK    6  A    between atoms: C8_13  and  N2_14 
ROOT
HETATM    1  S1  UNL     1      24.554  57.409 -34.131  1.00  0.00     0.035 S 
HETATM    2  O1  UNL     1      22.968  57.224 -35.412  1.00  0.00    -0.249 OA
ENDROOT
BRANCH   1   3
HETATM    3  C3  UNL     1      25.303  58.510 -35.639  1.00  0.00     0.144 C 
BRANCH   3   4
HETATM    4  C2  UNL     1      26.143  57.711 -36.576  1.00  0.00    -0.024 C 
HETATM    5  C1  UNL     1      25.711  57.248 -37.732  1.00  0.00     0.008 C 
ENDBRANCH   3   4
ENDBRANCH   1   3
BRANCH   1   6
HETATM    6  C4  UNL     1      23.242  58.458 -33.070  1.00  0.00     0.175 C 
BRANCH   6   7
HETATM    7  C5  UNL     1      23.812  58.999 -31.776  1.00  0.00     0.044 A 
HETATM    8  C6  UNL     1      24.503  60.184 -31.740  1.00  0.00     0.101 A 
HETATM    9  C7  UNL     1      25.001  60.628 -30.527  1.00  0.00     0.261 A 
HETATM   10  O2  UNL     1      25.643  61.702 -30.419  1.00  0.00    -0.268 OA
HETATM   11  N1  UNL     1      24.791  59.875 -29.413  1.00  0.00    -0.156 N 
HETATM   12  C8  UNL     1      24.120  58.724 -29.447  1.00  0.00     0.678 A 
ATOM     13  H1  UNL     1      25.159  60.204 -28.520  1.00  0.00     0.187 HD
HETATM   14  N3  UNL     1      23.644  58.313 -30.641  1.00  0.00    -0.195 N 
ATOM     15  H3  UNL     1      23.129  57.433 -30.680  1.00  0.00     0.184 HD
BRANCH  12  16
HETATM   16  N2  UNL     1      23.922  58.011 -28.386  1.00  0.00    -0.234 N 
ATOM     17  H22 UNL     1      24.394  58.246 -27.513  1.00  0.00     0.174 HD
ATOM     18  H21 UNL     1      23.298  57.204 -28.384  1.00  0.00     0.174 HD
ENDBRANCH  12  16
ENDBRANCH   6   7
ENDBRANCH   1   6
BRANCH   1  19
HETATM   19  N4  UNL     1      24.504  55.651 -34.271  1.00  0.00    -0.304 N 
HETATM   20  C9  UNL     1      24.158  54.523 -34.000  1.00  0.00     0.110 C 
HETATM   21  C10 UNL     1      23.191  54.185 -32.921  1.00  0.00     0.308 C 
HETATM   22  N6  UNL     1      24.683  53.396 -34.730  1.00  0.00    -0.376 N 
HETATM   23  N5  UNL     1      23.588  52.917 -32.360  1.00  0.00    -0.067 N 
HETATM   24  C11 UNL     1      23.445  51.825 -33.294  1.00  0.00     0.252 C 
ATOM     25  H52 UNL     1      24.538  52.962 -31.992  1.00  0.00     0.277 HD
ATOM     26  H51 UNL     1      23.084  52.727 -31.494  1.00  0.00     0.277 HD
HETATM   27  C12 UNL     1      24.060  52.091 -34.630  1.00  0.00     0.148 C 
ATOM     28  H6  UNL     1      25.502  53.518 -35.325  1.00  0.00     0.160 HD
ATOM     29  H4  UNL     1      25.156  55.487 -35.038  1.00  0.00     0.176 HD
ENDBRANCH   1  19
TORSDOF 6
ENDMDL
