MODEL 1
REMARK VINA RESULT: -6.923973213      0.000      0.000
REMARK  6 active torsions:
REMARK  status: ('A' for Active; 'I' for Inactive)
REMARK    1  A    between atoms: C2_2  and  C3_4 
REMARK    2  A    between atoms: C3_4  and  C4_5 
REMARK    3  A    between atoms: C4_5  and  N2_6 
REMARK    4  A    between atoms: C4_5  and  C6_11 
REMARK       I    between atoms: N2_6  and  C5_8 
REMARK    5  A    between atoms: C6_11  and  N4_12 
REMARK    6  A    between atoms: C6_11  and  C7_16 
REMARK       I    between atoms: C7_16  and  N5_18 
ROOT
HETATM    1  C6  UNL     1      23.699  56.632 -33.020  1.00  0.00     0.297 C 
ENDROOT
BRANCH   1   2
HETATM    2  C4  UNL     1      24.171  55.422 -33.787  1.00  0.00     0.130 C 
BRANCH   2   3
HETATM    3  C3  UNL     1      23.087  54.402 -33.910  1.00  0.00     0.081 C 
BRANCH   3   4
HETATM    4  C2  UNL     1      23.504  53.059 -33.499  1.00  0.00     0.017 C 
HETATM    5  C1  UNL     1      24.012  52.232 -34.391  1.00  0.00     0.035 C 
HETATM    6  N1  UNL     1      23.379  52.614 -32.159  1.00  0.00    -0.108 NA
ENDBRANCH   3   4
ENDBRANCH   2   3
BRANCH   2   7
HETATM    7  N2  UNL     1      24.631  55.796 -35.092  1.00  0.00    -0.338 N 
HETATM    8  C5  UNL     1      25.866  55.370 -35.638  1.00  0.00     0.329 C 
HETATM    9  N3  UNL     1      26.279  55.765 -36.934  1.00  0.00    -0.040 NA
HETATM   10  O1  UNL     1      26.605  54.626 -34.947  1.00  0.00    -0.251 OA
ATOM     11  H2  UNL     1      24.036  56.401 -35.658  1.00  0.00     0.164 HD
ENDBRANCH   2   7
ENDBRANCH   1   2
BRANCH   1  12
HETATM   12  N4  UNL     1      23.141  57.616 -33.922  1.00  0.00    -0.064 N 
ATOM     13  H43 UNL     1      22.137  57.487 -34.049  1.00  0.00     0.275 HD
ATOM     14  H42 UNL     1      23.123  58.546 -33.504  1.00  0.00     0.275 HD
ATOM     15  H41 UNL     1      23.640  57.609 -34.811  1.00  0.00     0.275 HD
ENDBRANCH   1  12
BRANCH   1  16
HETATM   16  C7  UNL     1      24.813  57.251 -32.264  1.00  0.00     0.256 C 
HETATM   17  O2  UNL     1      25.713  57.852 -32.898  1.00  0.00    -0.271 OA
HETATM   18  N5  UNL     1      24.919  57.199 -30.854  1.00  0.00    -0.302 N 
HETATM   19  C8  UNL     1      25.217  58.214 -30.125  1.00  0.00     0.201 C 
ATOM     20  H5  UNL     1      24.750  56.306 -30.391  1.00  0.00     0.171 HD
HETATM   21  N6  UNL     1      25.500  59.561 -30.485  1.00  0.00    -0.366 N 
HETATM   22  S1  UNL     1      25.362  58.205 -28.365  1.00  0.00     0.208 S 
HETATM   23  C9  UNL     1      25.100  60.487 -29.445  1.00  0.00     0.137 C 
ATOM     24  H6  UNL     1      25.933  59.839 -31.365  1.00  0.00     0.161 HD
HETATM   25  C10 UNL     1      25.646  59.970 -28.132  1.00  0.00     0.168 C 
HETATM   26  O3  UNL     1      26.544  57.413 -27.928  1.00  0.00    -0.220 OA
HETATM   27  O4  UNL     1      24.092  57.778 -27.737  1.00  0.00    -0.220 OA
ENDBRANCH   1  16
TORSDOF 6
ENDMDL
MODEL 2
REMARK VINA RESULT: -6.885119505      3.024      7.400
REMARK  6 active torsions:
REMARK  status: ('A' for Active; 'I' for Inactive)
REMARK    1  A    between atoms: C2_2  and  C3_4 
REMARK    2  A    between atoms: C3_4  and  C4_5 
REMARK    3  A    between atoms: C4_5  and  N2_6 
REMARK    4  A    between atoms: C4_5  and  C6_11 
REMARK       I    between atoms: N2_6  and  C5_8 
REMARK    5  A    between atoms: C6_11  and  N4_12 
REMARK    6  A    between atoms: C6_11  and  C7_16 
REMARK       I    between atoms: C7_16  and  N5_18 
ROOT
HETATM    1  C6  UNL     1      24.339  59.598 -30.116  1.00  0.00     0.297 C 
ENDROOT
BRANCH   1   2
HETATM    2  C4  UNL     1      25.341  59.693 -28.992  1.00  0.00     0.130 C 
BRANCH   2   3
HETATM    3  C3  UNL     1      25.677  61.115 -28.684  1.00  0.00     0.081 C 
BRANCH   3   4
HETATM    4  C2  UNL     1      27.094  61.324 -28.377  1.00  0.00     0.017 C 
HETATM    5  C1  UNL     1      27.850  62.007 -29.213  1.00  0.00     0.035 C 
HETATM    6  N1  UNL     1      27.687  60.811 -27.196  1.00  0.00    -0.108 NA
ENDBRANCH   3   4
ENDBRANCH   2   3
BRANCH   2   7
HETATM    7  N2  UNL     1      24.842  59.049 -27.813  1.00  0.00    -0.338 N 
HETATM    8  C5  UNL     1      25.479  57.947 -27.194  1.00  0.00     0.329 C 
HETATM    9  N3  UNL     1      24.949  57.343 -26.027  1.00  0.00    -0.040 NA
HETATM   10  O1  UNL     1      26.539  57.501 -27.700  1.00  0.00    -0.251 OA
ATOM     11  H2  UNL     1      23.982  59.405 -27.396  1.00  0.00     0.164 HD
ENDBRANCH   2   7
ENDBRANCH   1   2
BRANCH   1  12
HETATM   12  N4  UNL     1      23.385  58.542 -29.856  1.00  0.00    -0.064 N 
ATOM     13  H43 UNL     1      23.670  57.960 -29.068  1.00  0.00     0.275 HD
ATOM     14  H42 UNL     1      22.514  58.905 -29.469  1.00  0.00     0.275 HD
ATOM     15  H41 UNL     1      23.226  57.990 -30.698  1.00  0.00     0.275 HD
ENDBRANCH   1  12
BRANCH   1  16
HETATM   16  C7  UNL     1      25.012  59.330 -31.408  1.00  0.00     0.256 C 
HETATM   17  O2  UNL     1      26.258  59.453 -31.477  1.00  0.00    -0.271 OA
HETATM   18  N5  UNL     1      24.320  58.938 -32.579  1.00  0.00    -0.302 N 
HETATM   19  C8  UNL     1      24.706  57.985 -33.349  1.00  0.00     0.201 C 
ATOM     20  H5  UNL     1      23.468  59.441 -32.825  1.00  0.00     0.171 HD
HETATM   21  N6  UNL     1      25.835  57.124 -33.261  1.00  0.00    -0.366 N 
HETATM   22  S1  UNL     1      23.882  57.457 -34.818  1.00  0.00     0.208 S 
HETATM   23  C9  UNL     1      25.561  55.824 -33.840  1.00  0.00     0.137 C 
ATOM     24  H6  UNL     1      26.726  57.389 -32.843  1.00  0.00     0.161 HD
HETATM   25  C10 UNL     1      24.940  56.048 -35.202  1.00  0.00     0.168 C 
HETATM   26  O3  UNL     1      23.968  58.492 -35.884  1.00  0.00    -0.220 OA
HETATM   27  O4  UNL     1      22.500  57.025 -34.517  1.00  0.00    -0.220 OA
ENDBRANCH   1  16
TORSDOF 6
ENDMDL
MODEL 3
REMARK VINA RESULT: -6.821922679      2.276      2.800
REMARK  6 active torsions:
REMARK  status: ('A' for Active; 'I' for Inactive)
REMARK    1  A    between atoms: C2_2  and  C3_4 
REMARK    2  A    between atoms: C3_4  and  C4_5 
REMARK    3  A    between atoms: C4_5  and  N2_6 
REMARK    4  A    between atoms: C4_5  and  C6_11 
REMARK       I    between atoms: N2_6  and  C5_8 
REMARK    5  A    between atoms: C6_11  and  N4_12 
REMARK    6  A    between atoms: C6_11  and  C7_16 
REMARK       I    between atoms: C7_16  and  N5_18 
ROOT
HETATM    1  C6  UNL     1      25.194  55.935 -32.800  1.00  0.00     0.297 C 
ENDROOT
BRANCH   1   2
HETATM    2  C4  UNL     1      24.780  55.495 -34.182  1.00  0.00     0.130 C 
BRANCH   2   3
HETATM    3  C3  UNL     1      23.846  54.330 -34.123  1.00  0.00     0.081 C 
BRANCH   3   4
HETATM    4  C2  UNL     1      24.366  53.135 -34.792  1.00  0.00     0.017 C 
HETATM    5  C1  UNL     1      23.989  51.941 -34.382  1.00  0.00     0.035 C 
HETATM    6  N1  UNL     1      25.270  53.221 -35.880  1.00  0.00    -0.108 NA
ENDBRANCH   3   4
ENDBRANCH   2   3
BRANCH   2   7
HETATM    7  N2  UNL     1      24.158  56.574 -34.892  1.00  0.00    -0.338 N 
HETATM    8  C5  UNL     1      24.737  57.204 -36.020  1.00  0.00     0.329 C 
HETATM    9  N3  UNL     1      24.084  58.268 -36.691  1.00  0.00    -0.040 NA
HETATM   10  O1  UNL     1      25.856  56.803 -36.426  1.00  0.00    -0.251 OA
ATOM     11  H2  UNL     1      23.250  56.906 -34.568  1.00  0.00     0.164 HD
ENDBRANCH   2   7
ENDBRANCH   1   2
BRANCH   1  12
HETATM   12  N4  UNL     1      24.803  54.949 -31.816  1.00  0.00    -0.064 N 
ATOM     13  H43 UNL     1      23.888  54.549 -32.023  1.00  0.00     0.275 HD
ATOM     14  H42 UNL     1      25.361  54.098 -31.891  1.00  0.00     0.275 HD
ATOM     15  H41 UNL     1      24.841  55.346 -30.878  1.00  0.00     0.275 HD
ENDBRANCH   1  12
BRANCH   1  16
HETATM   16  C7  UNL     1      24.576  57.235 -32.448  1.00  0.00     0.256 C 
HETATM   17  O2  UNL     1      23.339  57.282 -32.250  1.00  0.00    -0.271 OA
HETATM   18  N5  UNL     1      25.313  58.437 -32.323  1.00  0.00    -0.302 N 
HETATM   19  C8  UNL     1      25.163  59.265 -31.352  1.00  0.00     0.201 C 
ATOM     20  H5  UNL     1      26.000  58.658 -33.043  1.00  0.00     0.171 HD
HETATM   21  N6  UNL     1      24.296  59.223 -30.225  1.00  0.00    -0.366 N 
HETATM   22  S1  UNL     1      26.054  60.776 -31.147  1.00  0.00     0.208 S 
HETATM   23  C9  UNL     1      24.879  59.891 -29.078  1.00  0.00     0.137 C 
ATOM     24  H6  UNL     1      23.379  58.778 -30.224  1.00  0.00     0.161 HD
HETATM   25  C10 UNL     1      25.383  61.242 -29.539  1.00  0.00     0.168 C 
HETATM   26  O3  UNL     1      25.675  61.769 -32.189  1.00  0.00    -0.220 OA
HETATM   27  O4  UNL     1      27.508  60.520 -31.068  1.00  0.00    -0.220 OA
ENDBRANCH   1  16
TORSDOF 6
ENDMDL
MODEL 4
REMARK VINA RESULT: -6.821368824      3.497      6.702
REMARK  6 active torsions:
REMARK  status: ('A' for Active; 'I' for Inactive)
REMARK    1  A    between atoms: C2_2  and  C3_4 
REMARK    2  A    between atoms: C3_4  and  C4_5 
REMARK    3  A    between atoms: C4_5  and  N2_6 
REMARK    4  A    between atoms: C4_5  and  C6_11 
REMARK       I    between atoms: N2_6  and  C5_8 
REMARK    5  A    between atoms: C6_11  and  N4_12 
REMARK    6  A    between atoms: C6_11  and  C7_16 
REMARK       I    between atoms: C7_16  and  N5_18 
ROOT
HETATM    1  C6  UNL     1      24.408  58.425 -29.675  1.00  0.00     0.297 C 
ENDROOT
BRANCH   1   2
HETATM    2  C4  UNL     1      25.131  59.577 -29.023  1.00  0.00     0.130 C 
BRANCH   2   3
HETATM    3  C3  UNL     1      25.054  59.490 -27.533  1.00  0.00     0.081 C 
BRANCH   3   4
HETATM    4  C2  UNL     1      25.610  58.246 -26.995  1.00  0.00     0.017 C 
HETATM    5  C1  UNL     1      24.829  57.417 -26.331  1.00  0.00     0.035 C 
HETATM    6  N1  UNL     1      26.973  57.899 -27.167  1.00  0.00    -0.108 NA
ENDBRANCH   3   4
ENDBRANCH   2   3
BRANCH   2   7
HETATM    7  N2  UNL     1      26.504  59.611 -29.433  1.00  0.00    -0.338 N 
HETATM    8  C5  UNL     1      27.116  60.742 -30.024  1.00  0.00     0.329 C 
HETATM    9  N3  UNL     1      28.478  60.731 -30.414  1.00  0.00    -0.040 NA
HETATM   10  O1  UNL     1      26.424  61.776 -30.204  1.00  0.00    -0.251 OA
ATOM     11  H2  UNL     1      27.071  58.775 -29.291  1.00  0.00     0.164 HD
ENDBRANCH   2   7
ENDBRANCH   1   2
BRANCH   1  12
HETATM   12  N4  UNL     1      25.284  57.279 -29.792  1.00  0.00    -0.064 N 
ATOM     13  H43 UNL     1      25.972  57.402 -30.535  1.00  0.00     0.275 HD
ATOM     14  H42 UNL     1      25.923  57.208 -29.001  1.00  0.00     0.275 HD
ATOM     15  H41 UNL     1      24.739  56.425 -29.918  1.00  0.00     0.275 HD
ENDBRANCH   1  12
BRANCH   1  16
HETATM   16  C7  UNL     1      23.922  58.797 -31.024  1.00  0.00     0.256 C 
HETATM   17  O2  UNL     1      23.868  60.011 -31.333  1.00  0.00    -0.271 OA
HETATM   18  N5  UNL     1      23.511  57.849 -31.992  1.00  0.00    -0.302 N 
HETATM   19  C8  UNL     1      23.864  57.894 -33.226  1.00  0.00     0.201 C 
ATOM     20  H5  UNL     1      22.901  57.089 -31.692  1.00  0.00     0.171 HD
HETATM   21  N6  UNL     1      24.691  58.820 -33.919  1.00  0.00    -0.366 N 
HETATM   22  S1  UNL     1      23.381  56.740 -34.473  1.00  0.00     0.208 S 
HETATM   23  C9  UNL     1      25.391  58.191 -35.022  1.00  0.00     0.137 C 
ATOM     24  H6  UNL     1      24.781  59.805 -33.671  1.00  0.00     0.161 HD
HETATM   25  C10 UNL     1      24.375  57.405 -35.823  1.00  0.00     0.168 C 
HETATM   26  O3  UNL     1      21.929  56.853 -34.776  1.00  0.00    -0.220 OA
HETATM   27  O4  UNL     1      23.811  55.371 -34.113  1.00  0.00    -0.220 OA
ENDBRANCH   1  16
TORSDOF 6
ENDMDL
MODEL 5
REMARK VINA RESULT: -6.735923540      3.412      6.829
REMARK  6 active torsions:
REMARK  status: ('A' for Active; 'I' for Inactive)
REMARK    1  A    between atoms: C2_2  and  C3_4 
REMARK    2  A    between atoms: C3_4  and  C4_5 
REMARK    3  A    between atoms: C4_5  and  N2_6 
REMARK    4  A    between atoms: C4_5  and  C6_11 
REMARK       I    between atoms: N2_6  and  C5_8 
REMARK    5  A    between atoms: C6_11  and  N4_12 
REMARK    6  A    between atoms: C6_11  and  C7_16 
REMARK       I    between atoms: C7_16  and  N5_18 
ROOT
HETATM    1  C6  UNL     1      25.972  61.512 -31.831  1.00  0.00     0.297 C 
ENDROOT
BRANCH   1   2
HETATM    2  C4  UNL     1      25.862  61.114 -30.380  1.00  0.00     0.130 C 
BRANCH   2   3
HETATM    3  C3  UNL     1      24.684  60.225 -30.150  1.00  0.00     0.081 C 
BRANCH   3   4
HETATM    4  C2  UNL     1      24.737  59.511 -28.872  1.00  0.00     0.017 C 
HETATM    5  C1  UNL     1      24.587  58.201 -28.849  1.00  0.00     0.035 C 
HETATM    6  N1  UNL     1      24.947  60.189 -27.645  1.00  0.00    -0.108 NA
ENDBRANCH   3   4
ENDBRANCH   2   3
BRANCH   2   7
HETATM    7  N2  UNL     1      27.056  60.454 -29.944  1.00  0.00    -0.338 N 
HETATM    8  C5  UNL     1      28.126  61.118 -29.296  1.00  0.00     0.329 C 
HETATM    9  N3  UNL     1      29.288  60.423 -28.881  1.00  0.00    -0.040 NA
HETATM   10  O1  UNL     1      28.031  62.354 -29.091  1.00  0.00    -0.251 OA
ATOM     11  H2  UNL     1      27.141  59.451 -30.108  1.00  0.00     0.164 HD
ENDBRANCH   2   7
ENDBRANCH   1   2
BRANCH   1  12
HETATM   12  N4  UNL     1      24.782  62.216 -32.255  1.00  0.00    -0.064 N 
ATOM     13  H43 UNL     1      24.060  62.210 -31.535  1.00  0.00     0.275 HD
ATOM     14  H42 UNL     1      24.936  63.223 -32.307  1.00  0.00     0.275 HD
ATOM     15  H41 UNL     1      24.439  61.839 -33.139  1.00  0.00     0.275 HD
ENDBRANCH   1  12
BRANCH   1  16
HETATM   16  C7  UNL     1      26.160  60.323 -32.695  1.00  0.00     0.256 C 
HETATM   17  O2  UNL     1      27.294  59.790 -32.751  1.00  0.00    -0.271 OA
HETATM   18  N5  UNL     1      25.122  59.753 -33.470  1.00  0.00    -0.302 N 
HETATM   19  C8  UNL     1      24.892  58.491 -33.532  1.00  0.00     0.201 C 
ATOM     20  H5  UNL     1      24.524  60.379 -34.009  1.00  0.00     0.171 HD
HETATM   21  N6  UNL     1      25.549  57.398 -32.902  1.00  0.00    -0.366 N 
HETATM   22  S1  UNL     1      23.613  57.727 -34.480  1.00  0.00     0.208 S 
HETATM   23  C9  UNL     1      24.638  56.300 -32.647  1.00  0.00     0.137 C 
ATOM     24  H6  UNL     1      26.540  57.388 -32.659  1.00  0.00     0.161 HD
HETATM   25  C10 UNL     1      23.874  56.031 -33.926  1.00  0.00     0.168 C 
HETATM   26  O3  UNL     1      23.876  57.856 -35.939  1.00  0.00    -0.220 OA
HETATM   27  O4  UNL     1      22.284  58.229 -34.067  1.00  0.00    -0.220 OA
ENDBRANCH   1  16
TORSDOF 6
ENDMDL
