MODEL 1
REMARK VINA RESULT: -6.967730059      0.000      0.000
REMARK  2 active torsions:
REMARK  status: ('A' for Active; 'I' for Inactive)
REMARK    1  A    between atoms: C7_10  and  C8_11 
REMARK    2  A    between atoms: C10_13  and  C11_14 
ROOT
HETATM    1  C8  UNL     1     -36.420   7.493  21.274  1.00  0.00     0.063 A 
HETATM    2  C9  UNL     1     -36.549   8.331  20.186  1.00  0.00     0.066 A 
HETATM    3  C10 UNL     1     -36.888   9.583  20.608  1.00  0.00     0.094 A 
HETATM    4  N3  UNL     1     -36.966   9.513  21.949  1.00  0.00    -0.297 N 
ATOM      5  H3  UNL     1     -37.202  10.291  22.565  1.00  0.00     0.187 HD
HETATM    6  N4  UNL     1     -36.693   8.293  22.344  1.00  0.00    -0.299 N 
ATOM      7  H4  UNL     1     -36.686   7.985  23.316  1.00  0.00     0.187 HD
ENDROOT
BRANCH   3   8
HETATM    8  C11 UNL     1     -37.131  10.796  19.816  1.00  0.00     0.135 A 
HETATM    9  N1  UNL     1     -37.381  10.852  18.497  1.00  0.00    -0.339 N 
HETATM   10  C12 UNL     1     -37.557  12.125  18.097  1.00  0.00     0.061 A 
ATOM     11  H1  UNL     1     -37.430  10.039  17.881  1.00  0.00     0.167 HD
HETATM   12  C13 UNL     1     -37.829  12.740  16.889  1.00  0.00     0.032 A 
HETATM   13  C18 UNL     1     -37.409  12.912  19.231  1.00  0.00     0.066 A 
HETATM   14  C14 UNL     1     -37.966  14.096  16.738  1.00  0.00     0.003 A 
HETATM   15  C15 UNL     1     -37.817  14.884  17.880  1.00  0.00     0.009 A 
HETATM   16  C16 UNL     1     -37.545  14.277  19.088  1.00  0.00    -0.033 A 
HETATM   17  C17 UNL     1     -37.393  15.145  20.280  1.00  0.00     0.050 C 
HETATM   18  N2  UNL     1     -37.154  12.071  20.244  1.00  0.00    -0.338 N 
ATOM     19  H2  UNL     1     -36.999  12.360  21.210  1.00  0.00     0.167 HD
ENDBRANCH   3   8
BRANCH   1  20
HETATM   20  C7  UNL     1     -36.073   6.073  21.308  1.00  0.00     0.023 A 
HETATM   21  C2  UNL     1     -34.854   5.623  21.785  1.00  0.00    -0.030 A 
HETATM   22  C1  UNL     1     -33.897   6.632  22.268  1.00  0.00     0.050 C 
HETATM   23  C3  UNL     1     -34.551   4.266  21.804  1.00  0.00     0.019 A 
HETATM   24 BR1  UNL     1     -32.839   3.694  22.480  1.00  0.00    -0.050 Br
HETATM   25  C4  UNL     1     -35.452   3.326  21.350  1.00  0.00     0.045 A 
HETATM   26  C5  UNL     1     -36.666   3.781  20.875  1.00  0.00     0.058 A 
HETATM   27 CL1  UNL     1     -37.833   2.645  20.294  1.00  0.00    -0.082 Cl
HETATM   28  C6  UNL     1     -36.971   5.129  20.854  1.00  0.00     0.069 A 
HETATM   29 CL2  UNL     1     -38.522   5.717  20.249  1.00  0.00    -0.082 Cl
ENDBRANCH   1  20
TORSDOF 2
ENDMDL
MODEL 2
REMARK VINA RESULT: -6.914856973      1.932      2.339
REMARK  2 active torsions:
REMARK  status: ('A' for Active; 'I' for Inactive)
REMARK    1  A    between atoms: C7_10  and  C8_11 
REMARK    2  A    between atoms: C10_13  and  C11_14 
ROOT
HETATM    1  C8  UNL     1     -36.379   7.487  21.341  1.00  0.00     0.063 A 
HETATM    2  C9  UNL     1     -36.504   8.312  20.242  1.00  0.00     0.066 A 
HETATM    3  C10 UNL     1     -36.871   9.562  20.647  1.00  0.00     0.094 A 
HETATM    4  N3  UNL     1     -36.972   9.503  21.986  1.00  0.00    -0.297 N 
ATOM      5  H3  UNL     1     -37.231  10.283  22.591  1.00  0.00     0.187 HD
HETATM    6  N4  UNL     1     -36.684   8.291  22.398  1.00  0.00    -0.299 N 
ATOM      7  H4  UNL     1     -36.689   7.993  23.373  1.00  0.00     0.187 HD
ENDROOT
BRANCH   3   8
HETATM    8  C11 UNL     1     -37.122  10.763  19.838  1.00  0.00     0.135 A 
HETATM    9  N1  UNL     1     -37.388  10.798  18.521  1.00  0.00    -0.339 N 
HETATM   10  C12 UNL     1     -37.567  12.065  18.104  1.00  0.00     0.061 A 
ATOM     11  H1  UNL     1     -37.447   9.976  17.920  1.00  0.00     0.167 HD
HETATM   12  C13 UNL     1     -37.853  12.661  16.890  1.00  0.00     0.032 A 
HETATM   13  C18 UNL     1     -37.402  12.870  19.224  1.00  0.00     0.066 A 
HETATM   14  C14 UNL     1     -37.989  14.015  16.719  1.00  0.00     0.003 A 
HETATM   15  C15 UNL     1     -37.824  14.821  17.847  1.00  0.00     0.009 A 
HETATM   16  C16 UNL     1     -37.537  14.233  19.061  1.00  0.00    -0.033 A 
HETATM   17  C17 UNL     1     -37.369  15.119  20.237  1.00  0.00     0.050 C 
HETATM   18  N2  UNL     1     -37.137  12.044  20.247  1.00  0.00    -0.338 N 
ATOM     19  H2  UNL     1     -36.969  12.348  21.206  1.00  0.00     0.167 HD
ENDBRANCH   3   8
BRANCH   1  20
HETATM   20  C7  UNL     1     -36.007   6.073  21.395  1.00  0.00     0.023 A 
HETATM   21  C2  UNL     1     -36.858   5.070  20.966  1.00  0.00    -0.030 A 
HETATM   22  C1  UNL     1     -38.174   5.472  20.442  1.00  0.00     0.050 C 
HETATM   23  C3  UNL     1     -36.477   3.734  21.029  1.00  0.00     0.019 A 
HETATM   24 BR1  UNL     1     -37.702   2.378  20.417  1.00  0.00    -0.050 Br
HETATM   25  C4  UNL     1     -35.243   3.365  21.521  1.00  0.00     0.045 A 
HETATM   26  C5  UNL     1     -34.399   4.370  21.948  1.00  0.00     0.058 A 
HETATM   27 CL1  UNL     1     -32.838   3.963  22.573  1.00  0.00    -0.082 Cl
HETATM   28  C6  UNL     1     -34.773   5.700  21.886  1.00  0.00     0.069 A 
HETATM   29 CL2  UNL     1     -33.697   6.989  22.431  1.00  0.00    -0.082 Cl
ENDBRANCH   1  20
TORSDOF 2
ENDMDL
MODEL 3
REMARK VINA RESULT: -5.925841054      1.807      1.917
REMARK  2 active torsions:
REMARK  status: ('A' for Active; 'I' for Inactive)
REMARK    1  A    between atoms: C7_10  and  C8_11 
REMARK    2  A    between atoms: C10_13  and  C11_14 
ROOT
HETATM    1  C8  UNL     1     -37.122   7.069  20.792  1.00  0.00     0.063 A 
HETATM    2  C9  UNL     1     -36.669   8.331  20.468  1.00  0.00     0.066 A 
HETATM    3  C10 UNL     1     -37.654   9.020  19.822  1.00  0.00     0.094 A 
HETATM    4  N3  UNL     1     -38.705   8.184  19.750  1.00  0.00    -0.297 N 
ATOM      5  H3  UNL     1     -39.603   8.405  19.321  1.00  0.00     0.187 HD
HETATM    6  N4  UNL     1     -38.399   7.041  20.316  1.00  0.00    -0.299 N 
ATOM      7  H4  UNL     1     -39.029   6.242  20.389  1.00  0.00     0.187 HD
ENDROOT
BRANCH   3   8
HETATM    8  C11 UNL     1     -37.634  10.390  19.291  1.00  0.00     0.135 A 
HETATM    9  N1  UNL     1     -37.744  10.747  18.000  1.00  0.00    -0.339 N 
HETATM   10  C12 UNL     1     -37.687  12.086  17.869  1.00  0.00     0.061 A 
ATOM     11  H1  UNL     1     -37.856  10.093  17.225  1.00  0.00     0.167 HD
HETATM   12  C13 UNL     1     -37.746  12.965  16.804  1.00  0.00     0.032 A 
HETATM   13  C18 UNL     1     -37.531  12.595  19.151  1.00  0.00     0.066 A 
HETATM   14  C14 UNL     1     -37.661  14.327  16.935  1.00  0.00     0.003 A 
HETATM   15  C15 UNL     1     -37.506  14.837  18.225  1.00  0.00     0.009 A 
HETATM   16  C16 UNL     1     -37.445  13.965  19.292  1.00  0.00    -0.033 A 
HETATM   17  C17 UNL     1     -37.279  14.541  20.648  1.00  0.00     0.050 C 
HETATM   18  N2  UNL     1     -37.505  11.539  19.977  1.00  0.00    -0.338 N 
ATOM     19  H2  UNL     1     -37.402  11.600  20.990  1.00  0.00     0.167 HD
ENDBRANCH   3   8
BRANCH   1  20
HETATM   20  C7  UNL     1     -36.421   5.988  21.483  1.00  0.00     0.023 A 
HETATM   21  C2  UNL     1     -35.403   5.266  20.884  1.00  0.00    -0.030 A 
HETATM   22  C1  UNL     1     -35.036   5.625  19.504  1.00  0.00     0.050 C 
HETATM   23  C3  UNL     1     -34.754   4.244  21.567  1.00  0.00     0.019 A 
HETATM   24 BR1  UNL     1     -33.342   3.272  20.684  1.00  0.00    -0.050 Br
HETATM   25  C4  UNL     1     -35.103   3.913  22.859  1.00  0.00     0.045 A 
HETATM   26  C5  UNL     1     -36.119   4.635  23.452  1.00  0.00     0.058 A 
HETATM   27 CL1  UNL     1     -36.596   4.263  25.072  1.00  0.00    -0.082 Cl
HETATM   28  C6  UNL     1     -36.766   5.654  22.776  1.00  0.00     0.069 A 
HETATM   29 CL2  UNL     1     -38.067   6.581  23.529  1.00  0.00    -0.082 Cl
ENDBRANCH   1  20
TORSDOF 2
ENDMDL
MODEL 4
REMARK VINA RESULT: -5.665865562      1.086      1.268
REMARK  2 active torsions:
REMARK  status: ('A' for Active; 'I' for Inactive)
REMARK    1  A    between atoms: C7_10  and  C8_11 
REMARK    2  A    between atoms: C10_13  and  C11_14 
ROOT
HETATM    1  C8  UNL     1     -36.171   6.538  21.557  1.00  0.00     0.063 A 
HETATM    2  C9  UNL     1     -36.453   7.329  20.463  1.00  0.00     0.066 A 
HETATM    3  C10 UNL     1     -36.860   8.562  20.880  1.00  0.00     0.094 A 
HETATM    4  N3  UNL     1     -36.829   8.527  22.224  1.00  0.00    -0.297 N 
ATOM      5  H3  UNL     1     -37.080   9.302  22.838  1.00  0.00     0.187 HD
HETATM    6  N4  UNL     1     -36.426   7.345  22.625  1.00  0.00    -0.299 N 
ATOM      7  H4  UNL     1     -36.318   7.069  23.601  1.00  0.00     0.187 HD
ENDROOT
BRANCH   3   8
HETATM    8  C11 UNL     1     -37.264   9.726  20.081  1.00  0.00     0.135 A 
HETATM    9  N1  UNL     1     -38.259   9.770  19.179  1.00  0.00    -0.339 N 
HETATM   10  C12 UNL     1     -38.355  10.996  18.632  1.00  0.00     0.061 A 
ATOM     11  H1  UNL     1     -38.861   8.981  18.941  1.00  0.00     0.167 HD
HETATM   12  C13 UNL     1     -39.173  11.580  17.682  1.00  0.00     0.032 A 
HETATM   13  C18 UNL     1     -37.362  11.764  19.224  1.00  0.00     0.066 A 
HETATM   14  C14 UNL     1     -39.065  12.887  17.285  1.00  0.00     0.003 A 
HETATM   15  C15 UNL     1     -38.067  13.658  17.883  1.00  0.00     0.009 A 
HETATM   16  C16 UNL     1     -37.247  13.081  18.830  1.00  0.00    -0.033 A 
HETATM   17  C17 UNL     1     -36.197  13.928  19.445  1.00  0.00     0.050 C 
HETATM   18  N2  UNL     1     -36.729  10.961  20.092  1.00  0.00    -0.338 N 
ATOM     19  H2  UNL     1     -35.948  11.247  20.681  1.00  0.00     0.167 HD
ENDBRANCH   3   8
BRANCH   1  20
HETATM   20  C7  UNL     1     -35.705   5.152  21.598  1.00  0.00     0.023 A 
HETATM   21  C2  UNL     1     -34.387   4.824  21.865  1.00  0.00    -0.030 A 
HETATM   22  C1  UNL     1     -33.447   5.930  22.114  1.00  0.00     0.050 C 
HETATM   23  C3  UNL     1     -33.973   3.497  21.896  1.00  0.00     0.019 A 
HETATM   24 BR1  UNL     1     -32.126   3.097  22.274  1.00  0.00    -0.050 Br
HETATM   25  C4  UNL     1     -34.859   2.466  21.662  1.00  0.00     0.045 A 
HETATM   26  C5  UNL     1     -36.172   2.799  21.395  1.00  0.00     0.058 A 
HETATM   27 CL1  UNL     1     -37.325   1.546  21.095  1.00  0.00    -0.082 Cl
HETATM   28  C6  UNL     1     -36.587   4.118  21.364  1.00  0.00     0.069 A 
HETATM   29 CL2  UNL     1     -38.265   4.550  21.024  1.00  0.00    -0.082 Cl
ENDBRANCH   1  20
TORSDOF 2
ENDMDL
MODEL 5
REMARK VINA RESULT: -5.154924981      2.106      2.896
REMARK  2 active torsions:
REMARK  status: ('A' for Active; 'I' for Inactive)
REMARK    1  A    between atoms: C7_10  and  C8_11 
REMARK    2  A    between atoms: C10_13  and  C11_14 
ROOT
HETATM    1  C8  UNL     1     -37.296   7.362  20.462  1.00  0.00     0.063 A 
HETATM    2  C9  UNL     1     -36.765   8.607  20.196  1.00  0.00     0.066 A 
HETATM    3  C10 UNL     1     -37.729   9.413  19.666  1.00  0.00     0.094 A 
HETATM    4  N3  UNL     1     -38.846   8.666  19.608  1.00  0.00    -0.297 N 
ATOM      5  H3  UNL     1     -39.749   8.985  19.256  1.00  0.00     0.187 HD
HETATM    6  N4  UNL     1     -38.598   7.465  20.072  1.00  0.00    -0.299 N 
ATOM      7  H4  UNL     1     -39.284   6.713  20.133  1.00  0.00     0.187 HD
ENDROOT
BRANCH   3   8
HETATM    8  C11 UNL     1     -37.633  10.813  19.230  1.00  0.00     0.135 A 
HETATM    9  N1  UNL     1     -37.303  11.867  19.995  1.00  0.00    -0.339 N 
HETATM   10  C12 UNL     1     -37.311  13.003  19.272  1.00  0.00     0.061 A 
ATOM     11  H1  UNL     1     -37.077  11.814  20.988  1.00  0.00     0.167 HD
HETATM   12  C13 UNL     1     -37.058  14.334  19.544  1.00  0.00     0.032 A 
HETATM   13  C18 UNL     1     -37.667  12.639  17.980  1.00  0.00     0.066 A 
HETATM   14  C14 UNL     1     -37.136  15.332  18.607  1.00  0.00     0.003 A 
HETATM   15  C15 UNL     1     -37.492  14.963  17.309  1.00  0.00     0.009 A 
HETATM   16  C16 UNL     1     -37.747  13.636  17.031  1.00  0.00    -0.033 A 
HETATM   17  C17 UNL     1     -38.123  13.280  15.642  1.00  0.00     0.050 C 
HETATM   18  N2  UNL     1     -37.850  11.311  17.999  1.00  0.00    -0.338 N 
ATOM     19  H2  UNL     1     -38.119  10.752  17.188  1.00  0.00     0.167 HD
ENDBRANCH   3   8
BRANCH   1  20
HETATM   20  C7  UNL     1     -36.642   6.183  21.030  1.00  0.00     0.023 A 
HETATM   21  C2  UNL     1     -36.867   4.908  20.542  1.00  0.00    -0.030 A 
HETATM   22  C1  UNL     1     -37.800   4.766  19.411  1.00  0.00     0.050 C 
HETATM   23  C3  UNL     1     -36.230   3.806  21.102  1.00  0.00     0.019 A 
HETATM   24 BR1  UNL     1     -36.579   2.052  20.382  1.00  0.00    -0.050 Br
HETATM   25  C4  UNL     1     -35.358   3.946  22.161  1.00  0.00     0.045 A 
HETATM   26  C5  UNL     1     -35.138   5.220  22.644  1.00  0.00     0.058 A 
HETATM   27 CL1  UNL     1     -34.052   5.453  23.970  1.00  0.00    -0.082 Cl
HETATM   28  C6  UNL     1     -35.769   6.319  22.089  1.00  0.00     0.069 A 
HETATM   29 CL2  UNL     1     -35.491   7.951  22.703  1.00  0.00    -0.082 Cl
ENDBRANCH   1  20
TORSDOF 2
ENDMDL
