MODEL 1
REMARK VINA RESULT: -5.133551467      0.000      0.000
REMARK  9 active torsions:
REMARK  status: ('A' for Active; 'I' for Inactive)
REMARK    1  A    between atoms: C3_4  and  N2_5 
REMARK    2  A    between atoms: N2_5  and  C4_6 
REMARK    3  A    between atoms: N2_5  and  C6_10 
REMARK    4  A    between atoms: C4_6  and  C5_7 
REMARK    5  A    between atoms: C5_7  and  O1_8 
REMARK    6  A    between atoms: C6_10  and  C7_11 
REMARK    7  A    between atoms: C7_11  and  N3_12 
REMARK    8  A    between atoms: N3_12  and  C8_14 
REMARK    9  A    between atoms: C11_26  and  N8_27 
ROOT
HETATM    1  N1  UNL     1      45.965  14.520  16.601  1.00  0.00    -0.191 NA
HETATM    2  C1  UNL     1      46.064  15.599  16.199  1.00  0.00     0.109 C 
HETATM    3  C2  UNL     1      46.176  16.925  15.702  1.00  0.00     0.157 A 
HETATM    4  C3  UNL     1      45.188  17.822  15.895  1.00  0.00     0.145 A 
HETATM    5  N7  UNL     1      45.348  19.091  15.419  1.00  0.00    -0.175 N 
ATOM      6  H7  UNL     1      44.611  19.781  15.558  1.00  0.00     0.186 HD
HETATM    7  C11 UNL     1      46.473  19.436  14.769  1.00  0.00     0.680 A 
HETATM    8  N9  UNL     1      47.456  18.535  14.579  1.00  0.00    -0.155 N 
ATOM      9  H9  UNL     1      48.301  18.817  14.082  1.00  0.00     0.187 HD
HETATM   10  C12 UNL     1      47.350  17.282  15.024  1.00  0.00     0.284 A 
HETATM   11  O3  UNL     1      48.236  16.438  14.861  1.00  0.00    -0.266 OA
ENDROOT
BRANCH   4  12
HETATM   12  N2  UNL     1      43.978  17.518  16.555  1.00  0.00    -0.362 N 
BRANCH  12  13
HETATM   13  C4  UNL     1      43.802  17.946  17.913  1.00  0.00     0.150 C 
BRANCH  13  14
HETATM   14  C5  UNL     1      44.562  17.268  18.970  1.00  0.00     0.183 C 
BRANCH  14  15
HETATM   15  O1  UNL     1      44.455  15.917  19.109  1.00  0.00    -0.399 OA
ATOM     16  H1  UNL     1      44.169  15.555  19.940  1.00  0.00     0.209 HD
ENDBRANCH  14  15
ENDBRANCH  13  14
ENDBRANCH  12  13
BRANCH  12  17
HETATM   17  C6  UNL     1      43.022  16.775  15.799  1.00  0.00     0.144 C 
BRANCH  17  18
HETATM   18  C7  UNL     1      42.115  15.897  16.613  1.00  0.00     0.141 C 
BRANCH  18  19
HETATM   19  N3  UNL     1      42.662  14.606  16.913  1.00  0.00    -0.373 N 
ATOM     20  H3  UNL     1      43.672  14.483  16.844  1.00  0.00     0.161 HD
BRANCH  19  21
HETATM   21  C8  UNL     1      41.961  13.611  17.258  1.00  0.00     0.122 A 
HETATM   22  C9  UNL     1      40.668  13.882  17.723  1.00  0.00     0.155 A 
HETATM   23  N4  UNL     1      39.914  12.852  18.089  1.00  0.00    -0.304 N 
HETATM   24  N5  UNL     1      40.339  11.592  18.030  1.00  0.00    -0.252 N 
ATOM     25  H4  UNL     1      38.970  13.034  18.430  1.00  0.00     0.186 HD
HETATM   26  C10 UNL     1      41.580  11.330  17.583  1.00  0.00     0.340 A 
ATOM     27  H5  UNL     1      39.727  10.830  18.322  1.00  0.00     0.191 HD
HETATM   28  O2  UNL     1      42.034  10.146  17.506  1.00  0.00    -0.245 OA
HETATM   29  N6  UNL     1      42.388  12.344  17.199  1.00  0.00    -0.292 N 
ATOM     30  H6  UNL     1      43.329  12.141  16.861  1.00  0.00     0.172 HD
ENDBRANCH  19  21
ENDBRANCH  18  19
ENDBRANCH  17  18
ENDBRANCH  12  17
ENDBRANCH   4  12
BRANCH   7  31
HETATM   31  N8  UNL     1      46.603  20.661  14.328  1.00  0.00    -0.234 N 
ATOM     32  H82 UNL     1      46.946  21.398  14.945  1.00  0.00     0.174 HD
ATOM     33  H81 UNL     1      46.353  20.870  13.362  1.00  0.00     0.174 HD
ENDBRANCH   7  31
TORSDOF 9
ENDMDL
MODEL 2
REMARK VINA RESULT: -5.041802693      1.355      1.755
REMARK  9 active torsions:
REMARK  status: ('A' for Active; 'I' for Inactive)
REMARK    1  A    between atoms: C3_4  and  N2_5 
REMARK    2  A    between atoms: N2_5  and  C4_6 
REMARK    3  A    between atoms: N2_5  and  C6_10 
REMARK    4  A    between atoms: C4_6  and  C5_7 
REMARK    5  A    between atoms: C5_7  and  O1_8 
REMARK    6  A    between atoms: C6_10  and  C7_11 
REMARK    7  A    between atoms: C7_11  and  N3_12 
REMARK    8  A    between atoms: N3_12  and  C8_14 
REMARK    9  A    between atoms: C11_26  and  N8_27 
ROOT
HETATM    1  N1  UNL     1      45.964  14.913  15.942  1.00  0.00    -0.191 NA
HETATM    2  C1  UNL     1      45.848  16.059  15.837  1.00  0.00     0.109 C 
HETATM    3  C2  UNL     1      45.694  17.464  15.707  1.00  0.00     0.157 A 
HETATM    4  C3  UNL     1      44.610  18.091  16.206  1.00  0.00     0.145 A 
HETATM    5  N7  UNL     1      44.515  19.446  16.076  1.00  0.00    -0.175 N 
ATOM      6  H7  UNL     1      43.701  19.936  16.449  1.00  0.00     0.186 HD
HETATM    7  C11 UNL     1      45.488  20.140  15.460  1.00  0.00     0.680 A 
HETATM    8  N9  UNL     1      46.568  19.508  14.963  1.00  0.00    -0.155 N 
ATOM      9  H9  UNL     1      47.295  20.053  14.499  1.00  0.00     0.187 HD
HETATM   10  C12 UNL     1      46.710  18.185  15.063  1.00  0.00     0.284 A 
HETATM   11  O3  UNL     1      47.690  17.583  14.615  1.00  0.00    -0.266 OA
ENDROOT
BRANCH   4  12
HETATM   12  N2  UNL     1      43.548  17.419  16.848  1.00  0.00    -0.362 N 
BRANCH  12  13
HETATM   13  C4  UNL     1      42.255  17.410  16.225  1.00  0.00     0.150 C 
BRANCH  13  14
HETATM   14  C5  UNL     1      42.029  16.519  15.081  1.00  0.00     0.183 C 
BRANCH  14  15
HETATM   15  O1  UNL     1      42.786  15.394  14.951  1.00  0.00    -0.399 OA
ATOM     16  H1  UNL     1      42.876  14.804  15.691  1.00  0.00     0.209 HD
ENDBRANCH  14  15
ENDBRANCH  13  14
ENDBRANCH  12  13
BRANCH  12  17
HETATM   17  C6  UNL     1      43.857  16.813  18.103  1.00  0.00     0.144 C 
BRANCH  17  18
HETATM   18  C7  UNL     1      42.933  15.704  18.516  1.00  0.00     0.141 C 
BRANCH  18  19
HETATM   19  N3  UNL     1      43.159  14.465  17.830  1.00  0.00    -0.373 N 
ATOM     20  H3  UNL     1      44.046  14.340  17.343  1.00  0.00     0.161 HD
BRANCH  19  21
HETATM   21  C8  UNL     1      42.319  13.521  17.794  1.00  0.00     0.122 A 
HETATM   22  C9  UNL     1      40.969  13.873  17.923  1.00  0.00     0.155 A 
HETATM   23  N4  UNL     1      40.069  12.898  17.886  1.00  0.00    -0.304 N 
HETATM   24  N5  UNL     1      40.401  11.618  17.733  1.00  0.00    -0.252 N 
ATOM     25  H4  UNL     1      39.083  13.139  17.980  1.00  0.00     0.186 HD
HETATM   26  C10 UNL     1      41.696  11.278  17.607  1.00  0.00     0.340 A 
ATOM     27  H5  UNL     1      39.677  10.899  17.710  1.00  0.00     0.191 HD
HETATM   28  O2  UNL     1      42.066  10.072  17.458  1.00  0.00    -0.245 OA
HETATM   29  N6  UNL     1      42.651  12.234  17.639  1.00  0.00    -0.292 N 
ATOM     30  H6  UNL     1      43.633  11.972  17.545  1.00  0.00     0.172 HD
ENDBRANCH  19  21
ENDBRANCH  18  19
ENDBRANCH  17  18
ENDBRANCH  12  17
ENDBRANCH   4  12
BRANCH   7  31
HETATM   31  N8  UNL     1      45.374  21.439  15.356  1.00  0.00    -0.234 N 
ATOM     32  H82 UNL     1      45.262  22.018  16.189  1.00  0.00     0.174 HD
ATOM     33  H81 UNL     1      45.395  21.866  14.429  1.00  0.00     0.174 HD
ENDBRANCH   7  31
TORSDOF 9
ENDMDL
MODEL 3
REMARK VINA RESULT: -5.025404821      1.837      2.325
REMARK  9 active torsions:
REMARK  status: ('A' for Active; 'I' for Inactive)
REMARK    1  A    between atoms: C3_4  and  N2_5 
REMARK    2  A    between atoms: N2_5  and  C4_6 
REMARK    3  A    between atoms: N2_5  and  C6_10 
REMARK    4  A    between atoms: C4_6  and  C5_7 
REMARK    5  A    between atoms: C5_7  and  O1_8 
REMARK    6  A    between atoms: C6_10  and  C7_11 
REMARK    7  A    between atoms: C7_11  and  N3_12 
REMARK    8  A    between atoms: N3_12  and  C8_14 
REMARK    9  A    between atoms: C11_26  and  N8_27 
ROOT
HETATM    1  N1  UNL     1      45.952  15.488  15.749  1.00  0.00    -0.191 NA
HETATM    2  C1  UNL     1      45.655  16.605  15.705  1.00  0.00     0.109 C 
HETATM    3  C2  UNL     1      45.280  17.973  15.651  1.00  0.00     0.157 A 
HETATM    4  C3  UNL     1      44.143  18.403  16.234  1.00  0.00     0.145 A 
HETATM    5  N7  UNL     1      43.834  19.731  16.175  1.00  0.00    -0.175 N 
ATOM      6  H7  UNL     1      42.978  20.073  16.612  1.00  0.00     0.186 HD
HETATM    7  C11 UNL     1      44.651  20.592  15.544  1.00  0.00     0.680 A 
HETATM    8  N9  UNL     1      45.785  20.156  14.962  1.00  0.00    -0.155 N 
ATOM      9  H9  UNL     1      46.391  20.825  14.488  1.00  0.00     0.187 HD
HETATM   10  C12 UNL     1      46.134  18.869  14.991  1.00  0.00     0.284 A 
HETATM   11  O3  UNL     1      47.167  18.445  14.465  1.00  0.00    -0.266 OA
ENDROOT
BRANCH   4  12
HETATM   12  N2  UNL     1      43.236  17.549  16.897  1.00  0.00    -0.362 N 
BRANCH  12  13
HETATM   13  C4  UNL     1      41.974  17.263  16.278  1.00  0.00     0.150 C 
BRANCH  13  14
HETATM   14  C5  UNL     1      41.950  16.400  15.090  1.00  0.00     0.183 C 
BRANCH  14  15
HETATM   15  O1  UNL     1      42.754  15.301  15.046  1.00  0.00    -0.399 OA
ATOM     16  H1  UNL     1      42.427  14.499  14.655  1.00  0.00     0.209 HD
ENDBRANCH  14  15
ENDBRANCH  13  14
ENDBRANCH  12  13
BRANCH  12  17
HETATM   17  C6  UNL     1      43.657  17.053  18.168  1.00  0.00     0.144 C 
BRANCH  17  18
HETATM   18  C7  UNL     1      43.153  15.681  18.511  1.00  0.00     0.141 C 
BRANCH  18  19
HETATM   19  N3  UNL     1      43.894  14.614  17.905  1.00  0.00    -0.373 N 
ATOM     20  H3  UNL     1      44.807  14.829  17.505  1.00  0.00     0.161 HD
BRANCH  19  21
HETATM   21  C8  UNL     1      43.479  13.421  17.838  1.00  0.00     0.122 A 
HETATM   22  C9  UNL     1      42.095  13.230  17.941  1.00  0.00     0.155 A 
HETATM   23  N4  UNL     1      41.636  11.986  17.871  1.00  0.00    -0.304 N 
HETATM   24  N5  UNL     1      42.433  10.933  17.709  1.00  0.00    -0.252 N 
ATOM     25  H4  UNL     1      40.631  11.830  17.945  1.00  0.00     0.186 HD
HETATM   26  C10 UNL     1      43.762  11.114  17.610  1.00  0.00     0.340 A 
ATOM     27  H5  UNL     1      42.039   9.993  17.662  1.00  0.00     0.191 HD
HETATM   28  O2  UNL     1      44.566  10.144  17.454  1.00  0.00    -0.245 OA
HETATM   29  N6  UNL     1      44.280  12.362  17.675  1.00  0.00    -0.292 N 
ATOM     30  H6  UNL     1      45.288  12.496  17.600  1.00  0.00     0.172 HD
ENDBRANCH  19  21
ENDBRANCH  18  19
ENDBRANCH  17  18
ENDBRANCH  12  17
ENDBRANCH   4  12
BRANCH   7  31
HETATM   31  N8  UNL     1      44.333  21.861  15.507  1.00  0.00    -0.234 N 
ATOM     32  H82 UNL     1      43.377  22.160  15.698  1.00  0.00     0.174 HD
ATOM     33  H81 UNL     1      45.054  22.546  15.281  1.00  0.00     0.174 HD
ENDBRANCH   7  31
TORSDOF 9
ENDMDL
MODEL 4
REMARK VINA RESULT: -4.979029431      2.719      3.824
REMARK  9 active torsions:
REMARK  status: ('A' for Active; 'I' for Inactive)
REMARK    1  A    between atoms: C3_4  and  N2_5 
REMARK    2  A    between atoms: N2_5  and  C4_6 
REMARK    3  A    between atoms: N2_5  and  C6_10 
REMARK    4  A    between atoms: C4_6  and  C5_7 
REMARK    5  A    between atoms: C5_7  and  O1_8 
REMARK    6  A    between atoms: C6_10  and  C7_11 
REMARK    7  A    between atoms: C7_11  and  N3_12 
REMARK    8  A    between atoms: N3_12  and  C8_14 
REMARK    9  A    between atoms: C11_26  and  N8_27 
ROOT
HETATM    1  N1  UNL     1      40.056  20.001  17.259  1.00  0.00    -0.191 NA
HETATM    2  C1  UNL     1      41.110  19.965  16.786  1.00  0.00     0.109 C 
HETATM    3  C2  UNL     1      42.408  19.914  16.212  1.00  0.00     0.157 A 
HETATM    4  C3  UNL     1      43.120  18.769  16.212  1.00  0.00     0.145 A 
HETATM    5  N7  UNL     1      44.354  18.761  15.630  1.00  0.00    -0.175 N 
ATOM      6  H7  UNL     1      44.905  17.903  15.620  1.00  0.00     0.186 HD
HETATM    7  C11 UNL     1      44.848  19.878  15.068  1.00  0.00     0.680 A 
HETATM    8  N9  UNL     1      44.132  21.019  15.073  1.00  0.00    -0.155 N 
ATOM      9  H9  UNL     1      44.525  21.856  14.642  1.00  0.00     0.187 HD
HETATM   10  C12 UNL     1      42.921  21.081  15.627  1.00  0.00     0.284 A 
HETATM   11  O3  UNL     1      42.246  22.114  15.645  1.00  0.00    -0.266 OA
ENDROOT
BRANCH   4  12
HETATM   12  N2  UNL     1      42.665  17.568  16.798  1.00  0.00    -0.362 N 
BRANCH  12  13
HETATM   13  C4  UNL     1      41.754  16.739  16.063  1.00  0.00     0.150 C 
BRANCH  13  14
HETATM   14  C5  UNL     1      42.288  15.861  15.014  1.00  0.00     0.183 C 
BRANCH  14  15
HETATM   15  O1  UNL     1      43.617  15.565  15.004  1.00  0.00    -0.399 OA
ATOM     16  H1  UNL     1      43.894  14.660  15.095  1.00  0.00     0.209 HD
ENDBRANCH  14  15
ENDBRANCH  13  14
ENDBRANCH  12  13
BRANCH  12  17
HETATM   17  C6  UNL     1      43.147  17.292  18.113  1.00  0.00     0.144 C 
BRANCH  17  18
HETATM   18  C7  UNL     1      42.812  15.924  18.637  1.00  0.00     0.141 C 
BRANCH  18  19
HETATM   19  N3  UNL     1      43.641  14.877  18.116  1.00  0.00    -0.373 N 
ATOM     20  H3  UNL     1      44.607  15.101  17.879  1.00  0.00     0.161 HD
BRANCH  19  21
HETATM   21  C8  UNL     1      43.241  13.691  17.936  1.00  0.00     0.122 A 
HETATM   22  C9  UNL     1      41.856  13.488  17.930  1.00  0.00     0.155 A 
HETATM   23  N4  UNL     1      41.413  12.250  17.740  1.00  0.00    -0.304 N 
HETATM   24  N5  UNL     1      42.229  11.214  17.558  1.00  0.00    -0.252 N 
ATOM     25  H4  UNL     1      40.407  12.086  17.734  1.00  0.00     0.186 HD
HETATM   26  C10 UNL     1      43.560  11.407  17.563  1.00  0.00     0.340 A 
ATOM     27  H5  UNL     1      41.847  10.279  17.416  1.00  0.00     0.191 HD
HETATM   28  O2  UNL     1      44.381  10.454  17.393  1.00  0.00    -0.245 OA
HETATM   29  N6  UNL     1      44.061  12.649  17.753  1.00  0.00    -0.292 N 
ATOM     30  H6  UNL     1      45.071  12.792  17.757  1.00  0.00     0.172 HD
ENDBRANCH  19  21
ENDBRANCH  18  19
ENDBRANCH  17  18
ENDBRANCH  12  17
ENDBRANCH   4  12
BRANCH   7  31
HETATM   31  N8  UNL     1      46.031  19.841  14.512  1.00  0.00    -0.234 N 
ATOM     32  H82 UNL     1      46.487  18.947  14.324  1.00  0.00     0.174 HD
ATOM     33  H81 UNL     1      46.495  20.718  14.272  1.00  0.00     0.174 HD
ENDBRANCH   7  31
TORSDOF 9
ENDMDL
MODEL 5
REMARK VINA RESULT: -4.961812366      1.022      1.101
REMARK  9 active torsions:
REMARK  status: ('A' for Active; 'I' for Inactive)
REMARK    1  A    between atoms: C3_4  and  N2_5 
REMARK    2  A    between atoms: N2_5  and  C4_6 
REMARK    3  A    between atoms: N2_5  and  C6_10 
REMARK    4  A    between atoms: C4_6  and  C5_7 
REMARK    5  A    between atoms: C5_7  and  O1_8 
REMARK    6  A    between atoms: C6_10  and  C7_11 
REMARK    7  A    between atoms: C7_11  and  N3_12 
REMARK    8  A    between atoms: N3_12  and  C8_14 
REMARK    9  A    between atoms: C11_26  and  N8_27 
ROOT
HETATM    1  N1  UNL     1      45.973  14.515  16.633  1.00  0.00    -0.191 NA
HETATM    2  C1  UNL     1      46.073  15.590  16.218  1.00  0.00     0.109 C 
HETATM    3  C2  UNL     1      46.185  16.910  15.707  1.00  0.00     0.157 A 
HETATM    4  C3  UNL     1      45.208  17.816  15.910  1.00  0.00     0.145 A 
HETATM    5  N7  UNL     1      45.368  19.079  15.419  1.00  0.00    -0.175 N 
ATOM      6  H7  UNL     1      44.639  19.777  15.565  1.00  0.00     0.186 HD
HETATM    7  C11 UNL     1      46.483  19.409  14.744  1.00  0.00     0.680 A 
HETATM    8  N9  UNL     1      47.455  18.499  14.544  1.00  0.00    -0.155 N 
ATOM      9  H9  UNL     1      48.293  18.770  14.029  1.00  0.00     0.187 HD
HETATM   10  C12 UNL     1      47.349  17.251  15.003  1.00  0.00     0.284 A 
HETATM   11  O3  UNL     1      48.225  16.399  14.832  1.00  0.00    -0.266 OA
ENDROOT
BRANCH   4  12
HETATM   12  N2  UNL     1      44.008  17.528  16.595  1.00  0.00    -0.362 N 
BRANCH  12  13
HETATM   13  C4  UNL     1      43.877  17.935  17.965  1.00  0.00     0.150 C 
BRANCH  13  14
HETATM   14  C5  UNL     1      43.129  19.160  18.269  1.00  0.00     0.183 C 
BRANCH  14  15
HETATM   15  O1  UNL     1      43.181  20.208  17.400  1.00  0.00    -0.399 OA
ATOM     16  H1  UNL     1      42.552  20.915  17.483  1.00  0.00     0.209 HD
ENDBRANCH  14  15
ENDBRANCH  13  14
ENDBRANCH  12  13
BRANCH  12  17
HETATM   17  C6  UNL     1      43.016  16.820  15.852  1.00  0.00     0.144 C 
BRANCH  17  18
HETATM   18  C7  UNL     1      42.125  15.931  16.670  1.00  0.00     0.141 C 
BRANCH  18  19
HETATM   19  N3  UNL     1      42.660  14.622  16.908  1.00  0.00    -0.373 N 
ATOM     20  H3  UNL     1      43.664  14.485  16.794  1.00  0.00     0.161 HD
BRANCH  19  21
HETATM   21  C8  UNL     1      41.957  13.628  17.250  1.00  0.00     0.122 A 
HETATM   22  C9  UNL     1      40.663  13.902  17.713  1.00  0.00     0.155 A 
HETATM   23  N4  UNL     1      39.906  12.874  18.076  1.00  0.00    -0.304 N 
HETATM   24  N5  UNL     1      40.328  11.613  18.016  1.00  0.00    -0.252 N 
ATOM     25  H4  UNL     1      38.962  13.057  18.416  1.00  0.00     0.186 HD
HETATM   26  C10 UNL     1      41.569  11.348  17.571  1.00  0.00     0.340 A 
ATOM     27  H5  UNL     1      39.713  10.852  18.305  1.00  0.00     0.191 HD
HETATM   28  O2  UNL     1      42.019  10.163  17.493  1.00  0.00    -0.245 OA
HETATM   29  N6  UNL     1      42.380  12.360  17.190  1.00  0.00    -0.292 N 
ATOM     30  H6  UNL     1      43.321  12.156  16.854  1.00  0.00     0.172 HD
ENDBRANCH  19  21
ENDBRANCH  18  19
ENDBRANCH  17  18
ENDBRANCH  12  17
ENDBRANCH   4  12
BRANCH   7  31
HETATM   31  N8  UNL     1      46.614  20.629  14.290  1.00  0.00    -0.234 N 
ATOM     32  H82 UNL     1      46.262  21.422  14.827  1.00  0.00     0.174 HD
ATOM     33  H81 UNL     1      47.068  20.777  13.388  1.00  0.00     0.174 HD
ENDBRANCH   7  31
TORSDOF 9
ENDMDL
