MODEL 1
REMARK VINA RESULT: -7.920856077      0.000      0.000
REMARK  5 active torsions:
REMARK  status: ('A' for Active; 'I' for Inactive)
REMARK    1  A    between atoms: C2_4  and  N2_5 
REMARK    2  A    between atoms: C2_4  and  C4_12 
REMARK    3  A    between atoms: N2_5  and  N3_7 
REMARK    4  A    between atoms: C9_17  and  C10_18 
REMARK    5  A    between atoms: N6_19  and  N7_21 
ROOT
HETATM    1  C4  UNL     1      37.678   4.028 104.624  1.00  0.00     0.021 A 
HETATM    2  C5  UNL     1      37.550   3.663 105.975  1.00  0.00     0.016 A 
HETATM    3  C6  UNL     1      38.586   3.682 106.862  1.00  0.00     0.001 A 
HETATM    4  C7  UNL     1      39.805   4.081 106.392  1.00  0.00     0.001 A 
HETATM    5  C8  UNL     1      40.012   4.454 105.085  1.00  0.00     0.014 A 
HETATM    6  C9  UNL     1      38.937   4.426 104.200  1.00  0.00    -0.005 A 
ENDROOT
BRANCH   1   7
HETATM    7  C2  UNL     1      36.511   3.964 103.801  1.00  0.00     0.126 C 
HETATM    8  N1  UNL     1      35.931   2.960 103.298  1.00  0.00    -0.379 N 
HETATM    9  C1  UNL     1      34.760   2.949 102.478  1.00  0.00     0.147 C 
ATOM     10  H1  UNL     1      36.347   2.051 103.501  1.00  0.00     0.160 HD
BRANCH   7  11
HETATM   11  N2  UNL     1      35.865   5.212 103.470  1.00  0.00    -0.283 N 
ATOM     12  H2  UNL     1      35.947   5.607 102.533  1.00  0.00     0.188 HD
BRANCH  11  13
HETATM   13  N3  UNL     1      35.138   5.856 104.438  1.00  0.00    -0.274 N 
HETATM   14  C3  UNL     1      33.893   6.129 104.320  1.00  0.00     0.215 C 
HETATM   15  N4  UNL     1      33.206   5.761 103.145  1.00  0.00    -0.065 NA
HETATM   16  N5  UNL     1      33.228   6.795 105.370  1.00  0.00    -0.065 NA
ATOM     17  H3  UNL     1      35.614   6.131 105.297  1.00  0.00     0.189 HD
ENDBRANCH  11  13
ENDBRANCH   7  11
ENDBRANCH   1   7
BRANCH   6  18
HETATM   18  C10 UNL     1      39.200   4.825 102.835  1.00  0.00     0.119 C 
HETATM   19  N6  UNL     1      39.801   4.224 101.923  1.00  0.00    -0.309 N 
ATOM     20  H6  UNL     1      39.801   4.803 101.082  1.00  0.00     0.186 HD
BRANCH  19  21
HETATM   21  N7  UNL     1      40.436   3.098 101.672  1.00  0.00    -0.276 N 
HETATM   22  C11 UNL     1      40.045   1.878 101.809  1.00  0.00     0.215 C 
HETATM   23  N8  UNL     1      40.954   0.847 101.455  1.00  0.00    -0.065 NA
HETATM   24  N9  UNL     1      38.759   1.520 102.291  1.00  0.00    -0.065 NA
ATOM     25  H7  UNL     1      41.385   3.208 101.314  1.00  0.00     0.189 HD
ENDBRANCH  19  21
ENDBRANCH   6  18
TORSDOF 5
ENDMDL
MODEL 2
REMARK VINA RESULT: -7.866260015      2.147      3.873
REMARK  5 active torsions:
REMARK  status: ('A' for Active; 'I' for Inactive)
REMARK    1  A    between atoms: C2_4  and  N2_5 
REMARK    2  A    between atoms: C2_4  and  C4_12 
REMARK    3  A    between atoms: N2_5  and  N3_7 
REMARK    4  A    between atoms: C9_17  and  C10_18 
REMARK    5  A    between atoms: N6_19  and  N7_21 
ROOT
HETATM    1  C4  UNL     1      38.545   1.618 103.096  1.00  0.00     0.021 A 
HETATM    2  C5  UNL     1      38.504   0.218 102.969  1.00  0.00     0.016 A 
HETATM    3  C6  UNL     1      39.416  -0.500 102.254  1.00  0.00     0.001 A 
HETATM    4  C7  UNL     1      40.415   0.196 101.636  1.00  0.00     0.001 A 
HETATM    5  C8  UNL     1      40.525   1.565 101.711  1.00  0.00     0.014 A 
HETATM    6  C9  UNL     1      39.580   2.274 102.448  1.00  0.00    -0.005 A 
ENDROOT
BRANCH   1   7
HETATM    7  C2  UNL     1      37.526   2.248 103.876  1.00  0.00     0.126 C 
HETATM    8  N1  UNL     1      37.421   2.358 105.130  1.00  0.00    -0.379 N 
HETATM    9  C1  UNL     1      36.378   3.002 105.865  1.00  0.00     0.147 C 
ATOM     10  H1  UNL     1      38.168   1.938 105.684  1.00  0.00     0.160 HD
BRANCH   7  11
HETATM   11  N2  UNL     1      36.433   2.866 103.163  1.00  0.00    -0.283 N 
ATOM     12  H2  UNL     1      35.808   2.305 102.584  1.00  0.00     0.188 HD
BRANCH  11  13
HETATM   13  N3  UNL     1      36.251   4.220 103.279  1.00  0.00    -0.274 N 
HETATM   14  C3  UNL     1      35.100   4.773 103.353  1.00  0.00     0.215 C 
HETATM   15  N4  UNL     1      33.938   3.974 103.316  1.00  0.00    -0.065 NA
HETATM   16  N5  UNL     1      35.011   6.175 103.471  1.00  0.00    -0.065 NA
ATOM     17  H3  UNL     1      37.077   4.818 103.308  1.00  0.00     0.189 HD
ENDBRANCH  11  13
ENDBRANCH   7  11
ENDBRANCH   1   7
BRANCH   6  18
HETATM   18  C10 UNL     1      39.733   3.711 102.500  1.00  0.00     0.119 C 
HETATM   19  N6  UNL     1      40.021   4.456 103.459  1.00  0.00    -0.309 N 
ATOM     20  H6  UNL     1      40.043   5.424 103.137  1.00  0.00     0.186 HD
BRANCH  19  21
HETATM   21  N7  UNL     1      40.306   4.420 104.744  1.00  0.00    -0.276 N 
HETATM   22  C11 UNL     1      39.630   4.846 105.755  1.00  0.00     0.215 C 
HETATM   23  N8  UNL     1      40.189   4.672 107.047  1.00  0.00    -0.065 NA
HETATM   24  N9  UNL     1      38.363   5.473 105.638  1.00  0.00    -0.065 NA
ATOM     25  H7  UNL     1      41.201   3.989 104.976  1.00  0.00     0.189 HD
ENDBRANCH  19  21
ENDBRANCH   6  18
TORSDOF 5
ENDMDL
MODEL 3
REMARK VINA RESULT: -7.740131234      1.502      5.543
REMARK  5 active torsions:
REMARK  status: ('A' for Active; 'I' for Inactive)
REMARK    1  A    between atoms: C2_4  and  N2_5 
REMARK    2  A    between atoms: C2_4  and  C4_12 
REMARK    3  A    between atoms: N2_5  and  N3_7 
REMARK    4  A    between atoms: C9_17  and  C10_18 
REMARK    5  A    between atoms: N6_19  and  N7_21 
ROOT
HETATM    1  C4  UNL     1      37.955   2.491 104.730  1.00  0.00     0.021 A 
HETATM    2  C5  UNL     1      38.996   2.824 105.613  1.00  0.00     0.016 A 
HETATM    3  C6  UNL     1      38.852   3.693 106.653  1.00  0.00     0.001 A 
HETATM    4  C7  UNL     1      37.622   4.259 106.831  1.00  0.00     0.001 A 
HETATM    5  C8  UNL     1      36.552   3.985 106.011  1.00  0.00     0.014 A 
HETATM    6  C9  UNL     1      36.727   3.094 104.956  1.00  0.00    -0.005 A 
ENDROOT
BRANCH   1   7
HETATM    7  C2  UNL     1      38.240   1.564 103.679  1.00  0.00     0.126 C 
HETATM    8  N1  UNL     1      38.688   0.384 103.742  1.00  0.00    -0.379 N 
HETATM    9  C1  UNL     1      38.956  -0.506 102.655  1.00  0.00     0.147 C 
ATOM     10  H1  UNL     1      38.880   0.024 104.676  1.00  0.00     0.160 HD
BRANCH   7  11
HETATM   11  N2  UNL     1      37.994   2.002 102.325  1.00  0.00    -0.283 N 
ATOM     12  H2  UNL     1      37.488   1.406 101.670  1.00  0.00     0.188 HD
BRANCH  11  13
HETATM   13  N3  UNL     1      38.453   3.234 101.937  1.00  0.00    -0.274 N 
HETATM   14  C3  UNL     1      39.676   3.473 101.651  1.00  0.00     0.215 C 
HETATM   15  N4  UNL     1      40.627   2.433 101.730  1.00  0.00    -0.065 NA
HETATM   16  N5  UNL     1      40.056   4.773 101.262  1.00  0.00    -0.065 NA
ATOM     17  H3  UNL     1      37.783   4.001 101.873  1.00  0.00     0.189 HD
ENDBRANCH  11  13
ENDBRANCH   7  11
ENDBRANCH   1   7
BRANCH   6  18
HETATM   18  C10 UNL     1      35.576   2.835 104.119  1.00  0.00     0.119 C 
HETATM   19  N6  UNL     1      34.497   3.454 104.020  1.00  0.00    -0.309 N 
ATOM     20  H6  UNL     1      33.907   2.991 103.328  1.00  0.00     0.186 HD
BRANCH  19  21
HETATM   21  N7  UNL     1      33.860   4.501 104.501  1.00  0.00    -0.276 N 
HETATM   22  C11 UNL     1      33.982   5.751 104.212  1.00  0.00     0.215 C 
HETATM   23  N8  UNL     1      33.152   6.675 104.898  1.00  0.00    -0.065 NA
HETATM   24  N9  UNL     1      34.899   6.242 103.247  1.00  0.00    -0.065 NA
ATOM     25  H7  UNL     1      33.161   4.290 105.214  1.00  0.00     0.189 HD
ENDBRANCH  19  21
ENDBRANCH   6  18
TORSDOF 5
ENDMDL
MODEL 4
REMARK VINA RESULT: -7.228637561      1.357      5.803
REMARK  5 active torsions:
REMARK  status: ('A' for Active; 'I' for Inactive)
REMARK    1  A    between atoms: C2_4  and  N2_5 
REMARK    2  A    between atoms: C2_4  and  C4_12 
REMARK    3  A    between atoms: N2_5  and  N3_7 
REMARK    4  A    between atoms: C9_17  and  C10_18 
REMARK    5  A    between atoms: N6_19  and  N7_21 
ROOT
HETATM    1  C4  UNL     1      38.532   3.683 104.561  1.00  0.00     0.021 A 
HETATM    2  C5  UNL     1      39.223   4.124 105.702  1.00  0.00     0.016 A 
HETATM    3  C6  UNL     1      38.632   4.304 106.918  1.00  0.00     0.001 A 
HETATM    4  C7  UNL     1      37.297   4.036 107.011  1.00  0.00     0.001 A 
HETATM    5  C8  UNL     1      36.550   3.601 105.941  1.00  0.00     0.014 A 
HETATM    6  C9  UNL     1      37.178   3.425 104.711  1.00  0.00    -0.005 A 
ENDROOT
BRANCH   1   7
HETATM    7  C2  UNL     1      39.272   3.535 103.347  1.00  0.00     0.126 C 
HETATM    8  N1  UNL     1      39.465   4.363 102.412  1.00  0.00    -0.379 N 
HETATM    9  C1  UNL     1      40.217   4.165 101.212  1.00  0.00     0.147 C 
ATOM     10  H1  UNL     1      39.034   5.281 102.526  1.00  0.00     0.160 HD
BRANCH   7  11
HETATM   11  N2  UNL     1      39.912   2.262 103.112  1.00  0.00    -0.283 N 
ATOM     12  H2  UNL     1      40.899   2.216 102.858  1.00  0.00     0.188 HD
BRANCH  11  13
HETATM   13  N3  UNL     1      39.168   1.117 103.238  1.00  0.00    -0.274 N 
HETATM   14  C3  UNL     1      39.407   0.045 102.582  1.00  0.00     0.215 C 
HETATM   15  N4  UNL     1      40.486   0.009 101.674  1.00  0.00    -0.065 NA
HETATM   16  N5  UNL     1      38.587  -1.084 102.778  1.00  0.00    -0.065 NA
ATOM     17  H3  UNL     1      38.383   1.120 103.890  1.00  0.00     0.189 HD
ENDBRANCH  11  13
ENDBRANCH   7  11
ENDBRANCH   1   7
BRANCH   6  18
HETATM   18  C10 UNL     1      36.355   2.968 103.614  1.00  0.00     0.119 C 
HETATM   19  N6  UNL     1      35.179   3.259 103.314  1.00  0.00    -0.309 N 
ATOM     20  H6  UNL     1      34.911   2.747 102.472  1.00  0.00     0.186 HD
BRANCH  19  21
HETATM   21  N7  UNL     1      34.166   4.000 103.710  1.00  0.00    -0.276 N 
HETATM   22  C11 UNL     1      34.055   5.282 103.782  1.00  0.00     0.215 C 
HETATM   23  N8  UNL     1      32.828   5.816 104.253  1.00  0.00    -0.065 NA
HETATM   24  N9  UNL     1      35.093   6.177 103.413  1.00  0.00    -0.065 NA
ATOM     25  H7  UNL     1      33.341   3.480 104.007  1.00  0.00     0.189 HD
ENDBRANCH  19  21
ENDBRANCH   6  18
TORSDOF 5
ENDMDL
MODEL 5
REMARK VINA RESULT: -6.835819545      1.552      2.514
REMARK  5 active torsions:
REMARK  status: ('A' for Active; 'I' for Inactive)
REMARK    1  A    between atoms: C2_4  and  N2_5 
REMARK    2  A    between atoms: C2_4  and  C4_12 
REMARK    3  A    between atoms: N2_5  and  N3_7 
REMARK    4  A    between atoms: C9_17  and  C10_18 
REMARK    5  A    between atoms: N6_19  and  N7_21 
ROOT
HETATM    1  C4  UNL     1      38.991   2.883 104.568  1.00  0.00     0.021 A 
HETATM    2  C5  UNL     1      38.890   2.940 105.969  1.00  0.00     0.016 A 
HETATM    3  C6  UNL     1      39.409   3.952 106.721  1.00  0.00     0.001 A 
HETATM    4  C7  UNL     1      40.057   4.956 106.059  1.00  0.00     0.001 A 
HETATM    5  C8  UNL     1      40.198   4.974 104.691  1.00  0.00     0.014 A 
HETATM    6  C9  UNL     1      39.659   3.928 103.947  1.00  0.00    -0.005 A 
ENDROOT
BRANCH   1   7
HETATM    7  C2  UNL     1      38.402   1.765 103.901  1.00  0.00     0.126 C 
HETATM    8  N1  UNL     1      38.896   0.635 103.627  1.00  0.00    -0.379 N 
HETATM    9  C1  UNL     1      38.262  -0.455 102.954  1.00  0.00     0.147 C 
ATOM     10  H1  UNL     1      39.861   0.482 103.921  1.00  0.00     0.160 HD
BRANCH   7  11
HETATM   11  N2  UNL     1      37.036   1.906 103.453  1.00  0.00    -0.283 N 
ATOM     12  H2  UNL     1      36.424   1.092 103.388  1.00  0.00     0.188 HD
BRANCH  11  13
HETATM   13  N3  UNL     1      36.577   3.153 103.116  1.00  0.00    -0.274 N 
HETATM   14  C3  UNL     1      35.588   3.721 103.696  1.00  0.00     0.215 C 
HETATM   15  N4  UNL     1      34.913   3.052 104.739  1.00  0.00    -0.065 NA
HETATM   16  N5  UNL     1      35.187   5.007 103.281  1.00  0.00    -0.065 NA
ATOM     17  H3  UNL     1      37.050   3.656 102.365  1.00  0.00     0.189 HD
ENDBRANCH  11  13
ENDBRANCH   7  11
ENDBRANCH   1   7
BRANCH   6  18
HETATM   18  C10 UNL     1      39.831   3.987 102.512  1.00  0.00     0.119 C 
HETATM   19  N6  UNL     1      40.585   3.332 101.765  1.00  0.00    -0.309 N 
ATOM     20  H6  UNL     1      40.447   3.634 100.800  1.00  0.00     0.186 HD
BRANCH  19  21
HETATM   21  N7  UNL     1      41.498   2.383 101.794  1.00  0.00    -0.276 N 
HETATM   22  C11 UNL     1      41.414   1.142 101.458  1.00  0.00     0.215 C 
HETATM   23  N8  UNL     1      42.575   0.338 101.596  1.00  0.00    -0.065 NA
HETATM   24  N9  UNL     1      40.225   0.546 100.961  1.00  0.00    -0.065 NA
ATOM     25  H7  UNL     1      42.413   2.676 102.135  1.00  0.00     0.189 HD
ENDBRANCH  19  21
ENDBRANCH   6  18
TORSDOF 5
ENDMDL
