MODEL 1
REMARK VINA RESULT: -8.210721088      0.000      0.000
REMARK  7 active torsions:
REMARK  status: ('A' for Active; 'I' for Inactive)
REMARK    1  A    between atoms: C4_6  and  N2_7 
REMARK    2  A    between atoms: N2_7  and  C5_9 
REMARK    3  A    between atoms: C6_12  and  C7_13 
REMARK    4  A    between atoms: C7_13  and  O1_14 
REMARK    5  A    between atoms: C7_13  and  C8_16 
REMARK    6  A    between atoms: C8_16  and  N4_17 
REMARK    7  A    between atoms: C8_16  and  N5_21 
REMARK       I    between atoms: N5_21  and  C9_23 
REMARK       I    between atoms: C9_23  and  N6_24 
REMARK       I    between atoms: C9_23  and  N7_28 
ROOT
HETATM    1  C5  UNL     1     -32.947  17.068 -12.437  1.00  0.00     0.294 A 
HETATM    2  N3  UNL     1     -33.142  16.086 -11.437  1.00  0.00    -0.348 N 
ATOM      3  H3  UNL     1     -32.403  15.771 -10.808  1.00  0.00     0.163 HD
HETATM    4  C6  UNL     1     -34.344  15.631 -11.399  1.00  0.00     0.115 A 
HETATM    5  N8  UNL     1     -35.124  16.284 -12.380  1.00  0.00    -0.311 N 
ATOM      6  H8  UNL     1     -36.112  16.117 -12.570  1.00  0.00     0.170 HD
HETATM    7  C10 UNL     1     -34.290  17.214 -13.054  1.00  0.00     0.266 A 
HETATM    8  O2  UNL     1     -34.584  18.005 -13.976  1.00  0.00    -0.269 OA
ENDROOT
BRANCH   4   9
HETATM    9  C7  UNL     1     -34.855  14.577 -10.445  1.00  0.00     0.235 C 
BRANCH   9  10
HETATM   10  O1  UNL     1     -33.727  13.931  -9.856  1.00  0.00    -0.384 OA
ATOM     11  H1  UNL     1     -34.021  13.484  -9.071  1.00  0.00     0.210 HD
ENDBRANCH   9  10
BRANCH   9  12
HETATM   12  C8  UNL     1     -35.615  15.125  -9.297  1.00  0.00     0.316 C 
BRANCH  12  13
HETATM   13  N4  UNL     1     -35.944  16.544  -9.504  1.00  0.00    -0.056 N 
ATOM     14  H43 UNL     1     -35.119  17.137  -9.412  1.00  0.00     0.276 HD
ATOM     15  H42 UNL     1     -36.168  16.739 -10.480  1.00  0.00     0.276 HD
ATOM     16  H41 UNL     1     -36.693  16.844  -8.881  1.00  0.00     0.276 HD
ENDBRANCH  12  13
BRANCH  12  17
HETATM   17  N5  UNL     1     -36.696  14.388  -8.773  1.00  0.00    -0.345 N 
HETATM   18  C9  UNL     1     -36.467  13.497  -7.698  1.00  0.00     0.477 C 
HETATM   19  N6  UNL     1     -35.877  14.115  -6.530  1.00  0.00    -0.033 N 
HETATM   20  N7  UNL     1     -35.820  12.269  -8.035  1.00  0.00    -0.033 N 
ATOM     21  H63 UNL     1     -35.016  14.601  -6.780  1.00  0.00     0.278 HD
ATOM     22  H62 UNL     1     -36.440  14.908  -6.222  1.00  0.00     0.278 HD
ATOM     23  H61 UNL     1     -35.712  13.472  -5.755  1.00  0.00     0.278 HD
ATOM     24  H73 UNL     1     -36.338  11.795  -8.775  1.00  0.00     0.278 HD
ATOM     25  H72 UNL     1     -34.944  12.461  -8.520  1.00  0.00     0.278 HD
ATOM     26  H71 UNL     1     -35.655  11.626  -7.260  1.00  0.00     0.278 HD
ATOM     27  H5  UNL     1     -37.632  14.497  -9.164  1.00  0.00     0.159 HD
ENDBRANCH  12  17
ENDBRANCH   9  12
ENDBRANCH   4   9
BRANCH   1  28
HETATM   28  N2  UNL     1     -32.346  18.295 -12.071  1.00  0.00    -0.196 N 
ATOM     29  H2  UNL     1     -32.451  18.572 -11.096  1.00  0.00     0.180 HD
BRANCH  28  30
HETATM   30  C4  UNL     1     -31.615  19.187 -12.898  1.00  0.00     0.680 A 
HETATM   31  N1  UNL     1     -31.002  20.238 -12.495  1.00  0.00    -0.200 N 
HETATM   32  C2  UNL     1     -30.257  21.172 -13.257  1.00  0.00     0.115 A 
ATOM     33  H1  UNL     1     -31.058  20.427 -11.494  1.00  0.00     0.180 HD
HETATM   34  C1  UNL     1     -28.800  21.229 -12.820  1.00  0.00     0.063 C 
HETATM   35  C3  UNL     1     -30.832  22.581 -13.190  1.00  0.00     0.063 C 
HETATM   36  N11 UNL     1     -30.243  20.820 -14.645  1.00  0.00    -0.338 N 
HETATM   37  C11 UNL     1     -30.900  19.681 -15.120  1.00  0.00     0.204 A 
ATOM     38  H11 UNL     1     -29.741  21.415 -15.303  1.00  0.00     0.164 HD
HETATM   39  N9  UNL     1     -31.539  18.918 -14.317  1.00  0.00    -0.164 N 
HETATM   40  N10 UNL     1     -30.836  19.402 -16.502  1.00  0.00    -0.063 NA
ATOM     41  H9  UNL     1     -32.011  18.093 -14.689  1.00  0.00     0.187 HD
ENDBRANCH  28  30
ENDBRANCH   1  28
TORSDOF 7
ENDMDL
MODEL 2
REMARK VINA RESULT: -8.017969702      2.408      8.673
REMARK  7 active torsions:
REMARK  status: ('A' for Active; 'I' for Inactive)
REMARK    1  A    between atoms: C4_6  and  N2_7 
REMARK    2  A    between atoms: N2_7  and  C5_9 
REMARK    3  A    between atoms: C6_12  and  C7_13 
REMARK    4  A    between atoms: C7_13  and  O1_14 
REMARK    5  A    between atoms: C7_13  and  C8_16 
REMARK    6  A    between atoms: C8_16  and  N4_17 
REMARK    7  A    between atoms: C8_16  and  N5_21 
REMARK       I    between atoms: N5_21  and  C9_23 
REMARK       I    between atoms: C9_23  and  N6_24 
REMARK       I    between atoms: C9_23  and  N7_28 
ROOT
HETATM    1  C5  UNL     1     -32.094  18.596 -13.036  1.00  0.00     0.294 A 
HETATM    2  N3  UNL     1     -30.847  19.256 -12.920  1.00  0.00    -0.348 N 
ATOM      3  H3  UNL     1     -30.368  19.397 -12.031  1.00  0.00     0.163 HD
HETATM    4  C6  UNL     1     -30.379  19.659 -14.048  1.00  0.00     0.115 A 
HETATM    5  N8  UNL     1     -31.267  19.290 -15.083  1.00  0.00    -0.311 N 
ATOM      6  H8  UNL     1     -31.143  19.484 -16.077  1.00  0.00     0.170 HD
HETATM    7  C10 UNL     1     -32.361  18.602 -14.497  1.00  0.00     0.266 A 
HETATM    8  O2  UNL     1     -33.357  18.093 -15.056  1.00  0.00    -0.269 OA
ENDROOT
BRANCH   4   9
HETATM    9  C7  UNL     1     -29.075  20.396 -14.245  1.00  0.00     0.235 C 
BRANCH   9  10
HETATM   10  O1  UNL     1     -28.026  19.429 -14.300  1.00  0.00    -0.384 OA
ATOM     11  H1  UNL     1     -27.454  19.658 -15.023  1.00  0.00     0.210 HD
ENDBRANCH   9  10
BRANCH   9  12
HETATM   12  C8  UNL     1     -28.985  21.121 -15.534  1.00  0.00     0.316 C 
BRANCH  12  13
HETATM   13  N4  UNL     1     -29.661  22.426 -15.459  1.00  0.00    -0.056 N 
ATOM     14  H43 UNL     1     -29.400  23.029 -16.240  1.00  0.00     0.276 HD
ATOM     15  H42 UNL     1     -30.659  22.343 -15.652  1.00  0.00     0.276 HD
ATOM     16  H41 UNL     1     -29.489  22.880 -14.561  1.00  0.00     0.276 HD
ENDBRANCH  12  13
BRANCH  12  17
HETATM   17  N5  UNL     1     -27.745  21.189 -16.200  1.00  0.00    -0.345 N 
HETATM   18  C9  UNL     1     -27.575  20.486 -17.417  1.00  0.00     0.477 C 
HETATM   19  N6  UNL     1     -28.535  20.836 -18.443  1.00  0.00    -0.033 N 
HETATM   20  N7  UNL     1     -27.413  19.072 -17.300  1.00  0.00    -0.033 N 
ATOM     21  H63 UNL     1     -29.487  20.723 -18.095  1.00  0.00     0.278 HD
ATOM     22  H62 UNL     1     -28.529  21.843 -18.609  1.00  0.00     0.278 HD
ATOM     23  H61 UNL     1     -28.412  20.329 -19.319  1.00  0.00     0.278 HD
ATOM     24  H73 UNL     1     -26.641  18.862 -16.666  1.00  0.00     0.278 HD
ATOM     25  H72 UNL     1     -28.192  18.675 -16.774  1.00  0.00     0.278 HD
ATOM     26  H71 UNL     1     -27.290  18.564 -18.176  1.00  0.00     0.278 HD
ATOM     27  H5  UNL     1     -26.980  21.739 -15.810  1.00  0.00     0.159 HD
ENDBRANCH  12  17
ENDBRANCH   9  12
ENDBRANCH   4   9
BRANCH   1  28
HETATM   28  N2  UNL     1     -32.245  17.327 -12.430  1.00  0.00    -0.196 N 
ATOM     29  H2  UNL     1     -31.437  16.707 -12.479  1.00  0.00     0.180 HD
BRANCH  28  30
HETATM   30  C4  UNL     1     -33.387  16.812 -11.761  1.00  0.00     0.680 A 
HETATM   31  N1  UNL     1     -33.368  16.152 -10.663  1.00  0.00    -0.200 N 
HETATM   32  C2  UNL     1     -34.459  15.608  -9.942  1.00  0.00     0.115 A 
ATOM     33  H1  UNL     1     -32.446  15.997 -10.255  1.00  0.00     0.180 HD
HETATM   34  C1  UNL     1     -34.577  16.211  -8.549  1.00  0.00     0.063 C 
HETATM   35  C3  UNL     1     -34.379  14.093  -9.801  1.00  0.00     0.063 C 
HETATM   36  N11 UNL     1     -35.703  15.876 -10.598  1.00  0.00    -0.338 N 
HETATM   37  C11 UNL     1     -35.762  16.593 -11.797  1.00  0.00     0.204 A 
ATOM     38  H11 UNL     1     -36.569  15.534 -10.180  1.00  0.00     0.164 HD
HETATM   39  N9  UNL     1     -34.692  17.031 -12.344  1.00  0.00    -0.164 N 
HETATM   40  N10 UNL     1     -37.028  16.816 -12.380  1.00  0.00    -0.063 NA
ATOM     41  H9  UNL     1     -34.761  17.551 -13.218  1.00  0.00     0.187 HD
ENDBRANCH  28  30
ENDBRANCH   1  28
TORSDOF 7
ENDMDL
MODEL 3
REMARK VINA RESULT: -8.008066763      1.175      1.374
REMARK  7 active torsions:
REMARK  status: ('A' for Active; 'I' for Inactive)
REMARK    1  A    between atoms: C4_6  and  N2_7 
REMARK    2  A    between atoms: N2_7  and  C5_9 
REMARK    3  A    between atoms: C6_12  and  C7_13 
REMARK    4  A    between atoms: C7_13  and  O1_14 
REMARK    5  A    between atoms: C7_13  and  C8_16 
REMARK    6  A    between atoms: C8_16  and  N4_17 
REMARK    7  A    between atoms: C8_16  and  N5_21 
REMARK       I    between atoms: N5_21  and  C9_23 
REMARK       I    between atoms: C9_23  and  N6_24 
REMARK       I    between atoms: C9_23  and  N7_28 
ROOT
HETATM    1  C5  UNL     1     -32.919  17.448 -12.115  1.00  0.00     0.294 A 
HETATM    2  N3  UNL     1     -33.175  16.406 -11.192  1.00  0.00    -0.348 N 
ATOM      3  H3  UNL     1     -32.513  16.120 -10.471  1.00  0.00     0.163 HD
HETATM    4  C6  UNL     1     -34.326  15.855 -11.353  1.00  0.00     0.115 A 
HETATM    5  N8  UNL     1     -35.005  16.491 -12.416  1.00  0.00    -0.311 N 
ATOM      6  H8  UNL     1     -35.937  16.256 -12.759  1.00  0.00     0.170 HD
HETATM    7  C10 UNL     1     -34.164  17.516 -12.922  1.00  0.00     0.266 A 
HETATM    8  O2  UNL     1     -34.385  18.326 -13.849  1.00  0.00    -0.269 OA
ENDROOT
BRANCH   4   9
HETATM    9  C7  UNL     1     -34.879  14.718 -10.527  1.00  0.00     0.235 C 
BRANCH   9  10
HETATM   10  O1  UNL     1     -33.778  13.970 -10.012  1.00  0.00    -0.384 OA
ATOM     11  H1  UNL     1     -33.983  13.046 -10.101  1.00  0.00     0.210 HD
ENDBRANCH   9  10
BRANCH   9  12
HETATM   12  C8  UNL     1     -35.627  15.158  -9.326  1.00  0.00     0.316 C 
BRANCH  12  13
HETATM   13  N4  UNL     1     -35.985  16.583  -9.414  1.00  0.00    -0.056 N 
ATOM     14  H43 UNL     1     -35.322  17.101  -9.990  1.00  0.00     0.276 HD
ATOM     15  H42 UNL     1     -36.824  16.726  -9.975  1.00  0.00     0.276 HD
ATOM     16  H41 UNL     1     -36.079  16.997  -8.486  1.00  0.00     0.276 HD
ENDBRANCH  12  13
BRANCH  12  17
HETATM   17  N5  UNL     1     -36.685  14.362  -8.844  1.00  0.00    -0.345 N 
HETATM   18  C9  UNL     1     -36.446  13.475  -7.767  1.00  0.00     0.477 C 
HETATM   19  N6  UNL     1     -35.929  14.114  -6.576  1.00  0.00    -0.033 N 
HETATM   20  N7  UNL     1     -35.725  12.286  -8.090  1.00  0.00    -0.033 N 
ATOM     21  H63 UNL     1     -35.087  14.646  -6.793  1.00  0.00     0.278 HD
ATOM     22  H62 UNL     1     -36.543  14.874  -6.282  1.00  0.00     0.278 HD
ATOM     23  H61 UNL     1     -35.757  13.474  -5.800  1.00  0.00     0.278 HD
ATOM     24  H73 UNL     1     -36.191  11.791  -8.851  1.00  0.00     0.278 HD
ATOM     25  H72 UNL     1     -34.843  12.527  -8.544  1.00  0.00     0.278 HD
ATOM     26  H71 UNL     1     -35.552  11.645  -7.315  1.00  0.00     0.278 HD
ATOM     27  H5  UNL     1     -37.611  14.425  -9.266  1.00  0.00     0.159 HD
ENDBRANCH  12  17
ENDBRANCH   9  12
ENDBRANCH   4   9
BRANCH   1  28
HETATM   28  N2  UNL     1     -32.487  18.699 -11.618  1.00  0.00    -0.196 N 
ATOM     29  H2  UNL     1     -32.756  18.918 -10.659  1.00  0.00     0.180 HD
BRANCH  28  30
HETATM   30  C4  UNL     1     -31.724  19.688 -12.293  1.00  0.00     0.680 A 
HETATM   31  N1  UNL     1     -30.444  19.750 -12.314  1.00  0.00    -0.200 N 
HETATM   32  C2  UNL     1     -29.618  20.703 -12.961  1.00  0.00     0.115 A 
ATOM     33  H1  UNL     1     -29.956  19.018 -11.798  1.00  0.00     0.180 HD
HETATM   34  C1  UNL     1     -28.723  20.059 -14.010  1.00  0.00     0.063 C 
HETATM   35  C3  UNL     1     -28.736  21.475 -11.989  1.00  0.00     0.063 C 
HETATM   36  N11 UNL     1     -30.397  21.686 -13.651  1.00  0.00    -0.338 N 
HETATM   37  C11 UNL     1     -31.795  21.649 -13.650  1.00  0.00     0.204 A 
ATOM     38  H11 UNL     1     -29.920  22.432 -14.157  1.00  0.00     0.164 HD
HETATM   39  N9  UNL     1     -32.419  20.725 -13.021  1.00  0.00    -0.164 N 
HETATM   40  N10 UNL     1     -32.490  22.654 -14.356  1.00  0.00    -0.063 NA
ATOM     41  H9  UNL     1     -33.439  20.721 -13.035  1.00  0.00     0.187 HD
ENDBRANCH  28  30
ENDBRANCH   1  28
TORSDOF 7
ENDMDL
MODEL 4
REMARK VINA RESULT: -7.990259582      1.279      1.428
REMARK  7 active torsions:
REMARK  status: ('A' for Active; 'I' for Inactive)
REMARK    1  A    between atoms: C4_6  and  N2_7 
REMARK    2  A    between atoms: N2_7  and  C5_9 
REMARK    3  A    between atoms: C6_12  and  C7_13 
REMARK    4  A    between atoms: C7_13  and  O1_14 
REMARK    5  A    between atoms: C7_13  and  C8_16 
REMARK    6  A    between atoms: C8_16  and  N4_17 
REMARK    7  A    between atoms: C8_16  and  N5_21 
REMARK       I    between atoms: N5_21  and  C9_23 
REMARK       I    between atoms: C9_23  and  N6_24 
REMARK       I    between atoms: C9_23  and  N7_28 
ROOT
HETATM    1  C5  UNL     1     -32.662  17.700 -12.482  1.00  0.00     0.294 A 
HETATM    2  N3  UNL     1     -32.947  16.785 -11.441  1.00  0.00    -0.348 N 
ATOM      3  H3  UNL     1     -32.423  16.749 -10.567  1.00  0.00     0.163 HD
HETATM    4  C6  UNL     1     -33.932  16.003 -11.707  1.00  0.00     0.115 A 
HETATM    5  N8  UNL     1     -34.453  16.322 -12.982  1.00  0.00    -0.311 N 
ATOM      6  H8  UNL     1     -35.237  15.860 -13.443  1.00  0.00     0.170 HD
HETATM    7  C10 UNL     1     -33.693  17.400 -13.508  1.00  0.00     0.266 A 
HETATM    8  O2  UNL     1     -33.830  17.997 -14.597  1.00  0.00    -0.269 OA
ENDROOT
BRANCH   4   9
HETATM    9  C7  UNL     1     -34.468  14.923 -10.797  1.00  0.00     0.235 C 
BRANCH   9  10
HETATM   10  O1  UNL     1     -33.364  14.348 -10.098  1.00  0.00    -0.384 OA
ATOM     11  H1  UNL     1     -32.587  14.463 -10.631  1.00  0.00     0.210 HD
ENDBRANCH   9  10
BRANCH   9  12
HETATM   12  C8  UNL     1     -35.366  15.427  -9.732  1.00  0.00     0.316 C 
BRANCH  12  13
HETATM   13  N4  UNL     1     -35.787  16.811 -10.001  1.00  0.00    -0.056 N 
ATOM     14  H43 UNL     1     -36.296  17.208  -9.211  1.00  0.00     0.276 HD
ATOM     15  H42 UNL     1     -34.992  17.450 -10.011  1.00  0.00     0.276 HD
ATOM     16  H41 UNL     1     -36.327  16.871 -10.864  1.00  0.00     0.276 HD
ENDBRANCH  12  13
BRANCH  12  17
HETATM   17  N5  UNL     1     -36.425  14.614  -9.283  1.00  0.00    -0.345 N 
HETATM   18  C9  UNL     1     -36.221  13.766  -8.169  1.00  0.00     0.477 C 
HETATM   19  N6  UNL     1     -35.787  14.454  -6.971  1.00  0.00    -0.033 N 
HETATM   20  N7  UNL     1     -35.450  12.589  -8.416  1.00  0.00    -0.033 N 
ATOM     21  H63 UNL     1     -34.950  15.004  -7.159  1.00  0.00     0.278 HD
ATOM     22  H62 UNL     1     -36.438  15.203  -6.734  1.00  0.00     0.278 HD
ATOM     23  H61 UNL     1     -35.640  13.842  -6.168  1.00  0.00     0.278 HD
ATOM     24  H73 UNL     1     -35.861  12.060  -9.186  1.00  0.00     0.278 HD
ATOM     25  H72 UNL     1     -34.553  12.843  -8.829  1.00  0.00     0.278 HD
ATOM     26  H71 UNL     1     -35.303  11.977  -7.614  1.00  0.00     0.278 HD
ATOM     27  H5  UNL     1     -37.329  14.638  -9.756  1.00  0.00     0.159 HD
ENDBRANCH  12  17
ENDBRANCH   9  12
ENDBRANCH   4   9
BRANCH   1  28
HETATM   28  N2  UNL     1     -32.553  19.074 -12.163  1.00  0.00    -0.196 N 
ATOM     29  H2  UNL     1     -33.401  19.523 -11.819  1.00  0.00     0.180 HD
BRANCH  28  30
HETATM   30  C4  UNL     1     -31.405  19.903 -12.263  1.00  0.00     0.680 A 
HETATM   31  N1  UNL     1     -31.215  20.989 -11.611  1.00  0.00    -0.200 N 
HETATM   32  C2  UNL     1     -30.103  21.865 -11.659  1.00  0.00     0.115 A 
ATOM     33  H1  UNL     1     -31.964  21.259 -10.973  1.00  0.00     0.180 HD
HETATM   34  C1  UNL     1     -29.405  21.972 -10.310  1.00  0.00     0.063 C 
HETATM   35  C3  UNL     1     -30.475  23.269 -12.117  1.00  0.00     0.063 C 
HETATM   36  N11 UNL     1     -29.113  21.400 -12.583  1.00  0.00    -0.338 N 
HETATM   37  C11 UNL     1     -29.285  20.219 -13.312  1.00  0.00     0.204 A 
ATOM     38  H11 UNL     1     -28.260  21.945 -12.713  1.00  0.00     0.164 HD
HETATM   39  N9  UNL     1     -30.346  19.518 -13.170  1.00  0.00    -0.164 N 
HETATM   40  N10 UNL     1     -28.262  19.828 -14.202  1.00  0.00    -0.063 NA
ATOM     41  H9  UNL     1     -30.448  18.661 -13.713  1.00  0.00     0.187 HD
ENDBRANCH  28  30
ENDBRANCH   1  28
TORSDOF 7
ENDMDL
MODEL 5
REMARK VINA RESULT: -7.986851978      2.980      4.673
REMARK  7 active torsions:
REMARK  status: ('A' for Active; 'I' for Inactive)
REMARK    1  A    between atoms: C4_6  and  N2_7 
REMARK    2  A    between atoms: N2_7  and  C5_9 
REMARK    3  A    between atoms: C6_12  and  C7_13 
REMARK    4  A    between atoms: C7_13  and  O1_14 
REMARK    5  A    between atoms: C7_13  and  C8_16 
REMARK    6  A    between atoms: C8_16  and  N4_17 
REMARK    7  A    between atoms: C8_16  and  N5_21 
REMARK       I    between atoms: N5_21  and  C9_23 
REMARK       I    between atoms: C9_23  and  N6_24 
REMARK       I    between atoms: C9_23  and  N7_28 
ROOT
HETATM    1  C5  UNL     1     -30.143  20.116 -13.789  1.00  0.00     0.294 A 
HETATM    2  N3  UNL     1     -31.178  19.192 -14.068  1.00  0.00    -0.348 N 
ATOM      3  H3  UNL     1     -31.459  18.934 -15.014  1.00  0.00     0.163 HD
HETATM    4  C6  UNL     1     -31.727  18.709 -13.010  1.00  0.00     0.115 A 
HETATM    5  N8  UNL     1     -31.098  19.250 -11.867  1.00  0.00    -0.311 N 
ATOM      6  H8  UNL     1     -31.334  19.040 -10.897  1.00  0.00     0.170 HD
HETATM    7  C10 UNL     1     -30.078  20.135 -12.305  1.00  0.00     0.266 A 
HETATM    8  O2  UNL     1     -29.275  20.805 -11.621  1.00  0.00    -0.269 OA
ENDROOT
BRANCH   4   9
HETATM    9  C7  UNL     1     -32.857  17.706 -12.986  1.00  0.00     0.235 C 
BRANCH   9  10
HETATM   10  O1  UNL     1     -32.373  16.511 -12.374  1.00  0.00    -0.384 OA
ATOM     11  H1  UNL     1     -31.575  16.724 -11.906  1.00  0.00     0.210 HD
ENDBRANCH   9  10
BRANCH   9  12
HETATM   12  C8  UNL     1     -34.007  18.119 -12.147  1.00  0.00     0.316 C 
BRANCH  12  13
HETATM   13  N4  UNL     1     -34.254  19.565 -12.255  1.00  0.00    -0.056 N 
ATOM     14  H43 UNL     1     -35.227  19.795 -12.054  1.00  0.00     0.276 HD
ATOM     15  H42 UNL     1     -33.811  20.079 -11.493  1.00  0.00     0.276 HD
ATOM     16  H41 UNL     1     -33.964  19.922 -13.166  1.00  0.00     0.276 HD
ENDBRANCH  12  13
BRANCH  12  17
HETATM   17  N5  UNL     1     -35.194  17.361 -12.186  1.00  0.00    -0.345 N 
HETATM   18  C9  UNL     1     -35.460  16.441 -11.144  1.00  0.00     0.477 C 
HETATM   19  N6  UNL     1     -35.475  17.031  -9.822  1.00  0.00    -0.033 N 
HETATM   20  N7  UNL     1     -34.708  15.228 -11.177  1.00  0.00    -0.033 N 
ATOM     21  H63 UNL     1     -34.603  17.529  -9.643  1.00  0.00     0.278 HD
ATOM     22  H62 UNL     1     -36.131  17.811  -9.786  1.00  0.00     0.278 HD
ATOM     23  H61 UNL     1     -35.667  16.368  -9.071  1.00  0.00     0.278 HD
ATOM     24  H73 UNL     1     -34.825  14.771 -12.082  1.00  0.00     0.278 HD
ATOM     25  H72 UNL     1     -33.710  15.439 -11.208  1.00  0.00     0.278 HD
ATOM     26  H71 UNL     1     -34.900  14.564 -10.426  1.00  0.00     0.278 HD
ATOM     27  H5  UNL     1     -35.853  17.474 -12.956  1.00  0.00     0.159 HD
ENDBRANCH  12  17
ENDBRANCH   9  12
ENDBRANCH   4   9
BRANCH   1  28
HETATM   28  N2  UNL     1     -28.889  19.936 -14.416  1.00  0.00    -0.196 N 
ATOM     29  H2  UNL     1     -28.177  19.455 -13.867  1.00  0.00     0.180 HD
BRANCH  28  30
HETATM   30  C4  UNL     1     -28.500  20.345 -15.719  1.00  0.00     0.680 A 
HETATM   31  N1  UNL     1     -28.631  21.527 -16.196  1.00  0.00    -0.200 N 
HETATM   32  C2  UNL     1     -28.270  22.006 -17.480  1.00  0.00     0.115 A 
ATOM     33  H1  UNL     1     -29.051  22.213 -15.569  1.00  0.00     0.180 HD
HETATM   34  C1  UNL     1     -27.223  23.108 -17.401  1.00  0.00     0.063 C 
HETATM   35  C3  UNL     1     -29.460  22.533 -18.270  1.00  0.00     0.063 C 
HETATM   36  N11 UNL     1     -27.695  20.967 -18.280  1.00  0.00    -0.338 N 
HETATM   37  C11 UNL     1     -27.536  19.667 -17.793  1.00  0.00     0.204 A 
ATOM     38  H11 UNL     1     -27.394  21.183 -19.231  1.00  0.00     0.164 HD
HETATM   39  N9  UNL     1     -27.908  19.368 -16.606  1.00  0.00    -0.164 N 
HETATM   40  N10 UNL     1     -26.959  18.701 -18.646  1.00  0.00    -0.063 NA
ATOM     41  H9  UNL     1     -27.781  18.412 -16.275  1.00  0.00     0.187 HD
ENDBRANCH  28  30
ENDBRANCH   1  28
TORSDOF 7
ENDMDL
