MODEL 1
REMARK VINA RESULT: -5.745658602      0.000      0.000
REMARK  0 active torsions:
REMARK  status: ('A' for Active; 'I' for Inactive)
ROOT
HETATM    1  C1  UNL     1      47.914 -28.485 -97.516  1.00  0.00     0.002 C 
HETATM    2  C2  UNL     1      47.279 -27.273 -96.859  1.00  0.00     0.005 C 
HETATM    3  C3  UNL     1      47.152 -27.571 -95.393  1.00  0.00    -0.008 C 
HETATM    4  C4  UNL     1      47.662 -26.370 -94.599  1.00  0.00     0.049 C 
HETATM    5  C5  UNL     1      49.090 -26.102 -94.855  1.00  0.00     0.056 C 
HETATM    6  N1  UNL     1      49.948 -27.194 -95.052  1.00  0.00    -0.398 N 
ATOM      7  H1  UNL     1      50.937 -27.124 -94.813  1.00  0.00     0.159 HD
HETATM    8  C6  UNL     1      49.424 -28.389 -95.583  1.00  0.00     0.081 C 
HETATM    9  C7  UNL     1      49.376 -28.462 -97.082  1.00  0.00     0.025 C 
HETATM   10  C8  UNL     1      48.083 -28.700 -94.953  1.00  0.00     0.030 C 
ENDROOT
TORSDOF 0
ENDMDL
MODEL 2
REMARK VINA RESULT: -5.546160978      1.321      2.732
REMARK  0 active torsions:
REMARK  status: ('A' for Active; 'I' for Inactive)
ROOT
HETATM    1  C1  UNL     1      48.821 -30.381 -94.771  1.00  0.00     0.002 C 
HETATM    2  C2  UNL     1      50.008 -29.442 -94.874  1.00  0.00     0.005 C 
HETATM    3  C3  UNL     1      49.802 -28.588 -96.092  1.00  0.00    -0.008 C 
HETATM    4  C4  UNL     1      50.074 -27.130 -95.725  1.00  0.00     0.049 C 
HETATM    5  C5  UNL     1      49.139 -26.634 -94.697  1.00  0.00     0.056 C 
HETATM    6  N1  UNL     1      47.812 -27.085 -94.730  1.00  0.00    -0.398 N 
ATOM      7  H1  UNL     1      47.059 -26.504 -94.362  1.00  0.00     0.159 HD
HETATM    8  C6  UNL     1      47.533 -28.353 -95.278  1.00  0.00     0.081 C 
HETATM    9  C7  UNL     1      47.651 -29.508 -94.326  1.00  0.00     0.025 C 
HETATM   10  C8  UNL     1      48.342 -28.568 -96.540  1.00  0.00     0.030 C 
ENDROOT
TORSDOF 0
ENDMDL
MODEL 3
REMARK VINA RESULT: -5.537562644      1.441      2.973
REMARK  0 active torsions:
REMARK  status: ('A' for Active; 'I' for Inactive)
ROOT
HETATM    1  C1  UNL     1      49.812 -27.094 -95.152  1.00  0.00     0.002 C 
HETATM    2  C2  UNL     1      49.676 -27.915 -96.421  1.00  0.00     0.005 C 
HETATM    3  C3  UNL     1      48.596 -28.931 -96.185  1.00  0.00    -0.008 C 
HETATM    4  C4  UNL     1      47.651 -28.934 -97.385  1.00  0.00     0.049 C 
HETATM    5  C5  UNL     1      46.977 -27.633 -97.564  1.00  0.00     0.056 C 
HETATM    6  N1  UNL     1      46.613 -26.909 -96.420  1.00  0.00    -0.398 N 
ATOM      7  H1  UNL     1      45.818 -26.270 -96.443  1.00  0.00     0.159 HD
HETATM    8  C6  UNL     1      47.359 -27.077 -95.236  1.00  0.00     0.081 C 
HETATM    9  C7  UNL     1      48.574 -26.204 -95.110  1.00  0.00     0.025 C 
HETATM   10  C8  UNL     1      47.683 -28.541 -95.024  1.00  0.00     0.030 C 
ENDROOT
TORSDOF 0
ENDMDL
MODEL 4
REMARK VINA RESULT: -5.477429031      1.157      1.776
REMARK  0 active torsions:
REMARK  status: ('A' for Active; 'I' for Inactive)
ROOT
HETATM    1  C1  UNL     1      46.295 -26.808 -96.771  1.00  0.00     0.002 C 
HETATM    2  C2  UNL     1      47.282 -25.977 -95.972  1.00  0.00     0.005 C 
HETATM    3  C3  UNL     1      47.717 -26.803 -94.796  1.00  0.00    -0.008 C 
HETATM    4  C4  UNL     1      49.238 -26.733 -94.678  1.00  0.00     0.049 C 
HETATM    5  C5  UNL     1      49.912 -27.297 -95.864  1.00  0.00     0.056 C 
HETATM    6  N1  UNL     1      49.334 -28.410 -96.491  1.00  0.00    -0.398 N 
ATOM      7  H1  UNL     1      49.915 -29.076 -97.000  1.00  0.00     0.159 HD
HETATM    8  C6  UNL     1      47.939 -28.595 -96.410  1.00  0.00     0.081 C 
HETATM    9  C7  UNL     1      47.132 -27.884 -97.457  1.00  0.00     0.025 C 
HETATM   10  C8  UNL     1      47.452 -28.292 -95.008  1.00  0.00     0.030 C 
ENDROOT
TORSDOF 0
ENDMDL
MODEL 5
REMARK VINA RESULT: -5.470748216      1.323      3.011
REMARK  0 active torsions:
REMARK  status: ('A' for Active; 'I' for Inactive)
ROOT
HETATM    1  C1  UNL     1      48.218 -25.865 -94.670  1.00  0.00     0.002 C 
HETATM    2  C2  UNL     1      49.494 -26.566 -95.099  1.00  0.00     0.005 C 
HETATM    3  C3  UNL     1      49.268 -28.043 -94.948  1.00  0.00    -0.008 C 
HETATM    4  C4  UNL     1      49.752 -28.748 -96.214  1.00  0.00     0.049 C 
HETATM    5  C5  UNL     1      48.996 -28.323 -97.408  1.00  0.00     0.056 C 
HETATM    6  N1  UNL     1      47.627 -28.052 -97.268  1.00  0.00    -0.398 N 
ATOM      7  H1  UNL     1      46.993 -28.173 -98.057  1.00  0.00     0.159 HD
HETATM    8  C6  UNL     1      47.141 -27.609 -96.022  1.00  0.00     0.081 C 
HETATM    9  C7  UNL     1      47.216 -26.127 -95.791  1.00  0.00     0.025 C 
HETATM   10  C8  UNL     1      47.783 -28.396 -94.899  1.00  0.00     0.030 C 
ENDROOT
TORSDOF 0
ENDMDL
