MODEL 1
REMARK VINA RESULT: -6.007878206      0.000      0.000
REMARK  0 active torsions:
REMARK  status: ('A' for Active; 'I' for Inactive)
ROOT
HETATM    1  F1  UNL     1      47.114 -25.783 -96.706  1.00  0.00    -0.247 F 
HETATM    2  C1  UNL     1      46.591 -27.080 -96.592  1.00  0.00     0.201 C 
HETATM    3  C2  UNL     1      46.352 -27.652 -97.927  1.00  0.00     0.039 C 
HETATM    4  C3  UNL     1      47.331 -28.642 -98.429  1.00  0.00     0.003 C 
HETATM    5  C4  UNL     1      48.633 -28.452 -97.649  1.00  0.00     0.007 C 
HETATM    6  C5  UNL     1      48.258 -28.934 -96.249  1.00  0.00     0.021 C 
HETATM    7  C6  UNL     1      49.468 -28.952 -95.333  1.00  0.00     0.034 C 
HETATM    8  C7  UNL     1      49.676 -27.445 -95.165  1.00  0.00     0.233 C 
HETATM    9  N1  UNL     1      48.353 -26.956 -94.934  1.00  0.00    -0.068 N 
ATOM     10  H11 UNL     1      48.243 -25.974 -95.187  1.00  0.00     0.277 HD
ATOM     11  H12 UNL     1      48.130 -26.866 -93.942  1.00  0.00     0.277 HD
HETATM   12  C8  UNL     1      47.432 -27.828 -95.644  1.00  0.00     0.223 C 
ENDROOT
TORSDOF 0
ENDMDL
MODEL 2
REMARK VINA RESULT: -5.896120478      1.646      2.425
REMARK  0 active torsions:
REMARK  status: ('A' for Active; 'I' for Inactive)
ROOT
HETATM    1  F1  UNL     1      49.507 -25.320 -95.088  1.00  0.00    -0.247 F 
HETATM    2  C1  UNL     1      48.325 -25.843 -94.543  1.00  0.00     0.201 C 
HETATM    3  C2  UNL     1      47.151 -25.233 -95.188  1.00  0.00     0.039 C 
HETATM    4  C3  UNL     1      46.435 -26.039 -96.202  1.00  0.00     0.003 C 
HETATM    5  C4  UNL     1      47.392 -27.121 -96.703  1.00  0.00     0.007 C 
HETATM    6  C5  UNL     1      47.530 -28.036 -95.488  1.00  0.00     0.021 C 
HETATM    7  C6  UNL     1      48.350 -29.270 -95.820  1.00  0.00     0.034 C 
HETATM    8  C7  UNL     1      49.730 -28.621 -95.956  1.00  0.00     0.233 C 
HETATM    9  N1  UNL     1      49.794 -27.748 -94.826  1.00  0.00    -0.068 N 
ATOM     10  H11 UNL     1      50.441 -26.972 -94.961  1.00  0.00     0.277 HD
ATOM     11  H12 UNL     1      50.258 -28.173 -94.022  1.00  0.00     0.277 HD
HETATM   12  C8  UNL     1      48.440 -27.311 -94.530  1.00  0.00     0.223 C 
ENDROOT
TORSDOF 0
ENDMDL
MODEL 3
REMARK VINA RESULT: -5.762833924      1.861      2.515
REMARK  0 active torsions:
REMARK  status: ('A' for Active; 'I' for Inactive)
ROOT
HETATM    1  F1  UNL     1      47.040 -29.839 -97.925  1.00  0.00    -0.247 F 
HETATM    2  C1  UNL     1      47.703 -28.628 -98.173  1.00  0.00     0.201 C 
HETATM    3  C2  UNL     1      46.800 -27.680 -98.845  1.00  0.00     0.039 C 
HETATM    4  C3  UNL     1      46.211 -26.599 -98.022  1.00  0.00     0.003 C 
HETATM    5  C4  UNL     1      46.284 -27.033 -96.557  1.00  0.00     0.007 C 
HETATM    6  C5  UNL     1      47.783 -26.985 -96.268  1.00  0.00     0.021 C 
HETATM    7  C6  UNL     1      48.069 -27.258 -94.802  1.00  0.00     0.034 C 
HETATM    8  C7  UNL     1      47.727 -28.750 -94.756  1.00  0.00     0.233 C 
HETATM    9  N1  UNL     1      48.359 -29.266 -95.930  1.00  0.00    -0.068 N 
ATOM     10  H11 UNL     1      47.927 -30.126 -96.267  1.00  0.00     0.277 HD
ATOM     11  H12 UNL     1      49.289 -29.645 -95.746  1.00  0.00     0.277 HD
HETATM   12  C8  UNL     1      48.366 -28.209 -96.927  1.00  0.00     0.223 C 
ENDROOT
TORSDOF 0
ENDMDL
MODEL 4
REMARK VINA RESULT: -5.762187572      1.646      2.546
REMARK  0 active torsions:
REMARK  status: ('A' for Active; 'I' for Inactive)
ROOT
HETATM    1  F1  UNL     1      47.364 -27.046 -98.061  1.00  0.00    -0.247 F 
HETATM    2  C1  UNL     1      47.354 -27.995 -97.027  1.00  0.00     0.201 C 
HETATM    3  C2  UNL     1      48.571 -28.821 -97.082  1.00  0.00     0.039 C 
HETATM    4  C3  UNL     1      49.642 -28.522 -96.104  1.00  0.00     0.003 C 
HETATM    5  C4  UNL     1      49.434 -27.092 -95.604  1.00  0.00     0.007 C 
HETATM    6  C5  UNL     1      48.156 -27.209 -94.775  1.00  0.00     0.021 C 
HETATM    7  C6  UNL     1      47.839 -25.904 -94.067  1.00  0.00     0.034 C 
HETATM    8  C7  UNL     1      47.424 -25.060 -95.276  1.00  0.00     0.233 C 
HETATM    9  N1  UNL     1      46.572 -25.941 -96.011  1.00  0.00    -0.068 N 
ATOM     10  H11 UNL     1      46.523 -25.708 -97.003  1.00  0.00     0.277 HD
ATOM     11  H12 UNL     1      45.583 -25.810 -95.793  1.00  0.00     0.277 HD
HETATM   12  C8  UNL     1      47.029 -27.299 -95.772  1.00  0.00     0.223 C 
ENDROOT
TORSDOF 0
ENDMDL
MODEL 5
REMARK VINA RESULT: -5.741747464      1.531      1.912
REMARK  0 active torsions:
REMARK  status: ('A' for Active; 'I' for Inactive)
ROOT
HETATM    1  F1  UNL     1      46.589 -25.990 -98.694  1.00  0.00    -0.247 F 
HETATM    2  C1  UNL     1      46.182 -27.194 -98.099  1.00  0.00     0.201 C 
HETATM    3  C2  UNL     1      46.873 -28.332 -98.726  1.00  0.00     0.039 C 
HETATM    4  C3  UNL     1      47.999 -28.940 -97.981  1.00  0.00     0.003 C 
HETATM    5  C4  UNL     1      48.500 -27.911 -96.966  1.00  0.00     0.007 C 
HETATM    6  C5  UNL     1      47.349 -27.840 -95.965  1.00  0.00     0.021 C 
HETATM    7  C6  UNL     1      47.704 -26.957 -94.782  1.00  0.00     0.034 C 
HETATM    8  C7  UNL     1      47.679 -25.592 -95.475  1.00  0.00     0.233 C 
HETATM    9  N1  UNL     1      46.486 -25.646 -96.260  1.00  0.00    -0.068 N 
ATOM     10  H11 UNL     1      46.510 -25.016 -97.062  1.00  0.00     0.277 HD
ATOM     11  H12 UNL     1      45.681 -25.233 -95.788  1.00  0.00     0.277 HD
HETATM   12  C8  UNL     1      46.269 -27.032 -96.638  1.00  0.00     0.223 C 
ENDROOT
TORSDOF 0
ENDMDL
