MODEL 1
REMARK VINA RESULT: -7.125951969      0.000      0.000
REMARK  3 active torsions:
REMARK  status: ('A' for Active; 'I' for Inactive)
REMARK    1  A    between atoms: C3_5  and  C4_6 
REMARK    2  A    between atoms: C4_6  and  C5_7 
REMARK    3  A    between atoms: N2_17  and  N3_19 
ROOT
HETATM    1  C1  UNL     1      46.017 -27.527 -95.172  1.00  0.00     0.039 C 
HETATM    2  C2  UNL     1      46.844 -28.047 -96.093  1.00  0.00     0.010 C 
HETATM    3  N1  UNL     1      46.608 -27.682 -97.448  1.00  0.00    -0.388 N 
ATOM      4  H1  UNL     1      45.866 -27.009 -97.640  1.00  0.00     0.159 HD
HETATM    5  C3  UNL     1      47.355 -28.205 -98.572  1.00  0.00     0.081 C 
HETATM    6  C7  UNL     1      48.622 -28.812 -98.085  1.00  0.00     0.026 C 
HETATM    7  C8  UNL     1      48.294 -29.770 -96.958  1.00  0.00     0.024 C 
HETATM    8  C9  UNL     1      47.943 -28.950 -95.714  1.00  0.00     0.041 C 
HETATM    9  C10 UNL     1      47.543 -29.921 -94.655  1.00  0.00     0.022 C 
HETATM   10  C11 UNL     1      48.672 -30.838 -94.273  1.00  0.00     0.002 C 
HETATM   11  C12 UNL     1      49.937 -30.130 -93.905  1.00  0.00     0.006 C 
HETATM   12  C13 UNL     1      50.324 -29.051 -94.892  1.00  0.00     0.055 C 
HETATM   13  C14 UNL     1      49.144 -28.217 -95.237  1.00  0.00     0.018 C 
HETATM   14  N2  UNL     1      49.149 -26.941 -95.131  1.00  0.00    -0.314 N 
ATOM     15  H2  UNL     1      48.297 -26.443 -95.387  1.00  0.00     0.185 HD
ENDROOT
BRANCH  14  16
HETATM   16  N3  UNL     1      50.226 -26.184 -94.695  1.00  0.00    -0.345 N 
ATOM     17  H32 UNL     1      50.044 -25.538 -93.928  1.00  0.00     0.176 HD
ATOM     18  H31 UNL     1      51.168 -26.229 -95.084  1.00  0.00     0.176 HD
ENDBRANCH  14  16
BRANCH   5  19
HETATM   19  C4  UNL     1      46.469 -29.120 -99.353  1.00  0.00     0.024 C 
BRANCH  19  20
HETATM   20  C5  UNL     1      47.197 -30.307 -99.927  1.00  0.00    -0.002 C 
HETATM   21  C6  UNL     1      48.240 -29.876-100.939  1.00  0.00     0.005 C 
ENDBRANCH  19  20
ENDBRANCH   5  19
TORSDOF 3
ENDMDL
MODEL 2
REMARK VINA RESULT: -7.000829995      0.832      1.033
REMARK  3 active torsions:
REMARK  status: ('A' for Active; 'I' for Inactive)
REMARK    1  A    between atoms: C3_5  and  C4_6 
REMARK    2  A    between atoms: C4_6  and  C5_7 
REMARK    3  A    between atoms: N2_17  and  N3_19 
ROOT
HETATM    1  C1  UNL     1      46.197 -27.637 -96.297  1.00  0.00     0.039 C 
HETATM    2  C2  UNL     1      47.246 -28.199 -96.919  1.00  0.00     0.010 C 
HETATM    3  N1  UNL     1      47.393 -27.924 -98.308  1.00  0.00    -0.388 N 
ATOM      4  H1  UNL     1      46.732 -27.278 -98.740  1.00  0.00     0.159 HD
HETATM    5  C3  UNL     1      48.420 -28.503 -99.146  1.00  0.00     0.081 C 
HETATM    6  C7  UNL     1      49.503 -29.056 -98.292  1.00  0.00     0.026 C 
HETATM    7  C8  UNL     1      48.877 -29.948 -97.238  1.00  0.00     0.024 C 
HETATM    8  C9  UNL     1      48.198 -29.058 -96.195  1.00  0.00     0.041 C 
HETATM    9  C10 UNL     1      47.521 -29.967 -95.226  1.00  0.00     0.022 C 
HETATM   10  C11 UNL     1      48.500 -30.838 -94.489  1.00  0.00     0.002 C 
HETATM   11  C12 UNL     1      49.616 -30.086 -93.835  1.00  0.00     0.006 C 
HETATM   12  C13 UNL     1      50.260 -29.065 -94.745  1.00  0.00     0.055 C 
HETATM   13  C14 UNL     1      49.221 -28.275 -95.455  1.00  0.00     0.018 C 
HETATM   14  N2  UNL     1      49.198 -26.995 -95.435  1.00  0.00    -0.314 N 
ATOM     15  H2  UNL     1      48.449 -26.529 -95.947  1.00  0.00     0.185 HD
ENDROOT
BRANCH  14  16
HETATM   16  N3  UNL     1      50.113 -26.193 -94.771  1.00  0.00    -0.345 N 
ATOM     17  H32 UNL     1      49.830 -25.847 -93.854  1.00  0.00     0.176 HD
ATOM     18  H31 UNL     1      51.031 -25.932 -95.130  1.00  0.00     0.176 HD
ENDBRANCH  14  16
BRANCH   5  19
HETATM   19  C4  UNL     1      47.783 -29.482-100.080  1.00  0.00     0.024 C 
BRANCH  19  20
HETATM   20  C5  UNL     1      46.369 -29.835 -99.697  1.00  0.00    -0.002 C 
HETATM   21  C6  UNL     1      45.577 -30.313-100.898  1.00  0.00     0.005 C 
ENDBRANCH  19  20
ENDBRANCH   5  19
TORSDOF 3
ENDMDL
MODEL 3
REMARK VINA RESULT: -6.600760213      2.201      4.722
REMARK  3 active torsions:
REMARK  status: ('A' for Active; 'I' for Inactive)
REMARK    1  A    between atoms: C3_5  and  C4_6 
REMARK    2  A    between atoms: C4_6  and  C5_7 
REMARK    3  A    between atoms: N2_17  and  N3_19 
ROOT
HETATM    1  C1  UNL     1      50.253 -29.676 -94.897  1.00  0.00     0.039 C 
HETATM    2  C2  UNL     1      49.438 -28.674 -95.266  1.00  0.00     0.010 C 
HETATM    3  N1  UNL     1      49.622 -27.423 -94.612  1.00  0.00    -0.388 N 
ATOM      4  H1  UNL     1      50.389 -27.340 -93.945  1.00  0.00     0.159 HD
HETATM    5  C3  UNL     1      48.788 -26.262 -94.833  1.00  0.00     0.081 C 
HETATM    6  C7  UNL     1      48.026 -26.432 -96.098  1.00  0.00     0.026 C 
HETATM    7  C8  UNL     1      47.345 -27.785 -96.072  1.00  0.00     0.024 C 
HETATM    8  C9  UNL     1      48.406 -28.865 -96.298  1.00  0.00     0.041 C 
HETATM    9  C10 UNL     1      47.716 -30.181 -96.178  1.00  0.00     0.022 C 
HETATM   10  C11 UNL     1      46.666 -30.368 -97.238  1.00  0.00     0.002 C 
HETATM   11  C12 UNL     1      47.158 -30.141 -98.633  1.00  0.00     0.006 C 
HETATM   12  C13 UNL     1      47.966 -28.872 -98.781  1.00  0.00     0.055 C 
HETATM   13  C14 UNL     1      48.952 -28.754 -97.675  1.00  0.00     0.018 C 
HETATM   14  N2  UNL     1      50.202 -28.571 -97.886  1.00  0.00    -0.314 N 
ATOM     15  H2  UNL     1      50.812 -28.502 -97.072  1.00  0.00     0.185 HD
ENDROOT
BRANCH  14  16
HETATM   16  N3  UNL     1      50.789 -28.457 -99.137  1.00  0.00    -0.345 N 
ATOM     17  H32 UNL     1      50.614 -27.589 -99.643  1.00  0.00     0.176 HD
ATOM     18  H31 UNL     1      51.373 -29.169 -99.576  1.00  0.00     0.176 HD
ENDBRANCH  14  16
BRANCH   5  19
HETATM   19  C4  UNL     1      47.954 -26.030 -93.614  1.00  0.00     0.024 C 
BRANCH  19  20
HETATM   20  C5  UNL     1      46.848 -25.031 -93.831  1.00  0.00    -0.002 C 
HETATM   21  C6  UNL     1      47.324 -23.853 -94.658  1.00  0.00     0.005 C 
ENDBRANCH  19  20
ENDBRANCH   5  19
TORSDOF 3
ENDMDL
MODEL 4
REMARK VINA RESULT: -6.558204400      1.958      3.112
REMARK  3 active torsions:
REMARK  status: ('A' for Active; 'I' for Inactive)
REMARK    1  A    between atoms: C3_5  and  C4_6 
REMARK    2  A    between atoms: C4_6  and  C5_7 
REMARK    3  A    between atoms: N2_17  and  N3_19 
ROOT
HETATM    1  C1  UNL     1      50.382 -28.093 -97.872  1.00  0.00     0.039 C 
HETATM    2  C2  UNL     1      49.202 -28.734 -97.833  1.00  0.00     0.010 C 
HETATM    3  N1  UNL     1      48.978 -29.729 -98.825  1.00  0.00    -0.388 N 
ATOM      4  H1  UNL     1      49.738 -29.939 -99.472  1.00  0.00     0.159 HD
HETATM    5  C3  UNL     1      47.740 -30.463 -98.974  1.00  0.00     0.081 C 
HETATM    6  C7  UNL     1      46.937 -30.337 -97.729  1.00  0.00     0.026 C 
HETATM    7  C8  UNL     1      46.839 -28.869 -97.365  1.00  0.00     0.024 C 
HETATM    8  C9  UNL     1      48.192 -28.418 -96.809  1.00  0.00     0.041 C 
HETATM    9  C10 UNL     1      48.085 -26.954 -96.546  1.00  0.00     0.022 C 
HETATM   10  C11 UNL     1      47.054 -26.642 -95.498  1.00  0.00     0.002 C 
HETATM   11  C12 UNL     1      47.224 -27.409 -94.224  1.00  0.00     0.006 C 
HETATM   12  C13 UNL     1      47.453 -28.887 -94.445  1.00  0.00     0.055 C 
HETATM   13  C14 UNL     1      48.459 -29.101 -95.517  1.00  0.00     0.018 C 
HETATM   14  N2  UNL     1      49.501 -29.827 -95.347  1.00  0.00    -0.314 N 
ATOM     15  H2  UNL     1      50.143 -29.921 -96.134  1.00  0.00     0.185 HD
ENDROOT
BRANCH  14  16
HETATM   16  N3  UNL     1      49.822 -30.495 -94.176  1.00  0.00    -0.345 N 
ATOM     17  H32 UNL     1      49.073 -31.036 -93.743  1.00  0.00     0.176 HD
ATOM     18  H31 UNL     1      50.738 -30.483 -93.728  1.00  0.00     0.176 HD
ENDBRANCH  14  16
BRANCH   5  19
HETATM   19  C4  UNL     1      47.057 -30.003-100.222  1.00  0.00     0.024 C 
BRANCH  19  20
HETATM   20  C5  UNL     1      45.609 -30.411-100.292  1.00  0.00    -0.002 C 
HETATM   21  C6  UNL     1      45.099 -30.389-101.720  1.00  0.00     0.005 C 
ENDBRANCH  19  20
ENDBRANCH   5  19
TORSDOF 3
ENDMDL
MODEL 5
REMARK VINA RESULT: -6.431043699      2.046      3.306
REMARK  3 active torsions:
REMARK  status: ('A' for Active; 'I' for Inactive)
REMARK    1  A    between atoms: C3_5  and  C4_6 
REMARK    2  A    between atoms: C4_6  and  C5_7 
REMARK    3  A    between atoms: N2_17  and  N3_19 
ROOT
HETATM    1  C1  UNL     1      50.492 -29.686 -95.212  1.00  0.00     0.039 C 
HETATM    2  C2  UNL     1      49.502 -29.124 -95.926  1.00  0.00     0.010 C 
HETATM    3  N1  UNL     1      49.103 -29.798 -97.114  1.00  0.00    -0.388 N 
ATOM      4  H1  UNL     1      49.547 -30.691 -97.329  1.00  0.00     0.159 HD
HETATM    5  C3  UNL     1      48.108 -29.296 -98.036  1.00  0.00     0.081 C 
HETATM    6  C7  UNL     1      47.297 -28.246 -97.367  1.00  0.00     0.026 C 
HETATM    7  C8  UNL     1      48.238 -27.237 -96.740  1.00  0.00     0.024 C 
HETATM    8  C9  UNL     1      48.864 -27.869 -95.495  1.00  0.00     0.041 C 
HETATM    9  C10 UNL     1      49.846 -26.885 -94.957  1.00  0.00     0.022 C 
HETATM   10  C11 UNL     1      49.184 -25.608 -94.517  1.00  0.00     0.002 C 
HETATM   11  C12 UNL     1      48.044 -25.806 -93.569  1.00  0.00     0.006 C 
HETATM   12  C13 UNL     1      47.078 -26.881 -94.014  1.00  0.00     0.055 C 
HETATM   13  C14 UNL     1      47.819 -28.089 -94.462  1.00  0.00     0.018 C 
HETATM   14  N2  UNL     1      47.580 -29.256 -93.990  1.00  0.00    -0.314 N 
ATOM     15  H2  UNL     1      48.135 -30.032 -94.350  1.00  0.00     0.185 HD
ENDROOT
BRANCH  14  16
HETATM   16  N3  UNL     1      46.625 -29.544 -93.027  1.00  0.00    -0.345 N 
ATOM     17  H32 UNL     1      46.856 -30.286 -92.367  1.00  0.00     0.176 HD
ATOM     18  H31 UNL     1      45.724 -29.074 -92.938  1.00  0.00     0.176 HD
ENDBRANCH  14  16
BRANCH   5  19
HETATM   19  C4  UNL     1      48.792 -28.868 -99.295  1.00  0.00     0.024 C 
BRANCH  19  20
HETATM   20  C5  UNL     1      48.459 -29.738-100.478  1.00  0.00    -0.002 C 
HETATM   21  C6  UNL     1      47.080 -30.355-100.337  1.00  0.00     0.005 C 
ENDBRANCH  19  20
ENDBRANCH   5  19
TORSDOF 3
ENDMDL
