MODEL 1
REMARK VINA RESULT: -9.060517025      0.000      0.000
REMARK  7 active torsions:
REMARK  status: ('A' for Active; 'I' for Inactive)
REMARK    1  A    between atoms: C2_2  and  C3_3 
REMARK    2  A    between atoms: C6_6  and  N1_7 
REMARK    3  A    between atoms: N1_7  and  C7_9 
REMARK    4  A    between atoms: C8_12  and  N3_13 
REMARK    5  A    between atoms: N3_13  and  C9_15 
REMARK    6  A    between atoms: C10_18  and  C11_19 
REMARK    7  A    between atoms: C18_31  and  O1_32 
ROOT
HETATM    1  C7  UNL     1       6.400  43.026  58.346  1.00  0.00     0.684 A 
HETATM    2  N2  UNL     1       7.246  43.733  59.089  1.00  0.00    -0.174 N 
ATOM      3  H2  UNL     1       7.709  43.283  59.878  1.00  0.00     0.186 HD
HETATM    4  C8  UNL     1       7.511  45.030  58.827  1.00  0.00     0.155 A 
HETATM    5  C16 UNL     1       6.893  45.662  57.757  1.00  0.00     0.072 A 
HETATM    6 BR1  UNL     1       7.301  47.476  57.440  1.00  0.00    -0.046 Br
HETATM    7  C17 UNL     1       6.020  44.923  56.996  1.00  0.00     0.129 A 
HETATM    8  N6  UNL     1       5.800  43.637  57.309  1.00  0.00    -0.200 N 
ATOM      9  H6  UNL     1       5.150  43.099  56.735  1.00  0.00     0.183 HD
ENDROOT
BRANCH   4  10
HETATM   10  N3  UNL     1       8.413  45.708  59.656  1.00  0.00    -0.174 N 
ATOM     11  H3  UNL     1       9.122  46.300  59.222  1.00  0.00     0.186 HD
BRANCH  10  12
HETATM   12  C9  UNL     1       8.387  45.616  60.961  1.00  0.00     0.684 A 
HETATM   13  N4  UNL     1       9.515  45.515  61.680  1.00  0.00    -0.195 N 
HETATM   14  C10 UNL     1       9.510  45.419  63.020  1.00  0.00     0.028 A 
ATOM     15  H4  UNL     1      10.411  45.511  61.190  1.00  0.00     0.184 HD
HETATM   16  C13 UNL     1       8.310  45.426  63.666  1.00  0.00     0.050 A 
HETATM   17  C14 UNL     1       7.117  45.528  62.963  1.00  0.00     0.024 A 
HETATM   18  C15 UNL     1       5.793  45.536  63.654  1.00  0.00     0.068 C 
HETATM   19  N5  UNL     1       7.218  45.619  61.626  1.00  0.00    -0.196 N 
ATOM     20  H5  UNL     1       6.357  45.694  61.083  1.00  0.00     0.184 HD
BRANCH  14  21
HETATM   21  C11 UNL     1      10.822  45.315  63.691  1.00  0.00     0.053 C 
HETATM   22  C12 UNL     1      10.727  44.618  65.031  1.00  0.00     0.011 C 
ENDBRANCH  14  21
ENDBRANCH  10  12
ENDBRANCH   4  10
BRANCH   1  23
HETATM   23  N1  UNL     1       6.138  41.784  58.585  1.00  0.00    -0.189 N 
ATOM     24  H1  UNL     1       5.248  41.520  59.008  1.00  0.00     0.184 HD
BRANCH  23  25
HETATM   25  C6  UNL     1       7.099  40.780  58.256  1.00  0.00     0.082 A 
HETATM   26  C5  UNL     1       8.278  41.072  57.599  1.00  0.00     0.033 A 
HETATM   27  C4  UNL     1       9.143  40.042  57.324  1.00  0.00     0.009 A 
HETATM   28  C3  UNL     1       8.882  38.738  57.678  1.00  0.00    -0.056 A 
HETATM   29  C20 UNL     1       7.706  38.455  58.332  1.00  0.00     0.046 A 
HETATM   30  C18 UNL     1       6.807  39.471  58.626  1.00  0.00     0.096 A 
BRANCH  28  31
HETATM   31  C2  UNL     1       9.881  37.664  57.341  1.00  0.00     0.034 C 
HETATM   32  C1  UNL     1       9.532  37.149  55.958  1.00  0.00     0.010 C 
ENDBRANCH  28  31
BRANCH  30  33
HETATM   33  O1  UNL     1       5.613  39.200  59.289  1.00  0.00    -0.354 OA
HETATM   34  C19 UNL     1       5.666  38.743  60.627  1.00  0.00     0.210 C 
ENDBRANCH  30  33
ENDBRANCH  23  25
ENDBRANCH   1  23
TORSDOF 7
ENDMDL
MODEL 2
REMARK VINA RESULT: -8.871427072      3.817      6.711
REMARK  7 active torsions:
REMARK  status: ('A' for Active; 'I' for Inactive)
REMARK    1  A    between atoms: C2_2  and  C3_3 
REMARK    2  A    between atoms: C6_6  and  N1_7 
REMARK    3  A    between atoms: N1_7  and  C7_9 
REMARK    4  A    between atoms: C8_12  and  N3_13 
REMARK    5  A    between atoms: N3_13  and  C9_15 
REMARK    6  A    between atoms: C10_18  and  C11_19 
REMARK    7  A    between atoms: C18_31  and  O1_32 
ROOT
HETATM    1  C7  UNL     1       8.530  45.956  61.071  1.00  0.00     0.684 A 
HETATM    2  N2  UNL     1       7.216  45.804  60.933  1.00  0.00    -0.174 N 
ATOM      3  H2  UNL     1       6.595  46.178  61.651  1.00  0.00     0.186 HD
HETATM    4  C8  UNL     1       6.680  45.168  59.871  1.00  0.00     0.155 A 
HETATM    5  C16 UNL     1       7.505  44.650  58.884  1.00  0.00     0.072 A 
HETATM    6 BR1  UNL     1       6.700  43.770  57.422  1.00  0.00    -0.046 Br
HETATM    7  C17 UNL     1       8.861  44.812  59.035  1.00  0.00     0.129 A 
HETATM    8  N6  UNL     1       9.331  45.454  60.115  1.00  0.00    -0.200 N 
ATOM      9  H6  UNL     1      10.340  45.568  60.214  1.00  0.00     0.183 HD
ENDROOT
BRANCH   4  10
HETATM   10  N3  UNL     1       5.287  45.047  59.798  1.00  0.00    -0.174 N 
ATOM     11  H3  UNL     1       4.807  45.427  58.982  1.00  0.00     0.186 HD
BRANCH  10  12
HETATM   12  C9  UNL     1       4.573  44.468  60.731  1.00  0.00     0.684 A 
HETATM   13  N4  UNL     1       3.890  45.184  61.637  1.00  0.00    -0.195 N 
HETATM   14  C10 UNL     1       3.152  44.610  62.602  1.00  0.00     0.028 A 
ATOM     15  H4  UNL     1       3.933  46.203  61.591  1.00  0.00     0.184 HD
HETATM   16  C13 UNL     1       3.101  43.249  62.654  1.00  0.00     0.050 A 
HETATM   17  C14 UNL     1       3.791  42.467  61.738  1.00  0.00     0.024 A 
HETATM   18  C15 UNL     1       3.746  40.975  61.781  1.00  0.00     0.068 C 
HETATM   19  N5  UNL     1       4.503  43.127  60.808  1.00  0.00    -0.196 N 
ATOM     20  H5  UNL     1       5.022  42.579  60.122  1.00  0.00     0.184 HD
BRANCH  14  21
HETATM   21  C11 UNL     1       2.449  45.512  63.536  1.00  0.00     0.053 C 
HETATM   22  C12 UNL     1       3.313  45.904  64.714  1.00  0.00     0.011 C 
ENDBRANCH  14  21
ENDBRANCH  10  12
ENDBRANCH   4  10
BRANCH   1  23
HETATM   23  N1  UNL     1       9.056  46.563  62.083  1.00  0.00    -0.189 N 
ATOM     24  H1  UNL     1       9.026  47.581  62.141  1.00  0.00     0.184 HD
BRANCH  23  25
HETATM   25  C6  UNL     1       9.680  45.804  63.119  1.00  0.00     0.082 A 
HETATM   26  C5  UNL     1      11.049  45.635  63.190  1.00  0.00     0.033 A 
HETATM   27  C4  UNL     1      11.561  44.889  64.222  1.00  0.00     0.009 A 
HETATM   28  C3  UNL     1      10.766  44.308  65.184  1.00  0.00    -0.056 A 
HETATM   29  C20 UNL     1       9.404  44.481  65.107  1.00  0.00     0.046 A 
HETATM   30  C18 UNL     1       8.851  45.228  64.076  1.00  0.00     0.096 A 
BRANCH  28  31
HETATM   31  C2  UNL     1      11.403  43.504  66.286  1.00  0.00     0.034 C 
HETATM   32  C1  UNL     1      12.899  43.516  66.037  1.00  0.00     0.010 C 
ENDBRANCH  28  31
BRANCH  30  33
HETATM   33  O1  UNL     1       7.475  45.413  63.986  1.00  0.00    -0.354 OA
HETATM   34  C19 UNL     1       6.645  44.279  63.809  1.00  0.00     0.210 C 
ENDBRANCH  30  33
ENDBRANCH  23  25
ENDBRANCH   1  23
TORSDOF 7
ENDMDL
MODEL 3
REMARK VINA RESULT: -8.836234039      0.302      1.961
REMARK  7 active torsions:
REMARK  status: ('A' for Active; 'I' for Inactive)
REMARK    1  A    between atoms: C2_2  and  C3_3 
REMARK    2  A    between atoms: C6_6  and  N1_7 
REMARK    3  A    between atoms: N1_7  and  C7_9 
REMARK    4  A    between atoms: C8_12  and  N3_13 
REMARK    5  A    between atoms: N3_13  and  C9_15 
REMARK    6  A    between atoms: C10_18  and  C11_19 
REMARK    7  A    between atoms: C18_31  and  O1_32 
ROOT
HETATM    1  C7  UNL     1       6.422  43.076  58.380  1.00  0.00     0.684 A 
HETATM    2  N2  UNL     1       7.277  43.750  59.143  1.00  0.00    -0.174 N 
ATOM      3  H2  UNL     1       7.726  43.273  59.925  1.00  0.00     0.186 HD
HETATM    4  C8  UNL     1       7.569  45.047  58.913  1.00  0.00     0.155 A 
HETATM    5  C16 UNL     1       6.970  45.715  57.854  1.00  0.00     0.072 A 
HETATM    6 BR1  UNL     1       7.414  47.527  57.581  1.00  0.00    -0.046 Br
HETATM    7  C17 UNL     1       6.087  45.011  57.072  1.00  0.00     0.129 A 
HETATM    8  N6  UNL     1       5.841  43.722  57.354  1.00  0.00    -0.200 N 
ATOM      9  H6  UNL     1       5.184  43.211  56.764  1.00  0.00     0.183 HD
ENDROOT
BRANCH   4  10
HETATM   10  N3  UNL     1       8.479  45.688  59.762  1.00  0.00    -0.174 N 
ATOM     11  H3  UNL     1       9.213  46.262  59.345  1.00  0.00     0.186 HD
BRANCH  10  12
HETATM   12  C9  UNL     1       8.430  45.584  61.066  1.00  0.00     0.684 A 
HETATM   13  N4  UNL     1       7.263  45.594  61.727  1.00  0.00    -0.195 N 
HETATM   14  C10 UNL     1       7.191  45.489  63.065  1.00  0.00     0.028 A 
ATOM     15  H4  UNL     1       6.397  45.684  61.194  1.00  0.00     0.184 HD
HETATM   16  C13 UNL     1       8.353  45.368  63.768  1.00  0.00     0.050 A 
HETATM   17  C14 UNL     1       9.584  45.353  63.127  1.00  0.00     0.024 A 
HETATM   18  C15 UNL     1      10.865  45.222  63.881  1.00  0.00     0.068 C 
HETATM   19  N5  UNL     1       9.559  45.464  61.787  1.00  0.00    -0.196 N 
ATOM     20  H5  UNL     1      10.449  45.457  61.288  1.00  0.00     0.184 HD
BRANCH  14  21
HETATM   21  C11 UNL     1       5.844  45.512  63.669  1.00  0.00     0.053 C 
HETATM   22  C12 UNL     1       5.079  44.232  63.411  1.00  0.00     0.011 C 
ENDBRANCH  14  21
ENDBRANCH  10  12
ENDBRANCH   4  10
BRANCH   1  23
HETATM   23  N1  UNL     1       6.135  41.834  58.589  1.00  0.00    -0.189 N 
ATOM     24  H1  UNL     1       5.230  41.578  58.984  1.00  0.00     0.184 HD
BRANCH  23  25
HETATM   25  C6  UNL     1       7.088  40.821  58.266  1.00  0.00     0.082 A 
HETATM   26  C5  UNL     1       8.271  41.101  57.609  1.00  0.00     0.033 A 
HETATM   27  C4  UNL     1       9.128  40.063  57.340  1.00  0.00     0.009 A 
HETATM   28  C3  UNL     1       8.855  38.762  57.699  1.00  0.00    -0.056 A 
HETATM   29  C20 UNL     1       7.675  38.491  58.352  1.00  0.00     0.046 A 
HETATM   30  C18 UNL     1       6.785  39.517  58.640  1.00  0.00     0.096 A 
BRANCH  28  31
HETATM   31  C2  UNL     1       9.846  37.679  57.368  1.00  0.00     0.034 C 
HETATM   32  C1  UNL     1       9.509  37.177  55.978  1.00  0.00     0.010 C 
ENDBRANCH  28  31
BRANCH  30  33
HETATM   33  O1  UNL     1       5.587  39.258  59.302  1.00  0.00    -0.354 OA
HETATM   34  C19 UNL     1       5.635  38.758  60.626  1.00  0.00     0.210 C 
ENDBRANCH  30  33
ENDBRANCH  23  25
ENDBRANCH   1  23
TORSDOF 7
ENDMDL
MODEL 4
REMARK VINA RESULT: -8.794066054      1.304      1.772
REMARK  7 active torsions:
REMARK  status: ('A' for Active; 'I' for Inactive)
REMARK    1  A    between atoms: C2_2  and  C3_3 
REMARK    2  A    between atoms: C6_6  and  N1_7 
REMARK    3  A    between atoms: N1_7  and  C7_9 
REMARK    4  A    between atoms: C8_12  and  N3_13 
REMARK    5  A    between atoms: N3_13  and  C9_15 
REMARK    6  A    between atoms: C10_18  and  C11_19 
REMARK    7  A    between atoms: C18_31  and  O1_32 
ROOT
HETATM    1  C7  UNL     1       6.484  43.027  58.082  1.00  0.00     0.684 A 
HETATM    2  N2  UNL     1       7.417  43.633  58.811  1.00  0.00    -0.174 N 
ATOM      3  H2  UNL     1       7.937  43.091  59.501  1.00  0.00     0.186 HD
HETATM    4  C8  UNL     1       7.694  44.945  58.666  1.00  0.00     0.155 A 
HETATM    5  C16 UNL     1       6.999  45.702  57.733  1.00  0.00     0.072 A 
HETATM    6 BR1  UNL     1       7.430  47.531  57.574  1.00  0.00    -0.046 Br
HETATM    7  C17 UNL     1       6.037  45.068  56.985  1.00  0.00     0.129 A 
HETATM    8  N6  UNL     1       5.809  43.760  57.179  1.00  0.00    -0.200 N 
ATOM      9  H6  UNL     1       5.092  43.301  56.616  1.00  0.00     0.183 HD
ENDROOT
BRANCH   4  10
HETATM   10  N3  UNL     1       8.690  45.511  59.471  1.00  0.00    -0.174 N 
ATOM     11  H3  UNL     1       9.494  45.946  59.019  1.00  0.00     0.186 HD
BRANCH  10  12
HETATM   12  C9  UNL     1       8.635  45.506  60.779  1.00  0.00     0.684 A 
HETATM   13  N4  UNL     1       9.746  45.450  61.528  1.00  0.00    -0.195 N 
HETATM   14  C10 UNL     1       9.711  45.443  62.871  1.00  0.00     0.028 A 
ATOM     15  H4  UNL     1      10.652  45.412  61.059  1.00  0.00     0.184 HD
HETATM   16  C13 UNL     1       8.496  45.496  63.488  1.00  0.00     0.050 A 
HETATM   17  C14 UNL     1       7.320  45.554  62.754  1.00  0.00     0.024 A 
HETATM   18  C15 UNL     1       5.981  45.611  63.412  1.00  0.00     0.068 C 
HETATM   19  N5  UNL     1       7.451  45.556  61.416  1.00  0.00    -0.196 N 
ATOM     20  H5  UNL     1       6.602  45.597  60.850  1.00  0.00     0.184 HD
BRANCH  14  21
HETATM   21  C11 UNL     1      11.007  45.381  63.577  1.00  0.00     0.053 C 
HETATM   22  C12 UNL     1      10.862  44.887  65.000  1.00  0.00     0.011 C 
ENDBRANCH  14  21
ENDBRANCH  10  12
ENDBRANCH   4  10
BRANCH   1  23
HETATM   23  N1  UNL     1       6.208  41.772  58.212  1.00  0.00    -0.189 N 
ATOM     24  H1  UNL     1       5.368  41.481  58.712  1.00  0.00     0.184 HD
BRANCH  23  25
HETATM   25  C6  UNL     1       7.084  40.792  57.652  1.00  0.00     0.082 A 
HETATM   26  C5  UNL     1       8.113  40.220  58.375  1.00  0.00     0.033 A 
HETATM   27  C4  UNL     1       8.904  39.286  57.755  1.00  0.00     0.009 A 
HETATM   28  C3  UNL     1       8.711  38.900  56.447  1.00  0.00    -0.056 A 
HETATM   29  C20 UNL     1       7.685  39.474  55.734  1.00  0.00     0.046 A 
HETATM   30  C18 UNL     1       6.865  40.422  56.329  1.00  0.00     0.096 A 
BRANCH  28  31
HETATM   31  C2  UNL     1       9.622  37.869  55.838  1.00  0.00     0.034 C 
HETATM   32  C1  UNL     1      10.346  37.183  56.980  1.00  0.00     0.010 C 
ENDBRANCH  28  31
BRANCH  30  33
HETATM   33  O1  UNL     1       5.822  41.011  55.620  1.00  0.00    -0.354 OA
HETATM   34  C19 UNL     1       6.076  41.502  54.316  1.00  0.00     0.210 C 
ENDBRANCH  30  33
ENDBRANCH  23  25
ENDBRANCH   1  23
TORSDOF 7
ENDMDL
MODEL 5
REMARK VINA RESULT: -8.715847326      2.752      7.319
REMARK  7 active torsions:
REMARK  status: ('A' for Active; 'I' for Inactive)
REMARK    1  A    between atoms: C2_2  and  C3_3 
REMARK    2  A    between atoms: C6_6  and  N1_7 
REMARK    3  A    between atoms: N1_7  and  C7_9 
REMARK    4  A    between atoms: C8_12  and  N3_13 
REMARK    5  A    between atoms: N3_13  and  C9_15 
REMARK    6  A    between atoms: C10_18  and  C11_19 
REMARK    7  A    between atoms: C18_31  and  O1_32 
ROOT
HETATM    1  C7  UNL     1       5.906  44.815  62.028  1.00  0.00     0.684 A 
HETATM    2  N2  UNL     1       6.305  43.669  61.482  1.00  0.00    -0.174 N 
ATOM      3  H2  UNL     1       7.299  43.521  61.312  1.00  0.00     0.186 HD
HETATM    4  C8  UNL     1       5.431  42.698  61.148  1.00  0.00     0.155 A 
HETATM    5  C16 UNL     1       4.074  42.878  61.372  1.00  0.00     0.072 A 
HETATM    6 BR1  UNL     1       2.899  41.486  60.884  1.00  0.00    -0.046 Br
HETATM    7  C17 UNL     1       3.671  44.065  61.935  1.00  0.00     0.129 A 
HETATM    8  N6  UNL     1       4.591  44.991  62.245  1.00  0.00    -0.200 N 
ATOM      9  H6  UNL     1       4.278  45.868  62.663  1.00  0.00     0.183 HD
ENDROOT
BRANCH   4  10
HETATM   10  N3  UNL     1       5.928  41.520  60.577  1.00  0.00    -0.174 N 
ATOM     11  H3  UNL     1       5.909  40.664  61.131  1.00  0.00     0.186 HD
BRANCH  10  12
HETATM   12  C9  UNL     1       6.416  41.469  59.363  1.00  0.00     0.684 A 
HETATM   13  N4  UNL     1       7.461  40.684  59.060  1.00  0.00    -0.195 N 
HETATM   14  C10 UNL     1       7.977  40.617  57.821  1.00  0.00     0.028 A 
ATOM     15  H4  UNL     1       7.878  40.116  59.798  1.00  0.00     0.184 HD
HETATM   16  C13 UNL     1       7.411  41.379  56.842  1.00  0.00     0.050 A 
HETATM   17  C14 UNL     1       6.329  42.206  57.109  1.00  0.00     0.024 A 
HETATM   18  C15 UNL     1       5.698  43.047  56.050  1.00  0.00     0.068 C 
HETATM   19  N5  UNL     1       5.880  42.209  58.377  1.00  0.00    -0.196 N 
ATOM     20  H5  UNL     1       5.086  42.809  58.603  1.00  0.00     0.184 HD
BRANCH  14  21
HETATM   21  C11 UNL     1       9.126  39.712  57.620  1.00  0.00     0.053 C 
HETATM   22  C12 UNL     1       8.726  38.254  57.688  1.00  0.00     0.011 C 
ENDBRANCH  14  21
ENDBRANCH  10  12
ENDBRANCH   4  10
BRANCH   1  23
HETATM   23  N1  UNL     1       6.732  45.753  62.353  1.00  0.00    -0.189 N 
ATOM     24  H1  UNL     1       6.518  46.725  62.126  1.00  0.00     0.184 HD
BRANCH  23  25
HETATM   25  C6  UNL     1       7.947  45.426  63.030  1.00  0.00     0.082 A 
HETATM   26  C5  UNL     1       7.962  44.857  64.288  1.00  0.00     0.033 A 
HETATM   27  C4  UNL     1       9.177  44.577  64.861  1.00  0.00     0.009 A 
HETATM   28  C3  UNL     1      10.373  44.840  64.233  1.00  0.00    -0.056 A 
HETATM   29  C20 UNL     1      10.350  45.407  62.980  1.00  0.00     0.046 A 
HETATM   30  C18 UNL     1       9.139  45.704  62.370  1.00  0.00     0.096 A 
BRANCH  28  31
HETATM   31  C2  UNL     1      11.665  44.503  64.927  1.00  0.00     0.034 C 
HETATM   32  C1  UNL     1      11.337  43.499  66.016  1.00  0.00     0.010 C 
ENDBRANCH  28  31
BRANCH  30  33
HETATM   33  O1  UNL     1       9.099  46.278  61.102  1.00  0.00    -0.354 OA
HETATM   34  C19 UNL     1       9.156  45.430  59.969  1.00  0.00     0.210 C 
ENDBRANCH  30  33
ENDBRANCH  23  25
ENDBRANCH   1  23
TORSDOF 7
ENDMDL
