MODEL 1
REMARK VINA RESULT: -8.525198830      0.000      0.000
REMARK  8 active torsions:
REMARK  status: ('A' for Active; 'I' for Inactive)
REMARK    1  A    between atoms: N3_8  and  C4_10 
REMARK    2  A    between atoms: C4_10  and  C5_11 
REMARK    3  A    between atoms: C5_11  and  N4_12 
REMARK    4  A    between atoms: C6_16  and  S1_17 
REMARK    5  A    between atoms: S1_17  and  C7_19 
REMARK    6  A    between atoms: C7_19  and  C8_20 
REMARK    7  A    between atoms: C8_20  and  C9_21 
REMARK    8  A    between atoms: C9_21  and  C10_22 
ROOT
HETATM    1  C1  UNL     1      -3.765 -40.192  77.417  1.00  0.00     0.071 C 
HETATM    2  C2  UNL     1      -2.571 -39.270  77.447  1.00  0.00     0.045 A 
HETATM    3  N1  UNL     1      -1.319 -39.609  77.762  1.00  0.00    -0.302 N 
ATOM      4  H1  UNL     1      -1.014 -40.547  78.022  1.00  0.00     0.186 HD
HETATM    5  N2  UNL     1      -0.534 -38.552  77.690  1.00  0.00    -0.284 N 
ATOM      6  H2  UNL     1       0.467 -38.559  77.886  1.00  0.00     0.188 HD
HETATM    7  C3  UNL     1      -1.230 -37.470  77.325  1.00  0.00     0.137 A 
HETATM    8  N3  UNL     1      -0.795 -36.257  77.152  1.00  0.00    -0.372 N 
ATOM      9  H3  UNL     1      -1.427 -35.508  76.870  1.00  0.00     0.161 HD
HETATM   10  C6  UNL     1      -2.556 -37.901  77.159  1.00  0.00     0.100 A 
ENDROOT
BRANCH  10  11
HETATM   11  S1  UNL     1      -3.876 -36.952  76.694  1.00  0.00     0.055 S 
HETATM   12  O1  UNL     1      -4.735 -37.288  75.399  1.00  0.00    -0.253 OA
BRANCH  11  13
HETATM   13  C7  UNL     1      -4.083 -35.472  77.537  1.00  0.00     0.114 C 
BRANCH  13  14
HETATM   14  C8  UNL     1      -4.072 -35.620  79.039  1.00  0.00     0.017 C 
BRANCH  14  15
HETATM   15  C9  UNL     1      -3.900 -34.297  79.699  1.00  0.00     0.039 C 
BRANCH  15  16
HETATM   16  C10 UNL     1      -5.168 -33.741  80.187  1.00  0.00    -0.052 A 
HETATM   17  C11 UNL     1      -5.737 -34.222  81.352  1.00  0.00     0.024 A 
HETATM   18  C12 UNL     1      -6.937 -33.699  81.766  1.00  0.00     0.092 A 
HETATM   19  N5  UNL     1      -7.549 -32.745  81.064  1.00  0.00    -0.334 N 
HETATM   20  C13 UNL     1      -7.015 -32.252  79.915  1.00  0.00     0.245 A 
ATOM     21  H5  UNL     1      -8.439 -32.375  81.397  1.00  0.00     0.168 HD
HETATM   22  O2  UNL     1      -7.636 -31.355  79.295  1.00  0.00    -0.268 OA
HETATM   23  C14 UNL     1      -5.831 -32.760  79.497  1.00  0.00     0.081 A 
ENDBRANCH  15  16
ENDBRANCH  14  15
ENDBRANCH  13  14
ENDBRANCH  11  13
ENDBRANCH  10  11
BRANCH   8  24
HETATM   24  C4  UNL     1       0.600 -36.001  77.369  1.00  0.00     0.148 C 
BRANCH  24  25
HETATM   25  C5  UNL     1       1.060 -34.998  76.328  1.00  0.00     0.249 C 
BRANCH  25  26
HETATM   26  N4  UNL     1       1.622 -35.705  75.198  1.00  0.00    -0.078 N 
ATOM     27  H43 UNL     1       1.334 -35.301  74.307  1.00  0.00     0.274 HD
ATOM     28  H42 UNL     1       2.627 -35.552  75.108  1.00  0.00     0.274 HD
ATOM     29  H41 UNL     1       1.387 -36.695  75.269  1.00  0.00     0.274 HD
ENDBRANCH  25  26
ENDBRANCH  24  25
ENDBRANCH   8  24
TORSDOF 8
ENDMDL
MODEL 2
REMARK VINA RESULT: -8.419938627      2.869      4.795
REMARK  8 active torsions:
REMARK  status: ('A' for Active; 'I' for Inactive)
REMARK    1  A    between atoms: N3_8  and  C4_10 
REMARK    2  A    between atoms: C4_10  and  C5_11 
REMARK    3  A    between atoms: C5_11  and  N4_12 
REMARK    4  A    between atoms: C6_16  and  S1_17 
REMARK    5  A    between atoms: S1_17  and  C7_19 
REMARK    6  A    between atoms: C7_19  and  C8_20 
REMARK    7  A    between atoms: C8_20  and  C9_21 
REMARK    8  A    between atoms: C9_21  and  C10_22 
ROOT
HETATM    1  C1  UNL     1       0.170 -34.275  77.434  1.00  0.00     0.071 C 
HETATM    2  C2  UNL     1      -0.260 -35.716  77.312  1.00  0.00     0.045 A 
HETATM    3  N1  UNL     1      -0.113 -36.496  76.239  1.00  0.00    -0.302 N 
ATOM      4  H1  UNL     1       0.317 -36.208  75.360  1.00  0.00     0.186 HD
HETATM    5  N2  UNL     1      -0.606 -37.694  76.482  1.00  0.00    -0.284 N 
ATOM      6  H2  UNL     1      -0.611 -38.466  75.815  1.00  0.00     0.188 HD
HETATM    7  C3  UNL     1      -1.101 -37.760  77.724  1.00  0.00     0.137 A 
HETATM    8  N3  UNL     1      -1.664 -38.774  78.310  1.00  0.00    -0.372 N 
ATOM      9  H3  UNL     1      -2.005 -38.703  79.269  1.00  0.00     0.161 HD
HETATM   10  C6  UNL     1      -0.892 -36.492  78.290  1.00  0.00     0.100 A 
ENDROOT
BRANCH  10  11
HETATM   11  S1  UNL     1      -1.314 -36.001  79.852  1.00  0.00     0.055 S 
HETATM   12  O1  UNL     1      -0.988 -36.892  81.128  1.00  0.00    -0.253 OA
BRANCH  11  13
HETATM   13  C7  UNL     1      -2.335 -34.627  79.966  1.00  0.00     0.114 C 
BRANCH  13  14
HETATM   14  C8  UNL     1      -3.805 -34.963  80.029  1.00  0.00     0.017 C 
BRANCH  14  15
HETATM   15  C9  UNL     1      -4.599 -34.021  79.193  1.00  0.00     0.039 C 
BRANCH  15  16
HETATM   16  C10 UNL     1      -4.368 -34.209  77.755  1.00  0.00    -0.052 A 
HETATM   17  C11 UNL     1      -4.187 -35.480  77.240  1.00  0.00     0.024 A 
HETATM   18  C12 UNL     1      -3.946 -35.618  75.895  1.00  0.00     0.092 A 
HETATM   19  N5  UNL     1      -3.886 -34.553  75.095  1.00  0.00    -0.334 N 
HETATM   20  C13 UNL     1      -4.059 -33.293  75.572  1.00  0.00     0.245 A 
ATOM     21  H5  UNL     1      -3.706 -34.688  74.100  1.00  0.00     0.168 HD
HETATM   22  O2  UNL     1      -3.992 -32.328  74.773  1.00  0.00    -0.268 OA
HETATM   23  C14 UNL     1      -4.298 -33.143  76.897  1.00  0.00     0.081 A 
ENDBRANCH  15  16
ENDBRANCH  14  15
ENDBRANCH  13  14
ENDBRANCH  11  13
ENDBRANCH  10  11
BRANCH   8  24
HETATM   24  C4  UNL     1      -1.793 -39.998  77.572  1.00  0.00     0.148 C 
BRANCH  24  25
HETATM   25  C5  UNL     1      -3.175 -40.026  76.949  1.00  0.00     0.249 C 
BRANCH  25  26
HETATM   26  N4  UNL     1      -4.007 -40.962  77.672  1.00  0.00    -0.078 N 
ATOM     27  H43 UNL     1      -3.469 -41.533  78.325  1.00  0.00     0.274 HD
ATOM     28  H42 UNL     1      -4.612 -40.497  78.350  1.00  0.00     0.274 HD
ATOM     29  H41 UNL     1      -4.535 -41.527  77.007  1.00  0.00     0.274 HD
ENDBRANCH  25  26
ENDBRANCH  24  25
ENDBRANCH   8  24
TORSDOF 8
ENDMDL
MODEL 3
REMARK VINA RESULT: -8.293395096      3.582      4.899
REMARK  8 active torsions:
REMARK  status: ('A' for Active; 'I' for Inactive)
REMARK    1  A    between atoms: N3_8  and  C4_10 
REMARK    2  A    between atoms: C4_10  and  C5_11 
REMARK    3  A    between atoms: C5_11  and  N4_12 
REMARK    4  A    between atoms: C6_16  and  S1_17 
REMARK    5  A    between atoms: S1_17  and  C7_19 
REMARK    6  A    between atoms: C7_19  and  C8_20 
REMARK    7  A    between atoms: C8_20  and  C9_21 
REMARK    8  A    between atoms: C9_21  and  C10_22 
ROOT
HETATM    1  C1  UNL     1      -0.214 -34.318  76.038  1.00  0.00     0.071 C 
HETATM    2  C2  UNL     1       0.973 -35.093  76.553  1.00  0.00     0.045 A 
HETATM    3  N1  UNL     1       2.230 -34.996  76.115  1.00  0.00    -0.302 N 
ATOM      4  H1  UNL     1       2.543 -34.374  75.369  1.00  0.00     0.186 HD
HETATM    5  N2  UNL     1       3.007 -35.822  76.786  1.00  0.00    -0.284 N 
ATOM      6  H2  UNL     1       4.010 -35.930  76.633  1.00  0.00     0.188 HD
HETATM    7  C3  UNL     1       2.300 -36.502  77.697  1.00  0.00     0.137 A 
HETATM    8  N3  UNL     1       2.726 -37.399  78.536  1.00  0.00    -0.372 N 
ATOM      9  H3  UNL     1       2.085 -37.852  79.189  1.00  0.00     0.161 HD
HETATM   10  C6  UNL     1       0.977 -36.052  77.572  1.00  0.00     0.100 A 
ENDROOT
BRANCH  10  11
HETATM   11  S1  UNL     1      -0.355 -36.564  78.481  1.00  0.00     0.055 S 
HETATM   12  O1  UNL     1      -1.043 -37.976  78.238  1.00  0.00    -0.253 OA
BRANCH  11  13
HETATM   13  C7  UNL     1      -1.080 -35.385  79.495  1.00  0.00     0.114 C 
BRANCH  13  14
HETATM   14  C8  UNL     1      -2.555 -35.605  79.727  1.00  0.00     0.017 C 
BRANCH  14  15
HETATM   15  C9  UNL     1      -3.346 -34.443  79.237  1.00  0.00     0.039 C 
BRANCH  15  16
HETATM   16  C10 UNL     1      -3.649 -34.529  77.803  1.00  0.00    -0.052 A 
HETATM   17  C11 UNL     1      -3.860 -35.760  77.209  1.00  0.00     0.024 A 
HETATM   18  C12 UNL     1      -4.113 -35.807  75.860  1.00  0.00     0.092 A 
HETATM   19  N5  UNL     1      -4.157 -34.692  75.130  1.00  0.00    -0.334 N 
HETATM   20  C13 UNL     1      -3.952 -33.468  75.685  1.00  0.00     0.245 A 
ATOM     21  H5  UNL     1      -4.348 -34.758  74.131  1.00  0.00     0.168 HD
HETATM   22  O2  UNL     1      -4.005 -32.454  74.950  1.00  0.00    -0.268 OA
HETATM   23  C14 UNL     1      -3.702 -33.409  77.015  1.00  0.00     0.081 A 
ENDBRANCH  15  16
ENDBRANCH  14  15
ENDBRANCH  13  14
ENDBRANCH  11  13
ENDBRANCH  10  11
BRANCH   8  24
HETATM   24  C4  UNL     1       4.121 -37.734  78.520  1.00  0.00     0.148 C 
BRANCH  24  25
HETATM   25  C5  UNL     1       4.631 -37.684  79.947  1.00  0.00     0.249 C 
BRANCH  25  26
HETATM   26  N4  UNL     1       5.367 -36.456  80.150  1.00  0.00    -0.078 N 
ATOM     27  H43 UNL     1       6.117 -36.563  80.833  1.00  0.00     0.274 HD
ATOM     28  H42 UNL     1       5.941 -36.212  79.342  1.00  0.00     0.274 HD
ATOM     29  H41 UNL     1       4.718 -35.711  80.401  1.00  0.00     0.274 HD
ENDBRANCH  25  26
ENDBRANCH  24  25
ENDBRANCH   8  24
TORSDOF 8
ENDMDL
MODEL 4
REMARK VINA RESULT: -8.214732325      2.637      3.363
REMARK  8 active torsions:
REMARK  status: ('A' for Active; 'I' for Inactive)
REMARK    1  A    between atoms: N3_8  and  C4_10 
REMARK    2  A    between atoms: C4_10  and  C5_11 
REMARK    3  A    between atoms: C5_11  and  N4_12 
REMARK    4  A    between atoms: C6_16  and  S1_17 
REMARK    5  A    between atoms: S1_17  and  C7_19 
REMARK    6  A    between atoms: C7_19  and  C8_20 
REMARK    7  A    between atoms: C8_20  and  C9_21 
REMARK    8  A    between atoms: C9_21  and  C10_22 
ROOT
HETATM    1  C1  UNL     1      -3.978 -40.287  77.474  1.00  0.00     0.071 C 
HETATM    2  C2  UNL     1      -2.720 -39.460  77.389  1.00  0.00     0.045 A 
HETATM    3  N1  UNL     1      -1.478 -39.883  77.637  1.00  0.00    -0.302 N 
ATOM      4  H1  UNL     1      -1.228 -40.832  77.914  1.00  0.00     0.186 HD
HETATM    5  N2  UNL     1      -0.623 -38.893  77.471  1.00  0.00    -0.284 N 
ATOM      6  H2  UNL     1       0.386 -38.970  77.602  1.00  0.00     0.188 HD
HETATM    7  C3  UNL     1      -1.260 -37.774  77.107  1.00  0.00     0.137 A 
HETATM    8  N3  UNL     1      -0.747 -36.605  76.858  1.00  0.00    -0.372 N 
ATOM      9  H3  UNL     1      -1.340 -35.820  76.587  1.00  0.00     0.161 HD
HETATM   10  C6  UNL     1      -2.621 -38.107  77.045  1.00  0.00     0.100 A 
ENDROOT
BRANCH  10  11
HETATM   11  S1  UNL     1      -3.896 -37.076  76.627  1.00  0.00     0.055 S 
HETATM   12  O1  UNL     1      -4.764 -37.306  75.316  1.00  0.00    -0.253 OA
BRANCH  11  13
HETATM   13  C7  UNL     1      -4.038 -35.634  77.545  1.00  0.00     0.114 C 
BRANCH  13  14
HETATM   14  C8  UNL     1      -3.945 -35.848  79.036  1.00  0.00     0.017 C 
BRANCH  14  15
HETATM   15  C9  UNL     1      -3.840 -34.548  79.751  1.00  0.00     0.039 C 
BRANCH  15  16
HETATM   16  C10 UNL     1      -2.978 -34.624  80.938  1.00  0.00    -0.052 A 
HETATM   17  C11 UNL     1      -3.236 -33.827  82.038  1.00  0.00     0.024 A 
HETATM   18  C12 UNL     1      -2.395 -33.903  83.121  1.00  0.00     0.092 A 
HETATM   19  N5  UNL     1      -1.347 -34.728  83.120  1.00  0.00    -0.334 N 
HETATM   20  C13 UNL     1      -1.068 -35.523  82.054  1.00  0.00     0.245 A 
ATOM     21  H5  UNL     1      -0.741 -34.764  83.939  1.00  0.00     0.168 HD
HETATM   22  O2  UNL     1      -0.069 -36.280  82.108  1.00  0.00    -0.268 OA
HETATM   23  C14 UNL     1      -1.891 -35.457  80.980  1.00  0.00     0.081 A 
ENDBRANCH  15  16
ENDBRANCH  14  15
ENDBRANCH  13  14
ENDBRANCH  11  13
ENDBRANCH  10  11
BRANCH   8  24
HETATM   24  C4  UNL     1       0.675 -36.450  76.973  1.00  0.00     0.148 C 
BRANCH  24  25
HETATM   25  C5  UNL     1       1.065 -35.168  76.265  1.00  0.00     0.249 C 
BRANCH  25  26
HETATM   26  N4  UNL     1       2.015 -35.471  75.217  1.00  0.00    -0.078 N 
ATOM     27  H43 UNL     1       2.788 -34.804  75.191  1.00  0.00     0.274 HD
ATOM     28  H42 UNL     1       2.557 -36.312  75.418  1.00  0.00     0.274 HD
ATOM     29  H41 UNL     1       1.526 -35.530  74.325  1.00  0.00     0.274 HD
ENDBRANCH  25  26
ENDBRANCH  24  25
ENDBRANCH   8  24
TORSDOF 8
ENDMDL
MODEL 5
REMARK VINA RESULT: -8.170878574      2.873      6.485
REMARK  8 active torsions:
REMARK  status: ('A' for Active; 'I' for Inactive)
REMARK    1  A    between atoms: N3_8  and  C4_10 
REMARK    2  A    between atoms: C4_10  and  C5_11 
REMARK    3  A    between atoms: C5_11  and  N4_12 
REMARK    4  A    between atoms: C6_16  and  S1_17 
REMARK    5  A    between atoms: S1_17  and  C7_19 
REMARK    6  A    between atoms: C7_19  and  C8_20 
REMARK    7  A    between atoms: C8_20  and  C9_21 
REMARK    8  A    between atoms: C9_21  and  C10_22 
ROOT
HETATM    1  C1  UNL     1      -3.808 -32.804  75.877  1.00  0.00     0.071 C 
HETATM    2  C2  UNL     1      -3.980 -34.288  76.088  1.00  0.00     0.045 A 
HETATM    3  N1  UNL     1      -3.954 -35.229  75.143  1.00  0.00    -0.302 N 
ATOM      4  H1  UNL     1      -3.808 -35.055  74.148  1.00  0.00     0.186 HD
HETATM    5  N2  UNL     1      -4.144 -36.417  75.682  1.00  0.00    -0.284 N 
ATOM      6  H2  UNL     1      -4.166 -37.294  75.162  1.00  0.00     0.188 HD
HETATM    7  C3  UNL     1      -4.306 -36.314  77.006  1.00  0.00     0.137 A 
HETATM    8  N3  UNL     1      -4.514 -37.268  77.865  1.00  0.00    -0.372 N 
ATOM      9  H3  UNL     1      -4.623 -37.064  78.859  1.00  0.00     0.161 HD
HETATM   10  C6  UNL     1      -4.205 -34.946  77.303  1.00  0.00     0.100 A 
ENDROOT
BRANCH  10  11
HETATM   11  S1  UNL     1      -4.324 -34.231  78.831  1.00  0.00     0.055 S 
HETATM   12  O1  UNL     1      -5.399 -33.105  79.149  1.00  0.00    -0.253 OA
BRANCH  11  13
HETATM   13  C7  UNL     1      -3.066 -34.596  79.940  1.00  0.00     0.114 C 
BRANCH  13  14
HETATM   14  C8  UNL     1      -2.069 -35.603  79.420  1.00  0.00     0.017 C 
BRANCH  14  15
HETATM   15  C9  UNL     1      -0.770 -34.947  79.105  1.00  0.00     0.039 C 
BRANCH  15  16
HETATM   16  C10 UNL     1      -0.139 -35.494  77.897  1.00  0.00    -0.052 A 
HETATM   17  C11 UNL     1       0.646 -34.686  77.095  1.00  0.00     0.024 A 
HETATM   18  C12 UNL     1       1.199 -35.222  75.959  1.00  0.00     0.092 A 
HETATM   19  N5  UNL     1       0.987 -36.496  75.627  1.00  0.00    -0.334 N 
HETATM   20  C13 UNL     1       0.219 -37.314  76.394  1.00  0.00     0.245 A 
ATOM     21  H5  UNL     1       1.412 -36.866  74.777  1.00  0.00     0.168 HD
HETATM   22  O2  UNL     1       0.055 -38.504  76.033  1.00  0.00    -0.268 OA
HETATM   23  C14 UNL     1      -0.331 -36.797  77.519  1.00  0.00     0.081 A 
ENDBRANCH  15  16
ENDBRANCH  14  15
ENDBRANCH  13  14
ENDBRANCH  11  13
ENDBRANCH  10  11
BRANCH   8  24
HETATM   24  C4  UNL     1      -4.588 -38.615  77.377  1.00  0.00     0.148 C 
BRANCH  24  25
HETATM   25  C5  UNL     1      -3.207 -39.230  77.488  1.00  0.00     0.249 C 
BRANCH  25  26
HETATM   26  N4  UNL     1      -2.790 -39.709  76.189  1.00  0.00    -0.078 N 
ATOM     27  H43 UNL     1      -1.918 -40.237  76.232  1.00  0.00     0.274 HD
ATOM     28  H42 UNL     1      -3.393 -40.455  75.840  1.00  0.00     0.274 HD
ATOM     29  H41 UNL     1      -2.735 -38.923  75.541  1.00  0.00     0.274 HD
ENDBRANCH  25  26
ENDBRANCH  24  25
ENDBRANCH   8  24
TORSDOF 8
ENDMDL
