MODEL 1
REMARK VINA RESULT: -6.580469383      0.000      0.000
REMARK  8 active torsions:
REMARK  status: ('A' for Active; 'I' for Inactive)
REMARK    1  A    between atoms: C1_2  and  C2_4 
REMARK    2  A    between atoms: C4_6  and  C5_7 
REMARK    3  A    between atoms: C6_11  and  N3_12 
REMARK    4  A    between atoms: N3_12  and  C7_14 
REMARK    5  A    between atoms: C8_17  and  O4_18 
REMARK    6  A    between atoms: C9_20  and  O5_21 
REMARK    7  A    between atoms: C9_20  and  C10_23 
REMARK    8  A    between atoms: C10_23  and  O6_24 
ROOT
HETATM    1  N3  UNL     1      55.460 -13.597  15.627  1.00  0.00    -0.154 N 
ATOM      2  H3  UNL     1      56.184 -14.188  15.217  1.00  0.00     0.188 HD
ENDROOT
BRANCH   1   3
HETATM    3  C6  UNL     1      54.439 -13.102  14.786  1.00  0.00     0.254 C 
HETATM    4  O3  UNL     1      53.145 -13.373  15.180  1.00  0.00    -0.302 OA
HETATM    5  C4  UNL     1      51.887 -12.860  14.910  1.00  0.00     0.246 C 
HETATM    6  C3  UNL     1      51.695 -12.466  13.494  1.00  0.00     0.051 C 
HETATM    7  C2  UNL     1      52.562 -12.052  12.606  1.00  0.00     0.112 C 
HETATM    8  N7  UNL     1      53.967 -11.856  12.742  1.00  0.00    -0.293 N 
HETATM    9  N6  UNL     1      54.762 -12.444  13.727  1.00  0.00    -0.264 N 
ATOM     10  H7  UNL     1      54.426 -11.241  12.070  1.00  0.00     0.187 HD
ATOM     11  H6  UNL     1      55.765 -12.334  13.584  1.00  0.00     0.190 HD
BRANCH   5  12
HETATM   12  C5  UNL     1      51.615 -11.722  15.819  1.00  0.00     0.264 C 
HETATM   13  N2  UNL     1      51.699 -11.833  17.235  1.00  0.00    -0.059 NA
HETATM   14  O2  UNL     1      51.298 -10.619  15.307  1.00  0.00    -0.274 OA
ENDBRANCH   5  12
BRANCH   7  15
HETATM   15  C1  UNL     1      52.035 -11.735  11.265  1.00  0.00     0.282 C 
HETATM   16  N1  UNL     1      50.638 -11.535  11.113  1.00  0.00    -0.056 NA
HETATM   17  O1  UNL     1      52.765 -11.639  10.271  1.00  0.00    -0.269 OA
ENDBRANCH   7  15
ENDBRANCH   1   3
BRANCH   1  18
HETATM   18  C7  UNL     1      55.528 -13.306  17.031  1.00  0.00     0.679 C 
HETATM   19  N4  UNL     1      54.731 -12.450  17.576  1.00  0.00    -0.197 N 
HETATM   20  C8  UNL     1      54.858 -12.210  18.996  1.00  0.00     0.273 C 
ATOM     21  H4  UNL     1      54.031 -11.958  17.021  1.00  0.00     0.180 HD
HETATM   22  C9  UNL     1      55.005 -13.529  19.735  1.00  0.00     0.139 C 
HETATM   23  C11 UNL     1      56.143 -14.340  19.200  1.00  0.00     0.182 C 
HETATM   24  N5  UNL     1      56.481 -13.959  17.857  1.00  0.00    -0.223 N 
ATOM     25  H5  UNL     1      57.413 -14.159  17.493  1.00  0.00     0.177 HD
BRANCH  20  26
HETATM   26  O4  UNL     1      53.743 -11.562  19.506  1.00  0.00    -0.373 OA
ATOM     27  H4  UNL     1      53.371 -10.958  18.874  1.00  0.00     0.212 HD
ENDBRANCH  20  26
BRANCH  22  28
HETATM   28  O5  UNL     1      53.785 -14.201  19.575  1.00  0.00    -0.381 OA
ATOM     29  H5  UNL     1      53.764 -14.872  20.247  1.00  0.00     0.211 HD
ENDBRANCH  22  28
BRANCH  22  30
HETATM   30  C10 UNL     1      55.248 -13.249  21.193  1.00  0.00     0.208 C 
BRANCH  30  31
HETATM   31  O6  UNL     1      55.724 -11.945  21.326  1.00  0.00    -0.398 OA
ATOM     32  H6  UNL     1      55.073 -11.346  20.981  1.00  0.00     0.209 HD
ENDBRANCH  30  31
ENDBRANCH  22  30
ENDBRANCH   1  18
TORSDOF 8
ENDMDL
MODEL 2
REMARK VINA RESULT: -6.532324827      1.971      6.867
REMARK  8 active torsions:
REMARK  status: ('A' for Active; 'I' for Inactive)
REMARK    1  A    between atoms: C1_2  and  C2_4 
REMARK    2  A    between atoms: C4_6  and  C5_7 
REMARK    3  A    between atoms: C6_11  and  N3_12 
REMARK    4  A    between atoms: N3_12  and  C7_14 
REMARK    5  A    between atoms: C8_17  and  O4_18 
REMARK    6  A    between atoms: C9_20  and  O5_21 
REMARK    7  A    between atoms: C9_20  and  C10_23 
REMARK    8  A    between atoms: C10_23  and  O6_24 
ROOT
HETATM    1  N3  UNL     1      54.065 -14.776  15.335  1.00  0.00    -0.154 N 
ATOM      2  H3  UNL     1      54.386 -15.745  15.315  1.00  0.00     0.188 HD
ENDROOT
BRANCH   1   3
HETATM    3  C6  UNL     1      54.191 -14.049  16.539  1.00  0.00     0.254 C 
HETATM    4  O3  UNL     1      54.046 -12.681  16.438  1.00  0.00    -0.302 OA
HETATM    5  C4  UNL     1      53.763 -11.637  17.303  1.00  0.00     0.246 C 
HETATM    6  C3  UNL     1      54.402 -11.776  18.635  1.00  0.00     0.051 C 
HETATM    7  C2  UNL     1      54.743 -12.848  19.302  1.00  0.00     0.112 C 
HETATM    8  N7  UNL     1      54.598 -14.219  18.938  1.00  0.00    -0.293 N 
HETATM    9  N6  UNL     1      54.430 -14.684  17.634  1.00  0.00    -0.264 N 
ATOM     10  H7  UNL     1      54.619 -14.911  19.687  1.00  0.00     0.187 HD
ATOM     11  H6  UNL     1      54.508 -15.695  17.530  1.00  0.00     0.190 HD
BRANCH   5  12
HETATM   12  C5  UNL     1      52.294 -11.490  17.433  1.00  0.00     0.264 C 
HETATM   13  N2  UNL     1      51.387 -11.933  16.431  1.00  0.00    -0.059 NA
HETATM   14  O2  UNL     1      51.843 -10.951  18.475  1.00  0.00    -0.274 OA
ENDBRANCH   5  12
BRANCH   7  15
HETATM   15  C1  UNL     1      55.367 -12.636  20.621  1.00  0.00     0.282 C 
HETATM   16  N1  UNL     1      56.104 -11.442  20.841  1.00  0.00    -0.056 NA
HETATM   17  O1  UNL     1      55.273 -13.459  21.539  1.00  0.00    -0.269 OA
ENDBRANCH   7  15
ENDBRANCH   1   3
BRANCH   1  18
HETATM   18  C7  UNL     1      53.505 -14.216  14.137  1.00  0.00     0.679 C 
HETATM   19  N4  UNL     1      52.271 -14.415  13.819  1.00  0.00    -0.197 N 
HETATM   20  C8  UNL     1      51.779 -13.818  12.598  1.00  0.00     0.273 C 
ATOM     21  H4  UNL     1      51.660 -14.976  14.412  1.00  0.00     0.180 HD
HETATM   22  C9  UNL     1      52.258 -12.380  12.491  1.00  0.00     0.139 C 
HETATM   23  C11 UNL     1      53.747 -12.284  12.601  1.00  0.00     0.182 C 
HETATM   24  N5  UNL     1      54.306 -13.426  13.269  1.00  0.00    -0.223 N 
ATOM     25  H5  UNL     1      55.284 -13.672  13.119  1.00  0.00     0.177 HD
BRANCH  20  26
HETATM   26  O4  UNL     1      50.392 -13.805  12.559  1.00  0.00    -0.373 OA
ATOM     27  H4  UNL     1      50.064 -13.074  12.049  1.00  0.00     0.212 HD
ENDBRANCH  20  26
BRANCH  22  28
HETATM   28  O5  UNL     1      51.627 -11.684  13.531  1.00  0.00    -0.381 OA
ATOM     29  H5  UNL     1      51.024 -11.080  13.116  1.00  0.00     0.211 HD
ENDBRANCH  22  28
BRANCH  22  30
HETATM   30  C10 UNL     1      51.829 -11.818  11.164  1.00  0.00     0.208 C 
BRANCH  30  31
HETATM   31  O6  UNL     1      50.492 -11.431  11.251  1.00  0.00    -0.398 OA
ATOM     32  H6  UNL     1      50.234 -11.033  10.428  1.00  0.00     0.209 HD
ENDBRANCH  30  31
ENDBRANCH  22  30
ENDBRANCH   1  18
TORSDOF 8
ENDMDL
MODEL 3
REMARK VINA RESULT: -6.311201252      4.753      6.448
REMARK  8 active torsions:
REMARK  status: ('A' for Active; 'I' for Inactive)
REMARK    1  A    between atoms: C1_2  and  C2_4 
REMARK    2  A    between atoms: C4_6  and  C5_7 
REMARK    3  A    between atoms: C6_11  and  N3_12 
REMARK    4  A    between atoms: N3_12  and  C7_14 
REMARK    5  A    between atoms: C8_17  and  O4_18 
REMARK    6  A    between atoms: C9_20  and  O5_21 
REMARK    7  A    between atoms: C9_20  and  C10_23 
REMARK    8  A    between atoms: C10_23  and  O6_24 
ROOT
HETATM    1  N3  UNL     1      55.688  -9.540  14.441  1.00  0.00    -0.154 N 
ATOM      2  H3  UNL     1      55.565  -9.788  13.459  1.00  0.00     0.188 HD
ENDROOT
BRANCH   1   3
HETATM    3  C6  UNL     1      54.905 -10.208  15.409  1.00  0.00     0.254 C 
HETATM    4  O3  UNL     1      53.539 -10.145  15.231  1.00  0.00    -0.302 OA
HETATM    5  C4  UNL     1      52.438 -10.860  15.671  1.00  0.00     0.246 C 
HETATM    6  C3  UNL     1      52.538 -11.302  17.083  1.00  0.00     0.051 C 
HETATM    7  C2  UNL     1      53.590 -11.583  17.808  1.00  0.00     0.112 C 
HETATM    8  N7  UNL     1      54.968 -11.545  17.448  1.00  0.00    -0.293 N 
HETATM    9  N6  UNL     1      55.493 -10.821  16.377  1.00  0.00    -0.264 N 
ATOM     10  H7  UNL     1      55.620 -12.088  18.015  1.00  0.00     0.187 HD
ATOM     11  H6  UNL     1      56.511 -10.768  16.358  1.00  0.00     0.190 HD
BRANCH   5  12
HETATM   12  C5  UNL     1      52.207 -12.013  14.769  1.00  0.00     0.264 C 
HETATM   13  N2  UNL     1      52.754 -13.303  15.017  1.00  0.00    -0.059 NA
HETATM   14  O2  UNL     1      51.499 -11.832  13.747  1.00  0.00    -0.274 OA
ENDBRANCH   5  12
BRANCH   7  15
HETATM   15  C1  UNL     1      53.340 -12.002  19.200  1.00  0.00     0.282 C 
HETATM   16  N1  UNL     1      53.684 -13.326  19.584  1.00  0.00    -0.056 NA
HETATM   17  O1  UNL     1      52.844 -11.245  20.042  1.00  0.00    -0.269 OA
ENDBRANCH   7  15
ENDBRANCH   1   3
BRANCH   1  18
HETATM   18  C7  UNL     1      56.650  -8.528  14.776  1.00  0.00     0.679 C 
HETATM   19  N4  UNL     1      56.430  -7.284  14.515  1.00  0.00    -0.197 N 
HETATM   20  C8  UNL     1      57.445  -6.322  14.881  1.00  0.00     0.273 C 
ATOM     21  H4  UNL     1      55.565  -6.988  14.063  1.00  0.00     0.180 HD
HETATM   22  C9  UNL     1      57.958  -6.615  16.281  1.00  0.00     0.139 C 
HETATM   23  C11 UNL     1      58.449  -8.023  16.407  1.00  0.00     0.182 C 
HETATM   24  N5  UNL     1      57.874  -8.878  15.406  1.00  0.00    -0.223 N 
ATOM     25  H5  UNL     1      58.349  -9.742  15.145  1.00  0.00     0.177 HD
BRANCH  20  26
HETATM   26  O4  UNL     1      56.946  -5.028  14.877  1.00  0.00    -0.373 OA
ATOM     27  H4  UNL     1      57.264  -4.534  14.131  1.00  0.00     0.212 HD
ENDBRANCH  20  26
BRANCH  22  28
HETATM   28  O5  UNL     1      56.882  -6.375  17.147  1.00  0.00    -0.381 OA
ATOM     29  H5  UNL     1      57.246  -5.933  17.904  1.00  0.00     0.211 HD
ENDBRANCH  22  28
BRANCH  22  30
HETATM   30  C10 UNL     1      59.088  -5.674  16.596  1.00  0.00     0.208 C 
BRANCH  30  31
HETATM   31  O6  UNL     1      59.774  -5.386  15.417  1.00  0.00    -0.398 OA
ATOM     32  H6  UNL     1      59.364  -5.858  14.701  1.00  0.00     0.209 HD
ENDBRANCH  30  31
ENDBRANCH  22  30
ENDBRANCH   1  18
TORSDOF 8
ENDMDL
MODEL 4
REMARK VINA RESULT: -6.242898499      1.990      7.022
REMARK  8 active torsions:
REMARK  status: ('A' for Active; 'I' for Inactive)
REMARK    1  A    between atoms: C1_2  and  C2_4 
REMARK    2  A    between atoms: C4_6  and  C5_7 
REMARK    3  A    between atoms: C6_11  and  N3_12 
REMARK    4  A    between atoms: N3_12  and  C7_14 
REMARK    5  A    between atoms: C8_17  and  O4_18 
REMARK    6  A    between atoms: C9_20  and  O5_21 
REMARK    7  A    between atoms: C9_20  and  C10_23 
REMARK    8  A    between atoms: C10_23  and  O6_24 
ROOT
HETATM    1  N3  UNL     1      54.591 -14.480  16.407  1.00  0.00    -0.154 N 
ATOM      2  H3  UNL     1      55.180 -15.276  16.160  1.00  0.00     0.188 HD
ENDROOT
BRANCH   1   3
HETATM    3  C6  UNL     1      54.761 -13.885  17.677  1.00  0.00     0.254 C 
HETATM    4  O3  UNL     1      54.575 -12.519  17.736  1.00  0.00    -0.302 OA
HETATM    5  C4  UNL     1      54.311 -11.586  18.725  1.00  0.00     0.246 C 
HETATM    6  C3  UNL     1      55.021 -11.850  20.000  1.00  0.00     0.051 C 
HETATM    7  C2  UNL     1      55.424 -12.977  20.526  1.00  0.00     0.112 C 
HETATM    8  N7  UNL     1      55.296 -14.304  20.020  1.00  0.00    -0.293 N 
HETATM    9  N6  UNL     1      55.072 -14.628  18.682  1.00  0.00    -0.264 N 
ATOM     10  H7  UNL     1      55.374 -15.073  20.686  1.00  0.00     0.187 HD
ATOM     11  H6  UNL     1      55.172 -15.619  18.463  1.00  0.00     0.190 HD
BRANCH   5  12
HETATM   12  C5  UNL     1      52.847 -11.501  18.941  1.00  0.00     0.264 C 
HETATM   13  N2  UNL     1      51.916 -11.408  17.870  1.00  0.00    -0.059 NA
HETATM   14  O2  UNL     1      52.422 -11.512  20.124  1.00  0.00    -0.274 OA
ENDBRANCH   5  12
BRANCH   7  15
HETATM   15  C1  UNL     1      56.110 -12.891  21.829  1.00  0.00     0.282 C 
HETATM   16  N1  UNL     1      56.028 -13.997  22.715  1.00  0.00    -0.056 NA
HETATM   17  O1  UNL     1      56.752 -11.893  22.176  1.00  0.00    -0.269 OA
ENDBRANCH   7  15
ENDBRANCH   1   3
BRANCH   1  18
HETATM   18  C7  UNL     1      53.629 -14.016  15.448  1.00  0.00     0.679 C 
HETATM   19  N4  UNL     1      52.900 -12.977  15.680  1.00  0.00    -0.197 N 
HETATM   20  C8  UNL     1      51.953 -12.570  14.667  1.00  0.00     0.273 C 
ATOM     21  H4  UNL     1      52.989 -12.458  16.554  1.00  0.00     0.180 HD
HETATM   22  C9  UNL     1      52.606 -12.617  13.296  1.00  0.00     0.139 C 
HETATM   23  C11 UNL     1      53.192 -13.963  13.007  1.00  0.00     0.182 C 
HETATM   24  N5  UNL     1      53.457 -14.697  14.213  1.00  0.00    -0.223 N 
ATOM     25  H5  UNL     1      53.523 -15.714  14.183  1.00  0.00     0.177 HD
BRANCH  20  26
HETATM   26  O4  UNL     1      51.506 -11.275  14.878  1.00  0.00    -0.373 OA
ATOM     27  H4  UNL     1      50.656 -11.129  14.479  1.00  0.00     0.212 HD
ENDBRANCH  20  26
BRANCH  22  28
HETATM   28  O5  UNL     1      53.598 -11.625  13.305  1.00  0.00    -0.381 OA
ATOM     29  H5  UNL     1      54.271 -11.932  13.901  1.00  0.00     0.211 HD
ENDBRANCH  22  28
BRANCH  22  30
HETATM   30  C10 UNL     1      51.574 -12.299  12.250  1.00  0.00     0.208 C 
BRANCH  30  31
HETATM   31  O6  UNL     1      51.561 -10.921  12.035  1.00  0.00    -0.398 OA
ATOM     32  H6  UNL     1      51.070 -10.507  12.735  1.00  0.00     0.209 HD
ENDBRANCH  30  31
ENDBRANCH  22  30
ENDBRANCH   1  18
TORSDOF 8
ENDMDL
MODEL 5
REMARK VINA RESULT: -6.175046295      2.287      7.097
REMARK  8 active torsions:
REMARK  status: ('A' for Active; 'I' for Inactive)
REMARK    1  A    between atoms: C1_2  and  C2_4 
REMARK    2  A    between atoms: C4_6  and  C5_7 
REMARK    3  A    between atoms: C6_11  and  N3_12 
REMARK    4  A    between atoms: N3_12  and  C7_14 
REMARK    5  A    between atoms: C8_17  and  O4_18 
REMARK    6  A    between atoms: C9_20  and  O5_21 
REMARK    7  A    between atoms: C9_20  and  C10_23 
REMARK    8  A    between atoms: C10_23  and  O6_24 
ROOT
HETATM    1  N3  UNL     1      51.531 -12.448  14.362  1.00  0.00    -0.154 N 
ATOM      2  H3  UNL     1      50.513 -12.390  14.317  1.00  0.00     0.188 HD
ENDROOT
BRANCH   1   3
HETATM    3  C6  UNL     1      52.166 -12.222  15.603  1.00  0.00     0.254 C 
HETATM    4  O3  UNL     1      53.491 -12.596  15.683  1.00  0.00    -0.302 OA
HETATM    5  C4  UNL     1      54.568 -12.297  16.500  1.00  0.00     0.246 C 
HETATM    6  C3  UNL     1      54.209 -12.149  17.932  1.00  0.00     0.051 C 
HETATM    7  C2  UNL     1      53.089 -11.765  18.487  1.00  0.00     0.112 C 
HETATM    8  N7  UNL     1      51.867 -11.371  17.870  1.00  0.00    -0.293 N 
HETATM    9  N6  UNL     1      51.491 -11.695  16.566  1.00  0.00    -0.264 N 
ATOM     10  H7  UNL     1      51.218 -10.810  18.422  1.00  0.00     0.187 HD
ATOM     11  H6  UNL     1      50.522 -11.478  16.336  1.00  0.00     0.190 HD
BRANCH   5  12
HETATM   12  C5  UNL     1      55.246 -11.080  15.995  1.00  0.00     0.264 C 
HETATM   13  N2  UNL     1      54.967 -10.521  14.717  1.00  0.00    -0.059 NA
HETATM   14  O2  UNL     1      56.100 -10.528  16.734  1.00  0.00    -0.274 OA
ENDBRANCH   5  12
BRANCH   7  15
HETATM   15  C1  UNL     1      53.062 -11.725  19.961  1.00  0.00     0.282 C 
HETATM   16  N1  UNL     1      53.963 -12.553  20.681  1.00  0.00    -0.056 NA
HETATM   17  O1  UNL     1      52.283 -10.999  20.591  1.00  0.00    -0.269 OA
ENDBRANCH   7  15
ENDBRANCH   1   3
BRANCH   1  18
HETATM   18  C7  UNL     1      52.252 -12.756  13.159  1.00  0.00     0.679 C 
HETATM   19  N4  UNL     1      52.205 -11.976  12.133  1.00  0.00    -0.197 N 
HETATM   20  C8  UNL     1      52.958 -12.352  10.957  1.00  0.00     0.273 C 
ATOM     21  H4  UNL     1      51.653 -11.119  12.150  1.00  0.00     0.180 HD
HETATM   22  C9  UNL     1      54.347 -12.822  11.357  1.00  0.00     0.139 C 
HETATM   23  C11 UNL     1      54.287 -13.929  12.362  1.00  0.00     0.182 C 
HETATM   24  N5  UNL     1      53.039 -13.936  13.072  1.00  0.00    -0.223 N 
ATOM     25  H5  UNL     1      52.714 -14.794  13.518  1.00  0.00     0.177 HD
BRANCH  20  26
HETATM   26  O4  UNL     1      53.109 -11.284  10.085  1.00  0.00    -0.373 OA
ATOM     27  H4  UNL     1      53.519 -11.552   9.272  1.00  0.00     0.212 HD
ENDBRANCH  20  26
BRANCH  22  28
HETATM   28  O5  UNL     1      55.001 -11.698  11.880  1.00  0.00    -0.381 OA
ATOM     29  H5  UNL     1      55.924 -11.919  11.906  1.00  0.00     0.211 HD
ENDBRANCH  22  28
BRANCH  22  30
HETATM   30  C10 UNL     1      55.069 -13.312  10.133  1.00  0.00     0.208 C 
BRANCH  30  31
HETATM   31  O6  UNL     1      54.150 -13.930   9.286  1.00  0.00    -0.398 OA
ATOM     32  H6  UNL     1      54.563 -14.080   8.444  1.00  0.00     0.209 HD
ENDBRANCH  30  31
ENDBRANCH  22  30
ENDBRANCH   1  18
TORSDOF 8
ENDMDL
